data_image0
_cell_length_a       18.92
_cell_length_b       15.464
_cell_length_c       19.388
_cell_angle_alpha    90
_cell_angle_beta     101.707
_cell_angle_gamma    90

_symmetry_space_group_name_H-M    "P 1"
_symmetry_int_tables_number       1

loop_
  _symmetry_equiv_pos_as_xyz
  'x, y, z'

loop_
  _atom_site_label
  _atom_site_occupancy
  _atom_site_fract_x
  _atom_site_fract_y
  _atom_site_fract_z
  _atom_site_thermal_displace_type
  _atom_site_B_iso_or_equiv
  _atom_site_type_symbol
  Tb1      1.0000 0.00000  0.15813  0.75000  Biso   1.000  Tb
  Tb2      1.0000 0.50000  0.65813  0.25000  Biso   1.000  Tb
  Tb3      1.0000 0.00000  0.84187  0.25000  Biso   1.000  Tb
  Tb4      1.0000 0.50000  0.34187  0.75000  Biso   1.000  Tb
  Br1      1.0000 0.25000  0.75000  0.75000  Biso   1.000  Br
  Br2      1.0000 0.75000  0.75000  0.75000  Biso   1.000  Br
  Br3      1.0000 0.75000  0.25000  0.25000  Biso   1.000  Br
  Br4      1.0000 0.25000  0.25000  0.25000  Biso   1.000  Br
  Cu1      1.0000 0.17270  0.67248  0.83071  Biso   1.000  Cu
  Cu2      1.0000 0.82730  0.67248  0.66929  Biso   1.000  Cu
  Cu3      1.0000 0.67270  0.17248  0.33071  Biso   1.000  Cu
  Cu4      1.0000 0.32730  0.17248  0.16929  Biso   1.000  Cu
  Cu5      1.0000 0.82730  0.32752  0.16929  Biso   1.000  Cu
  Cu6      1.0000 0.17270  0.32752  0.33071  Biso   1.000  Cu
  Cu7      1.0000 0.32730  0.82752  0.66929  Biso   1.000  Cu
  Cu8      1.0000 0.67270  0.82752  0.83071  Biso   1.000  Cu
  O1       1.0000 0.97085  0.05040  0.81921  Biso   1.000  O
  O2       1.0000 0.02915  0.05040  0.68079  Biso   1.000  O
  O3       1.0000 0.47085  0.55040  0.31921  Biso   1.000  O
  O4       1.0000 0.52915  0.55040  0.18079  Biso   1.000  O
  O5       1.0000 0.02915  0.94960  0.18079  Biso   1.000  O
  O6       1.0000 0.97085  0.94960  0.31921  Biso   1.000  O
  O7       1.0000 0.52915  0.44960  0.68079  Biso   1.000  O
  O8       1.0000 0.47085  0.44960  0.81921  Biso   1.000  O
  O9       1.0000 0.07867  0.25490  0.71830  Biso   1.000  O
  O10      1.0000 0.92133  0.25490  0.78170  Biso   1.000  O
  O11      1.0000 0.57867  0.75490  0.21830  Biso   1.000  O
  O12      1.0000 0.42133  0.75490  0.28170  Biso   1.000  O
  O13      1.0000 0.92133  0.74510  0.28170  Biso   1.000  O
  O14      1.0000 0.07867  0.74510  0.21830  Biso   1.000  O
  O15      1.0000 0.42133  0.24510  0.78170  Biso   1.000  O
  O16      1.0000 0.57867  0.24510  0.71830  Biso   1.000  O
  O17      1.0000 0.17950  0.26590  0.67670  Biso   1.000  O
  O18      1.0000 0.82050  0.26590  0.82330  Biso   1.000  O
  O19      1.0000 0.67950  0.76590  0.17670  Biso   1.000  O
  O20      1.0000 0.32050  0.76590  0.32330  Biso   1.000  O
  O21      1.0000 0.82050  0.73410  0.32330  Biso   1.000  O
  O22      1.0000 0.17950  0.73410  0.17670  Biso   1.000  O
  O23      1.0000 0.32050  0.23410  0.82330  Biso   1.000  O
  O24      1.0000 0.67950  0.23410  0.67670  Biso   1.000  O
  O25      1.0000 0.12591  0.11910  0.82127  Biso   1.000  O
  O26      1.0000 0.87409  0.11910  0.67873  Biso   1.000  O
  O27      1.0000 0.62591  0.61910  0.32127  Biso   1.000  O
  O28      1.0000 0.37409  0.61910  0.17873  Biso   1.000  O
  O29      1.0000 0.87409  0.88090  0.17873  Biso   1.000  O
  O30      1.0000 0.12591  0.88090  0.32127  Biso   1.000  O
  O31      1.0000 0.37409  0.38090  0.67873  Biso   1.000  O
  O32      1.0000 0.62591  0.38090  0.82127  Biso   1.000  O
  O33      1.0000 0.89740  0.96350  0.86120  Biso   1.000  O
  O34      1.0000 0.10260  0.96350  0.63880  Biso   1.000  O
  O35      1.0000 0.39740  0.46350  0.36120  Biso   1.000  O
  O36      1.0000 0.60260  0.46350  0.13880  Biso   1.000  O
  O37      1.0000 0.10260  0.03650  0.13880  Biso   1.000  O
  O38      1.0000 0.89740  0.03650  0.36120  Biso   1.000  O
  O39      1.0000 0.60260  0.53650  0.63880  Biso   1.000  O
  O40      1.0000 0.39740  0.53650  0.86120  Biso   1.000  O
  O41      1.0000 0.05649  0.20790  0.86670  Biso   1.000  O
  O42      1.0000 0.94351  0.20790  0.63330  Biso   1.000  O
  O43      1.0000 0.55649  0.70790  0.36670  Biso   1.000  O
  O44      1.0000 0.44351  0.70790  0.13330  Biso   1.000  O
  O45      1.0000 0.94351  0.79210  0.13330  Biso   1.000  O
  O46      1.0000 0.05649  0.79210  0.36670  Biso   1.000  O
  O47      1.0000 0.44351  0.29210  0.63330  Biso   1.000  O
  O48      1.0000 0.55649  0.29210  0.86670  Biso   1.000  O
  N1       1.0000 0.16350  0.55120  0.79530  Biso   1.000  N
  N2       1.0000 0.83650  0.55120  0.70470  Biso   1.000  N
  N3       1.0000 0.66350  0.05120  0.29530  Biso   1.000  N
  N4       1.0000 0.33650  0.05120  0.20470  Biso   1.000  N
  N5       1.0000 0.83650  0.44880  0.20470  Biso   1.000  N
  N6       1.0000 0.16350  0.44880  0.29530  Biso   1.000  N
  N7       1.0000 0.33650  0.94880  0.70470  Biso   1.000  N
  N8       1.0000 0.66350  0.94880  0.79530  Biso   1.000  N
  N9       1.0000 0.25900  0.16610  0.07170  Biso   1.000  N
  N10      1.0000 0.74100  0.16610  0.42830  Biso   1.000  N
  N11      1.0000 0.75900  0.66610  0.57170  Biso   1.000  N
  N12      1.0000 0.24100  0.66610  0.92830  Biso   1.000  N
  N13      1.0000 0.74100  0.83390  0.92830  Biso   1.000  N
  N14      1.0000 0.25900  0.83390  0.57170  Biso   1.000  N
  N15      1.0000 0.24100  0.33390  0.42830  Biso   1.000  N
  N16      1.0000 0.75900  0.33390  0.07170  Biso   1.000  N
  N17      1.0000 0.10130  0.76660  0.83540  Biso   1.000  N
  N18      1.0000 0.89870  0.76660  0.66460  Biso   1.000  N
  N19      1.0000 0.60130  0.26660  0.33540  Biso   1.000  N
  N20      1.0000 0.39870  0.26660  0.16460  Biso   1.000  N
  N21      1.0000 0.89870  0.23340  0.16460  Biso   1.000  N
  N22      1.0000 0.10130  0.23340  0.33540  Biso   1.000  N
  N23      1.0000 0.39870  0.73340  0.66460  Biso   1.000  N
  N24      1.0000 0.60130  0.73340  0.83540  Biso   1.000  N
  C1       1.0000 0.11250  0.16250  0.87160  Biso   1.000  C
  C2       1.0000 0.88750  0.16250  0.62840  Biso   1.000  C
  C3       1.0000 0.61250  0.66250  0.37160  Biso   1.000  C
  C4       1.0000 0.38750  0.66250  0.12840  Biso   1.000  C
  C5       1.0000 0.88750  0.83750  0.12840  Biso   1.000  C
  C6       1.0000 0.11250  0.83750  0.37160  Biso   1.000  C
  C7       1.0000 0.38750  0.33750  0.62840  Biso   1.000  C
  C8       1.0000 0.61250  0.33750  0.87160  Biso   1.000  C
  C9       1.0000 0.20850  0.42990  0.73970  Biso   1.000  C
  C10      1.0000 0.79150  0.42990  0.76030  Biso   1.000  C
  C11      1.0000 0.70850  0.92990  0.23970  Biso   1.000  C
  C12      1.0000 0.29150  0.92990  0.26030  Biso   1.000  C
  C13      1.0000 0.79150  0.57010  0.26030  Biso   1.000  C
  C14      1.0000 0.20850  0.57010  0.23970  Biso   1.000  C
  C15      1.0000 0.29150  0.07010  0.76030  Biso   1.000  C
  C16      1.0000 0.70850  0.07010  0.73970  Biso   1.000  C
  H1       1.0000 0.24459  0.40690  0.71902  Biso   1.000  H
  H2       1.0000 0.75541  0.40690  0.78098  Biso   1.000  H
  H3       1.0000 0.74459  0.90690  0.21902  Biso   1.000  H
  H4       1.0000 0.25541  0.90690  0.28098  Biso   1.000  H
  H5       1.0000 0.75541  0.59310  0.28098  Biso   1.000  H
  H6       1.0000 0.24459  0.59310  0.21902  Biso   1.000  H
  H7       1.0000 0.25541  0.09310  0.78098  Biso   1.000  H
  H8       1.0000 0.74459  0.09310  0.71902  Biso   1.000  H
  C17      1.0000 0.28230  0.15260  0.01270  Biso   1.000  C
  C18      1.0000 0.71770  0.15260  0.48730  Biso   1.000  C
  C19      1.0000 0.78230  0.65260  0.51270  Biso   1.000  C
  C20      1.0000 0.21770  0.65260  0.98730  Biso   1.000  C
  C21      1.0000 0.71770  0.84740  0.98730  Biso   1.000  C
  C22      1.0000 0.28230  0.84740  0.51270  Biso   1.000  C
  C23      1.0000 0.21770  0.34740  0.48730  Biso   1.000  C
  C24      1.0000 0.78230  0.34740  0.01270  Biso   1.000  C
  H9       1.0000 0.33160  0.14485  0.01570  Biso   1.000  H
  H10      1.0000 0.66840  0.14485  0.48430  Biso   1.000  H
  H11      1.0000 0.83160  0.64485  0.51570  Biso   1.000  H
  H12      1.0000 0.16840  0.64485  0.98430  Biso   1.000  H
  H13      1.0000 0.66840  0.85515  0.98430  Biso   1.000  H
  H14      1.0000 0.33160  0.85515  0.51570  Biso   1.000  H
  H15      1.0000 0.16840  0.35515  0.48430  Biso   1.000  H
  H16      1.0000 0.83160  0.35515  0.01570  Biso   1.000  H
  C25      1.0000 0.21400  0.51400  0.76530  Biso   1.000  C
  C26      1.0000 0.78600  0.51400  0.73470  Biso   1.000  C
  C27      1.0000 0.71400  0.01400  0.26530  Biso   1.000  C
  C28      1.0000 0.28600  0.01400  0.23470  Biso   1.000  C
  C29      1.0000 0.78600  0.48600  0.23470  Biso   1.000  C
  C30      1.0000 0.21400  0.48600  0.26530  Biso   1.000  C
  C31      1.0000 0.28600  0.98600  0.73470  Biso   1.000  C
  C32      1.0000 0.71400  0.98600  0.76530  Biso   1.000  C
  H17      1.0000 0.25451  0.54617  0.76149  Biso   1.000  H
  H18      1.0000 0.74549  0.54617  0.73851  Biso   1.000  H
  H19      1.0000 0.75451  0.04617  0.26149  Biso   1.000  H
  H20      1.0000 0.24549  0.04617  0.23851  Biso   1.000  H
  H21      1.0000 0.74549  0.45383  0.23851  Biso   1.000  H
  H22      1.0000 0.25451  0.45383  0.26149  Biso   1.000  H
  H23      1.0000 0.24549  0.95383  0.73851  Biso   1.000  H
  H24      1.0000 0.75451  0.95383  0.76149  Biso   1.000  H
  C33      1.0000 0.09930  0.41700  0.78000  Biso   1.000  C
  C34      1.0000 0.90070  0.41700  0.72000  Biso   1.000  C
  C35      1.0000 0.59930  0.91700  0.28000  Biso   1.000  C
  C36      1.0000 0.40070  0.91700  0.22000  Biso   1.000  C
  C37      1.0000 0.90070  0.58300  0.22000  Biso   1.000  C
  C38      1.0000 0.09930  0.58300  0.28000  Biso   1.000  C
  C39      1.0000 0.40070  0.08300  0.72000  Biso   1.000  C
  C40      1.0000 0.59930  0.08300  0.78000  Biso   1.000  C
  H25      1.0000 0.05993  0.38475  0.78725  Biso   1.000  H
  H26      1.0000 0.94007  0.38475  0.71275  Biso   1.000  H
  H27      1.0000 0.55993  0.88475  0.28725  Biso   1.000  H
  H28      1.0000 0.44007  0.88475  0.21275  Biso   1.000  H
  H29      1.0000 0.94007  0.61525  0.21275  Biso   1.000  H
  H30      1.0000 0.05993  0.61525  0.28725  Biso   1.000  H
  H31      1.0000 0.44007  0.11525  0.71275  Biso   1.000  H
  H32      1.0000 0.55993  0.11525  0.78725  Biso   1.000  H
  C41      1.0000 0.14910  0.38100  0.74540  Biso   1.000  C
  C42      1.0000 0.85090  0.38100  0.75460  Biso   1.000  C
  C43      1.0000 0.64910  0.88100  0.24540  Biso   1.000  C
  C44      1.0000 0.35090  0.88100  0.25460  Biso   1.000  C
  C45      1.0000 0.85090  0.61900  0.25460  Biso   1.000  C
  C46      1.0000 0.14910  0.61900  0.24540  Biso   1.000  C
  C47      1.0000 0.35090  0.11900  0.75460  Biso   1.000  C
  C48      1.0000 0.64910  0.11900  0.74540  Biso   1.000  C
  C49      1.0000 0.10810  0.50110  0.80380  Biso   1.000  C
  C50      1.0000 0.89190  0.50110  0.69620  Biso   1.000  C
  C51      1.0000 0.60810  0.00110  0.30380  Biso   1.000  C
  C52      1.0000 0.39190  0.00110  0.19620  Biso   1.000  C
  C53      1.0000 0.89190  0.49890  0.19620  Biso   1.000  C
  C54      1.0000 0.10810  0.49890  0.30380  Biso   1.000  C
  C55      1.0000 0.39190  0.99890  0.69620  Biso   1.000  C
  C56      1.0000 0.60810  0.99890  0.80380  Biso   1.000  C
  H33      1.0000 0.07397  0.52424  0.82695  Biso   1.000  H
  H34      1.0000 0.92603  0.52424  0.67305  Biso   1.000  H
  H35      1.0000 0.57397  0.02424  0.32695  Biso   1.000  H
  H36      1.0000 0.42603  0.02424  0.17305  Biso   1.000  H
  H37      1.0000 0.92603  0.47576  0.17305  Biso   1.000  H
  H38      1.0000 0.07397  0.47576  0.32695  Biso   1.000  H
  H39      1.0000 0.42603  0.97576  0.67305  Biso   1.000  H
  H40      1.0000 0.57397  0.97576  0.82695  Biso   1.000  H
  C57      1.0000 0.18870  0.17480  0.06600  Biso   1.000  C
  C58      1.0000 0.81130  0.17480  0.43400  Biso   1.000  C
  C59      1.0000 0.68870  0.67480  0.56600  Biso   1.000  C
  C60      1.0000 0.31130  0.67480  0.93400  Biso   1.000  C
  C61      1.0000 0.81130  0.82520  0.93400  Biso   1.000  C
  C62      1.0000 0.18870  0.82520  0.56600  Biso   1.000  C
  C63      1.0000 0.31130  0.32520  0.43400  Biso   1.000  C
  C64      1.0000 0.68870  0.32520  0.06600  Biso   1.000  C
  H41      1.0000 0.17075  0.18117  0.10697  Biso   1.000  H
  H42      1.0000 0.82925  0.18117  0.39303  Biso   1.000  H
  H43      1.0000 0.67075  0.68117  0.60697  Biso   1.000  H
  H44      1.0000 0.32925  0.68117  0.89303  Biso   1.000  H
  H45      1.0000 0.82925  0.81883  0.89303  Biso   1.000  H
  H46      1.0000 0.17075  0.81883  0.60697  Biso   1.000  H
  H47      1.0000 0.32925  0.31883  0.39303  Biso   1.000  H
  H48      1.0000 0.67075  0.31883  0.10697  Biso   1.000  H
  C65      1.0000 0.14030  0.17490  0.00190  Biso   1.000  C
  C66      1.0000 0.85970  0.17490  0.49810  Biso   1.000  C
  C67      1.0000 0.64030  0.67490  0.50190  Biso   1.000  C
  C68      1.0000 0.35970  0.67490  0.99810  Biso   1.000  C
  C69      1.0000 0.85970  0.82510  0.99810  Biso   1.000  C
  C70      1.0000 0.14030  0.82510  0.50190  Biso   1.000  C
  C71      1.0000 0.35970  0.32510  0.49810  Biso   1.000  C
  C72      1.0000 0.64030  0.32510  0.00190  Biso   1.000  C
  H49      1.0000 0.09137  0.18380  0.00043  Biso   1.000  H
  H50      1.0000 0.90863  0.18380  0.49957  Biso   1.000  H
  H51      1.0000 0.59137  0.68380  0.50043  Biso   1.000  H
  H52      1.0000 0.40863  0.68380  0.99957  Biso   1.000  H
  H53      1.0000 0.90863  0.81620  0.99957  Biso   1.000  H
  H54      1.0000 0.09137  0.81620  0.50043  Biso   1.000  H
  H55      1.0000 0.40863  0.31620  0.49957  Biso   1.000  H
  H56      1.0000 0.59137  0.31620  0.00043  Biso   1.000  H
  C73      1.0000 0.03200  0.75380  0.83720  Biso   1.000  C
  C74      1.0000 0.96800  0.75380  0.66280  Biso   1.000  C
  C75      1.0000 0.53200  0.25380  0.33720  Biso   1.000  C
  C76      1.0000 0.46800  0.25380  0.16280  Biso   1.000  C
  C77      1.0000 0.96800  0.24620  0.16280  Biso   1.000  C
  C78      1.0000 0.03200  0.24620  0.33720  Biso   1.000  C
  C79      1.0000 0.46800  0.74620  0.66280  Biso   1.000  C
  C80      1.0000 0.53200  0.74620  0.83720  Biso   1.000  C
  H57      1.0000 0.01567  0.69707  0.83695  Biso   1.000  H
  H58      1.0000 0.98433  0.69707  0.66305  Biso   1.000  H
  H59      1.0000 0.51567  0.19707  0.33695  Biso   1.000  H
  H60      1.0000 0.48433  0.19707  0.16305  Biso   1.000  H
  H61      1.0000 0.98433  0.30293  0.16305  Biso   1.000  H
  H62      1.0000 0.01567  0.30293  0.33695  Biso   1.000  H
  H63      1.0000 0.48433  0.80293  0.66305  Biso   1.000  H
  H64      1.0000 0.51567  0.80293  0.83695  Biso   1.000  H
  C81      1.0000 0.12270  0.84950  0.83580  Biso   1.000  C
  C82      1.0000 0.87730  0.84950  0.66420  Biso   1.000  C
  C83      1.0000 0.62270  0.34950  0.33580  Biso   1.000  C
  C84      1.0000 0.37730  0.34950  0.16420  Biso   1.000  C
  C85      1.0000 0.87730  0.15050  0.16420  Biso   1.000  C
  C86      1.0000 0.12270  0.15050  0.33580  Biso   1.000  C
  C87      1.0000 0.37730  0.65050  0.66420  Biso   1.000  C
  C88      1.0000 0.62270  0.65050  0.83580  Biso   1.000  C
  H65      1.0000 0.17088  0.86060  0.83516  Biso   1.000  H
  H66      1.0000 0.82912  0.86060  0.66484  Biso   1.000  H
  H67      1.0000 0.67088  0.36060  0.33516  Biso   1.000  H
  H68      1.0000 0.32912  0.36060  0.16484  Biso   1.000  H
  H69      1.0000 0.82912  0.13940  0.16484  Biso   1.000  H
  H70      1.0000 0.17088  0.13940  0.33516  Biso   1.000  H
  H71      1.0000 0.32912  0.63940  0.66484  Biso   1.000  H
  H72      1.0000 0.67088  0.63940  0.83516  Biso   1.000  H
  C89      1.0000 0.13530  0.29310  0.71140  Biso   1.000  C
  C90      1.0000 0.86470  0.29310  0.78860  Biso   1.000  C
  C91      1.0000 0.63530  0.79310  0.21140  Biso   1.000  C
  C92      1.0000 0.36470  0.79310  0.28860  Biso   1.000  C
  C93      1.0000 0.86470  0.70690  0.28860  Biso   1.000  C
  C94      1.0000 0.13530  0.70690  0.21140  Biso   1.000  C
  C95      1.0000 0.36470  0.20690  0.78860  Biso   1.000  C
  C96      1.0000 0.63530  0.20690  0.71140  Biso   1.000  C
  C97      1.0000 0.07790  0.91810  0.83720  Biso   1.000  C
  C98      1.0000 0.92210  0.91810  0.66280  Biso   1.000  C
  C99      1.0000 0.57790  0.41810  0.33720  Biso   1.000  C
  C100     1.0000 0.42210  0.41810  0.16280  Biso   1.000  C
  C101     1.0000 0.92210  0.08190  0.16280  Biso   1.000  C
  C102     1.0000 0.07790  0.08190  0.33720  Biso   1.000  C
  C103     1.0000 0.42210  0.58190  0.66280  Biso   1.000  C
  C104     1.0000 0.57790  0.58190  0.83720  Biso   1.000  C
  H73      1.0000 0.09539  0.97432  0.83691  Biso   1.000  H
  H74      1.0000 0.90461  0.97432  0.66309  Biso   1.000  H
  H75      1.0000 0.59539  0.47432  0.33691  Biso   1.000  H
  H76      1.0000 0.40461  0.47432  0.16309  Biso   1.000  H
  H77      1.0000 0.90461  0.02568  0.16309  Biso   1.000  H
  H78      1.0000 0.09539  0.02568  0.33691  Biso   1.000  H
  H79      1.0000 0.40461  0.52568  0.66309  Biso   1.000  H
  H80      1.0000 0.59539  0.52568  0.83691  Biso   1.000  H
  C105     1.0000 0.16440  0.16200  0.94140  Biso   1.000  C
  C106     1.0000 0.83560  0.16200  0.55860  Biso   1.000  C
  C107     1.0000 0.66440  0.66200  0.44140  Biso   1.000  C
  C108     1.0000 0.33560  0.66200  0.05860  Biso   1.000  C
  C109     1.0000 0.83560  0.83800  0.05860  Biso   1.000  C
  C110     1.0000 0.16440  0.83800  0.44140  Biso   1.000  C
  C111     1.0000 0.33560  0.33800  0.55860  Biso   1.000  C
  C112     1.0000 0.66440  0.33800  0.94140  Biso   1.000  C
  C113     1.0000 0.98290  0.81900  0.83940  Biso   1.000  C
  C114     1.0000 0.01710  0.81900  0.66060  Biso   1.000  C
  C115     1.0000 0.48290  0.31900  0.33940  Biso   1.000  C
  C116     1.0000 0.51710  0.31900  0.16060  Biso   1.000  C
  C117     1.0000 0.01710  0.18100  0.16060  Biso   1.000  C
  C118     1.0000 0.98290  0.18100  0.33940  Biso   1.000  C
  C119     1.0000 0.51710  0.68100  0.66060  Biso   1.000  C
  C120     1.0000 0.48290  0.68100  0.83940  Biso   1.000  C
  H81      1.0000 0.93522  0.80620  0.84107  Biso   1.000  H
  H82      1.0000 0.06478  0.80620  0.65893  Biso   1.000  H
  H83      1.0000 0.43522  0.30620  0.34107  Biso   1.000  H
  H84      1.0000 0.56478  0.30620  0.15893  Biso   1.000  H
  H85      1.0000 0.06478  0.19380  0.15893  Biso   1.000  H
  H86      1.0000 0.93522  0.19380  0.34107  Biso   1.000  H
  H87      1.0000 0.56478  0.69380  0.65893  Biso   1.000  H
  H88      1.0000 0.43522  0.69380  0.84107  Biso   1.000  H
  C121     1.0000 0.00590  0.90350  0.83910  Biso   1.000  C
  C122     1.0000 0.99410  0.90350  0.66090  Biso   1.000  C
  C123     1.0000 0.50590  0.40350  0.33910  Biso   1.000  C
  C124     1.0000 0.49410  0.40350  0.16090  Biso   1.000  C
  C125     1.0000 0.99410  0.09650  0.16090  Biso   1.000  C
  C126     1.0000 0.00590  0.09650  0.33910  Biso   1.000  C
  C127     1.0000 0.49410  0.59650  0.66090  Biso   1.000  C
  C128     1.0000 0.50590  0.59650  0.83910  Biso   1.000  C
  C129     1.0000 0.95360  0.97800  0.83990  Biso   1.000  C
  C130     1.0000 0.04640  0.97800  0.66010  Biso   1.000  C
  C131     1.0000 0.45360  0.47800  0.33990  Biso   1.000  C
  C132     1.0000 0.54640  0.47800  0.16010  Biso   1.000  C
  C133     1.0000 0.04640  0.02200  0.16010  Biso   1.000  C
  C134     1.0000 0.95360  0.02200  0.33990  Biso   1.000  C
  C135     1.0000 0.54640  0.52200  0.66010  Biso   1.000  C
  C136     1.0000 0.45360  0.52200  0.83990  Biso   1.000  C
  C137     1.0000 0.23770  0.14920  0.94730  Biso   1.000  C
  C138     1.0000 0.76230  0.14920  0.55270  Biso   1.000  C
  C139     1.0000 0.73770  0.64920  0.44730  Biso   1.000  C
  C140     1.0000 0.26230  0.64920  0.05270  Biso   1.000  C
  C141     1.0000 0.76230  0.85080  0.05270  Biso   1.000  C
  C142     1.0000 0.23770  0.85080  0.44730  Biso   1.000  C
  C143     1.0000 0.26230  0.35080  0.55270  Biso   1.000  C
  C144     1.0000 0.73770  0.35080  0.94730  Biso   1.000  C
  H89      1.0000 0.25654  0.13849  0.90742  Biso   1.000  H
  H90      1.0000 0.74346  0.13849  0.59258  Biso   1.000  H
  H91      1.0000 0.75654  0.63849  0.40742  Biso   1.000  H
  H92      1.0000 0.24346  0.63849  0.09258  Biso   1.000  H
  H93      1.0000 0.74346  0.86151  0.09258  Biso   1.000  H
  H94      1.0000 0.25654  0.86151  0.40742  Biso   1.000  H
  H95      1.0000 0.24346  0.36151  0.59258  Biso   1.000  H
  H96      1.0000 0.75654  0.36151  0.90742  Biso   1.000  H
  O49      1.0000 0.96620  0.39800  0.05510  Biso   1.000  O
  O50      1.0000 0.03380  0.39800  0.44490  Biso   1.000  O
  O51      1.0000 0.46620  0.89800  0.55510  Biso   1.000  O
  O52      1.0000 0.53380  0.89800  0.94490  Biso   1.000  O
  O53      1.0000 0.03380  0.60200  0.94490  Biso   1.000  O
  O54      1.0000 0.96620  0.60200  0.55510  Biso   1.000  O
  O55      1.0000 0.53380  0.10200  0.44490  Biso   1.000  O
  O56      1.0000 0.46620  0.10200  0.05510  Biso   1.000  O
  N25      1.0000 0.07900  0.39770  0.03640  Biso   1.000  N
  N26      1.0000 0.92100  0.39770  0.46360  Biso   1.000  N
  N27      1.0000 0.57900  0.89770  0.53640  Biso   1.000  N
  N28      1.0000 0.42100  0.89770  0.96360  Biso   1.000  N
  N29      1.0000 0.92100  0.60230  0.96360  Biso   1.000  N
  N30      1.0000 0.07900  0.60230  0.53640  Biso   1.000  N
  N31      1.0000 0.42100  0.10230  0.46360  Biso   1.000  N
  N32      1.0000 0.57900  0.10230  0.03640  Biso   1.000  N
  C145     1.0000 0.98000  0.38410  0.93580  Biso   1.000  C
  C146     1.0000 0.02000  0.38410  0.56420  Biso   1.000  C
  C147     1.0000 0.48000  0.88410  0.43580  Biso   1.000  C
  C148     1.0000 0.52000  0.88410  0.06420  Biso   1.000  C
  C149     1.0000 0.02000  0.61590  0.06420  Biso   1.000  C
  C150     1.0000 0.98000  0.61590  0.43580  Biso   1.000  C
  C151     1.0000 0.52000  0.11590  0.56420  Biso   1.000  C
  C152     1.0000 0.48000  0.11590  0.93580  Biso   1.000  C
  H97      1.0000 0.92824  0.38292  0.92657  Biso   1.000  H
  H98      1.0000 0.07176  0.38292  0.57343  Biso   1.000  H
  H99      1.0000 0.42824  0.88292  0.42657  Biso   1.000  H
  H100     1.0000 0.57176  0.88292  0.07343  Biso   1.000  H
  H101     1.0000 0.07176  0.61708  0.07343  Biso   1.000  H
  H102     1.0000 0.92824  0.61708  0.42657  Biso   1.000  H
  H103     1.0000 0.57176  0.11708  0.57343  Biso   1.000  H
  H104     1.0000 0.42824  0.11708  0.92657  Biso   1.000  H
  H105     1.0000 0.99775  0.33134  0.91950  Biso   1.000  H
  H106     1.0000 0.00225  0.33134  0.58050  Biso   1.000  H
  H107     1.0000 0.49775  0.83134  0.41950  Biso   1.000  H
  H108     1.0000 0.50225  0.83134  0.08050  Biso   1.000  H
  H109     1.0000 0.00225  0.66866  0.08050  Biso   1.000  H
  H110     1.0000 0.99775  0.66866  0.41950  Biso   1.000  H
  H111     1.0000 0.50225  0.16866  0.58050  Biso   1.000  H
  H112     1.0000 0.49775  0.16866  0.91950  Biso   1.000  H
  H113     1.0000 0.99593  0.43225  0.91158  Biso   1.000  H
  H114     1.0000 0.00407  0.43225  0.58842  Biso   1.000  H
  H115     1.0000 0.49593  0.93225  0.41158  Biso   1.000  H
  H116     1.0000 0.50407  0.93225  0.08842  Biso   1.000  H
  H117     1.0000 0.00407  0.56775  0.08842  Biso   1.000  H
  H118     1.0000 0.99593  0.56775  0.41158  Biso   1.000  H
  H119     1.0000 0.50407  0.06775  0.58842  Biso   1.000  H
  H120     1.0000 0.49593  0.06775  0.91158  Biso   1.000  H
  C153     1.0000 0.10980  0.40820  0.11180  Biso   1.000  C
  C154     1.0000 0.89020  0.40820  0.38820  Biso   1.000  C
  C155     1.0000 0.60980  0.90820  0.61180  Biso   1.000  C
  C156     1.0000 0.39020  0.90820  0.88820  Biso   1.000  C
  C157     1.0000 0.89020  0.59180  0.88820  Biso   1.000  C
  C158     1.0000 0.10980  0.59180  0.61180  Biso   1.000  C
  C159     1.0000 0.39020  0.09180  0.38820  Biso   1.000  C
  C160     1.0000 0.60980  0.09180  0.11180  Biso   1.000  C
  H121     1.0000 0.13817  0.35820  0.12875  Biso   1.000  H
  H122     1.0000 0.86183  0.35820  0.37125  Biso   1.000  H
  H123     1.0000 0.63817  0.85820  0.62875  Biso   1.000  H
  H124     1.0000 0.36183  0.85820  0.87125  Biso   1.000  H
  H125     1.0000 0.86183  0.64180  0.87125  Biso   1.000  H
  H126     1.0000 0.13817  0.64180  0.62875  Biso   1.000  H
  H127     1.0000 0.36183  0.14180  0.37125  Biso   1.000  H
  H128     1.0000 0.63817  0.14180  0.12875  Biso   1.000  H
  H129     1.0000 0.07153  0.41447  0.13720  Biso   1.000  H
  H130     1.0000 0.92847  0.41447  0.36280  Biso   1.000  H
  H131     1.0000 0.57153  0.91447  0.63720  Biso   1.000  H
  H132     1.0000 0.42847  0.91447  0.86280  Biso   1.000  H
  H133     1.0000 0.92847  0.58553  0.86280  Biso   1.000  H
  H134     1.0000 0.07153  0.58553  0.63720  Biso   1.000  H
  H135     1.0000 0.42847  0.08553  0.36280  Biso   1.000  H
  H136     1.0000 0.57153  0.08553  0.13720  Biso   1.000  H
  H137     1.0000 0.13989  0.45871  0.11871  Biso   1.000  H
  H138     1.0000 0.86011  0.45871  0.38129  Biso   1.000  H
  H139     1.0000 0.63989  0.95871  0.61871  Biso   1.000  H
  H140     1.0000 0.36011  0.95871  0.88129  Biso   1.000  H
  H141     1.0000 0.86011  0.54129  0.88129  Biso   1.000  H
  H142     1.0000 0.13989  0.54129  0.61871  Biso   1.000  H
  H143     1.0000 0.36011  0.04129  0.38129  Biso   1.000  H
  H144     1.0000 0.63989  0.04129  0.11871  Biso   1.000  H
  C161     1.0000 0.12960  0.40250  0.98800  Biso   1.000  C
  C162     1.0000 0.87040  0.40250  0.51200  Biso   1.000  C
  C163     1.0000 0.62960  0.90250  0.48800  Biso   1.000  C
  C164     1.0000 0.37040  0.90250  0.01200  Biso   1.000  C
  C165     1.0000 0.87040  0.59750  0.01200  Biso   1.000  C
  C166     1.0000 0.12960  0.59750  0.48800  Biso   1.000  C
  C167     1.0000 0.37040  0.09750  0.51200  Biso   1.000  C
  C168     1.0000 0.62960  0.09750  0.98800  Biso   1.000  C
  H145     1.0000 0.12940  0.46004  0.96931  Biso   1.000  H
  H146     1.0000 0.87060  0.46004  0.53069  Biso   1.000  H
  H147     1.0000 0.62940  0.96004  0.46931  Biso   1.000  H
  H148     1.0000 0.37060  0.96004  0.03069  Biso   1.000  H
  H149     1.0000 0.87060  0.53996  0.03069  Biso   1.000  H
  H150     1.0000 0.12940  0.53996  0.46931  Biso   1.000  H
  H151     1.0000 0.37060  0.03996  0.53069  Biso   1.000  H
  H152     1.0000 0.62940  0.03996  0.96931  Biso   1.000  H
  H153     1.0000 0.11508  0.36228  0.95002  Biso   1.000  H
  H154     1.0000 0.88492  0.36228  0.54998  Biso   1.000  H
  H155     1.0000 0.61508  0.86228  0.45002  Biso   1.000  H
  H156     1.0000 0.38492  0.86228  0.04998  Biso   1.000  H
  H157     1.0000 0.88492  0.63772  0.04998  Biso   1.000  H
  H158     1.0000 0.11508  0.63772  0.45002  Biso   1.000  H
  H159     1.0000 0.38492  0.13772  0.54998  Biso   1.000  H
  H160     1.0000 0.61508  0.13772  0.95002  Biso   1.000  H
  H161     1.0000 0.17736  0.38835  0.01298  Biso   1.000  H
  H162     1.0000 0.82264  0.38835  0.48702  Biso   1.000  H
  H163     1.0000 0.67736  0.88835  0.51298  Biso   1.000  H
  H164     1.0000 0.32264  0.88835  0.98702  Biso   1.000  H
  H165     1.0000 0.82264  0.61165  0.98702  Biso   1.000  H
  H166     1.0000 0.17736  0.61165  0.51298  Biso   1.000  H
  H167     1.0000 0.32264  0.11165  0.48702  Biso   1.000  H
  H168     1.0000 0.67736  0.11165  0.01298  Biso   1.000  H
  C169     1.0000 0.00860  0.39340  0.01390  Biso   1.000  C
  C170     1.0000 0.99140  0.39340  0.48610  Biso   1.000  C
  C171     1.0000 0.50860  0.89340  0.51390  Biso   1.000  C
  C172     1.0000 0.49140  0.89340  0.98610  Biso   1.000  C
  C173     1.0000 0.99140  0.60660  0.98610  Biso   1.000  C
  C174     1.0000 0.00860  0.60660  0.51390  Biso   1.000  C
  C175     1.0000 0.49140  0.10660  0.48610  Biso   1.000  C
  C176     1.0000 0.50860  0.10660  0.01390  Biso   1.000  C
  N33      1.0000 0.14400  0.12280  0.59600  Biso   1.000  N
  N34      1.0000 0.85600  0.12280  0.90400  Biso   1.000  N
  N35      1.0000 0.64400  0.62280  0.09600  Biso   1.000  N
  N36      1.0000 0.35600  0.62280  0.40400  Biso   1.000  N
  N37      1.0000 0.85600  0.87720  0.40400  Biso   1.000  N
  N38      1.0000 0.14400  0.87720  0.09600  Biso   1.000  N
  N39      1.0000 0.35600  0.37720  0.90400  Biso   1.000  N
  N40      1.0000 0.64400  0.37720  0.59600  Biso   1.000  N
  H169     1.0000 0.13285  0.07705  0.61954  Biso   1.000  H
  H170     1.0000 0.86715  0.07705  0.88046  Biso   1.000  H
  H171     1.0000 0.63285  0.57705  0.11954  Biso   1.000  H
  H172     1.0000 0.36715  0.57705  0.38046  Biso   1.000  H
  H173     1.0000 0.86715  0.92295  0.38046  Biso   1.000  H
  H174     1.0000 0.13285  0.92295  0.11954  Biso   1.000  H
  H175     1.0000 0.36715  0.42295  0.88046  Biso   1.000  H
  H176     1.0000 0.63285  0.42295  0.61954  Biso   1.000  H
  H177     1.0000 0.15520  0.16595  0.62658  Biso   1.000  H
  H178     1.0000 0.84480  0.16595  0.87342  Biso   1.000  H
  H179     1.0000 0.65520  0.66595  0.12658  Biso   1.000  H
  H180     1.0000 0.34480  0.66595  0.37342  Biso   1.000  H
  H181     1.0000 0.84480  0.83405  0.37342  Biso   1.000  H
  H182     1.0000 0.15520  0.83405  0.12658  Biso   1.000  H
  H183     1.0000 0.34480  0.33405  0.87342  Biso   1.000  H
  H184     1.0000 0.65520  0.33405  0.62658  Biso   1.000  H
  C177     1.0000 0.08040  0.14760  0.54320  Biso   1.000  C
  C178     1.0000 0.91960  0.14760  0.95680  Biso   1.000  C
  C179     1.0000 0.58040  0.64760  0.04320  Biso   1.000  C
  C180     1.0000 0.41960  0.64760  0.45680  Biso   1.000  C
  C181     1.0000 0.91960  0.85240  0.45680  Biso   1.000  C
  C182     1.0000 0.08040  0.85240  0.04320  Biso   1.000  C
  C183     1.0000 0.41960  0.35240  0.95680  Biso   1.000  C
  C184     1.0000 0.58040  0.35240  0.54320  Biso   1.000  C
  H185     1.0000 0.06634  0.10042  0.51119  Biso   1.000  H
  H186     1.0000 0.93366  0.10042  0.98881  Biso   1.000  H
  H187     1.0000 0.56634  0.60042  0.01119  Biso   1.000  H
  H188     1.0000 0.43366  0.60042  0.48881  Biso   1.000  H
  H189     1.0000 0.93366  0.89958  0.48881  Biso   1.000  H
  H190     1.0000 0.06634  0.89958  0.01119  Biso   1.000  H
  H191     1.0000 0.43366  0.39958  0.98881  Biso   1.000  H
  H192     1.0000 0.56634  0.39958  0.51119  Biso   1.000  H
  H193     1.0000 0.09162  0.19715  0.51765  Biso   1.000  H
  H194     1.0000 0.90838  0.19715  0.98235  Biso   1.000  H
  H195     1.0000 0.59162  0.69715  0.01765  Biso   1.000  H
  H196     1.0000 0.40838  0.69715  0.48235  Biso   1.000  H
  H197     1.0000 0.90838  0.80285  0.48235  Biso   1.000  H
  H198     1.0000 0.09162  0.80285  0.01765  Biso   1.000  H
  H199     1.0000 0.40838  0.30285  0.98235  Biso   1.000  H
  H200     1.0000 0.59162  0.30285  0.51765  Biso   1.000  H
  H201     1.0000 0.04144  0.16146  0.56627  Biso   1.000  H
  H202     1.0000 0.95856  0.16146  0.93373  Biso   1.000  H
  H203     1.0000 0.54144  0.66146  0.06627  Biso   1.000  H
  H204     1.0000 0.45856  0.66146  0.43373  Biso   1.000  H
  H205     1.0000 0.95856  0.83854  0.43373  Biso   1.000  H
  H206     1.0000 0.04144  0.83854  0.06627  Biso   1.000  H
  H207     1.0000 0.45856  0.33854  0.93373  Biso   1.000  H
  H208     1.0000 0.54144  0.33854  0.56627  Biso   1.000  H
  C185     1.0000 0.20760  0.10180  0.56660  Biso   1.000  C
  C186     1.0000 0.79240  0.10180  0.93340  Biso   1.000  C
  C187     1.0000 0.70760  0.60180  0.06660  Biso   1.000  C
  C188     1.0000 0.29240  0.60180  0.43340  Biso   1.000  C
  C189     1.0000 0.79240  0.89820  0.43340  Biso   1.000  C
  C190     1.0000 0.20760  0.89820  0.06660  Biso   1.000  C
  C191     1.0000 0.29240  0.39820  0.93340  Biso   1.000  C
  C192     1.0000 0.70760  0.39820  0.56660  Biso   1.000  C
  H209     1.0000 0.19702  0.05289  0.53570  Biso   1.000  H
  H210     1.0000 0.80298  0.05289  0.96430  Biso   1.000  H
  H211     1.0000 0.69702  0.55289  0.03570  Biso   1.000  H
  H212     1.0000 0.30298  0.55289  0.46430  Biso   1.000  H
  H213     1.0000 0.80298  0.94711  0.46430  Biso   1.000  H
  H214     1.0000 0.19702  0.94711  0.03570  Biso   1.000  H
  H215     1.0000 0.30298  0.44711  0.96430  Biso   1.000  H
  H216     1.0000 0.69702  0.44711  0.53570  Biso   1.000  H
  H217     1.0000 0.24743  0.08818  0.60421  Biso   1.000  H
  H218     1.0000 0.75257  0.08818  0.89579  Biso   1.000  H
  H219     1.0000 0.74743  0.58818  0.10421  Biso   1.000  H
  H220     1.0000 0.25257  0.58818  0.39579  Biso   1.000  H
  H221     1.0000 0.75257  0.91182  0.39579  Biso   1.000  H
  H222     1.0000 0.24743  0.91182  0.10421  Biso   1.000  H
  H223     1.0000 0.25257  0.41182  0.89579  Biso   1.000  H
  H224     1.0000 0.74743  0.41182  0.60421  Biso   1.000  H
  H225     1.0000 0.21983  0.15051  0.54069  Biso   1.000  H
  H226     1.0000 0.78017  0.15051  0.95931  Biso   1.000  H
  H227     1.0000 0.71983  0.65051  0.04069  Biso   1.000  H
  H228     1.0000 0.28017  0.65051  0.45931  Biso   1.000  H
  H229     1.0000 0.78017  0.84949  0.45931  Biso   1.000  H
  H230     1.0000 0.21983  0.84949  0.04069  Biso   1.000  H
  H231     1.0000 0.28017  0.34949  0.95931  Biso   1.000  H
  H232     1.0000 0.71983  0.34949  0.54069  Biso   1.000  H
