data_image0
_cell_length_a       12.506
_cell_length_b       22.88
_cell_length_c       24.7
_cell_angle_alpha    90
_cell_angle_beta     90
_cell_angle_gamma    90

_symmetry_space_group_name_H-M    "P 1"
_symmetry_int_tables_number       1

loop_
  _symmetry_equiv_pos_as_xyz
  'x, y, z'

loop_
  _atom_site_label
  _atom_site_occupancy
  _atom_site_fract_x
  _atom_site_fract_y
  _atom_site_fract_z
  _atom_site_thermal_displace_type
  _atom_site_B_iso_or_equiv
  _atom_site_type_symbol
  Yb1      1.0000 0.37500  0.37500  0.37500  Biso   1.000  Yb
  Yb2      1.0000 0.87500  0.87500  0.37500  Biso   1.000  Yb
  Yb3      1.0000 0.37500  0.87500  0.87500  Biso   1.000  Yb
  Yb4      1.0000 0.87500  0.37500  0.87500  Biso   1.000  Yb
  Yb5      1.0000 0.62500  0.62500  0.62500  Biso   1.000  Yb
  Yb6      1.0000 0.62500  0.12500  0.12500  Biso   1.000  Yb
  Yb7      1.0000 0.12500  0.62500  0.12500  Biso   1.000  Yb
  Yb8      1.0000 0.12500  0.12500  0.62500  Biso   1.000  Yb
  Cu1      1.0000 0.12500  0.62500  0.62500  Biso   1.000  Cu
  Cu2      1.0000 0.12500  0.12500  0.12500  Biso   1.000  Cu
  Cu3      1.0000 0.62500  0.62500  0.12500  Biso   1.000  Cu
  Cu4      1.0000 0.62500  0.12500  0.62500  Biso   1.000  Cu
  Cu5      1.0000 0.87500  0.37500  0.37500  Biso   1.000  Cu
  Cu6      1.0000 0.37500  0.87500  0.37500  Biso   1.000  Cu
  Cu7      1.0000 0.87500  0.87500  0.87500  Biso   1.000  Cu
  Cu8      1.0000 0.37500  0.37500  0.87500  Biso   1.000  Cu
  N1       1.0000 0.19800  0.56740  0.57330  Biso   1.000  N
  N2       1.0000 0.05200  0.68260  0.57330  Biso   1.000  N
  N3       1.0000 0.19800  0.68260  0.67670  Biso   1.000  N
  N4       1.0000 0.05200  0.56740  0.67670  Biso   1.000  N
  N5       1.0000 0.19800  0.06740  0.07330  Biso   1.000  N
  N6       1.0000 0.05200  0.18260  0.07330  Biso   1.000  N
  N7       1.0000 0.19800  0.18260  0.17670  Biso   1.000  N
  N8       1.0000 0.05200  0.06740  0.17670  Biso   1.000  N
  N9       1.0000 0.69800  0.56740  0.07330  Biso   1.000  N
  N10      1.0000 0.55200  0.68260  0.07330  Biso   1.000  N
  N11      1.0000 0.69800  0.68260  0.17670  Biso   1.000  N
  N12      1.0000 0.55200  0.56740  0.17670  Biso   1.000  N
  N13      1.0000 0.69800  0.06740  0.57330  Biso   1.000  N
  N14      1.0000 0.55200  0.18260  0.57330  Biso   1.000  N
  N15      1.0000 0.69800  0.18260  0.67670  Biso   1.000  N
  N16      1.0000 0.55200  0.06740  0.67670  Biso   1.000  N
  N17      1.0000 0.80200  0.43260  0.42670  Biso   1.000  N
  N18      1.0000 0.44800  0.81740  0.42670  Biso   1.000  N
  N19      1.0000 0.80200  0.81740  0.82330  Biso   1.000  N
  N20      1.0000 0.44800  0.43260  0.82330  Biso   1.000  N
  N21      1.0000 0.80200  0.93260  0.92670  Biso   1.000  N
  N22      1.0000 0.44800  0.31740  0.92670  Biso   1.000  N
  N23      1.0000 0.80200  0.31740  0.32330  Biso   1.000  N
  N24      1.0000 0.44800  0.93260  0.32330  Biso   1.000  N
  N25      1.0000 0.30200  0.43260  0.92670  Biso   1.000  N
  N26      1.0000 0.94800  0.81740  0.92670  Biso   1.000  N
  N27      1.0000 0.30200  0.81740  0.32330  Biso   1.000  N
  N28      1.0000 0.94800  0.43260  0.32330  Biso   1.000  N
  N29      1.0000 0.30200  0.93260  0.42670  Biso   1.000  N
  N30      1.0000 0.94800  0.31740  0.42670  Biso   1.000  N
  N31      1.0000 0.30200  0.31740  0.82330  Biso   1.000  N
  N32      1.0000 0.94800  0.93260  0.82330  Biso   1.000  N
  C1       1.0000 0.30600  0.56550  0.56010  Biso   1.000  C
  C2       1.0000 0.94400  0.68450  0.56010  Biso   1.000  C
  C3       1.0000 0.30600  0.68450  0.68990  Biso   1.000  C
  C4       1.0000 0.94400  0.56550  0.68990  Biso   1.000  C
  C5       1.0000 0.30600  0.06550  0.06010  Biso   1.000  C
  C6       1.0000 0.94400  0.18450  0.06010  Biso   1.000  C
  C7       1.0000 0.30600  0.18450  0.18990  Biso   1.000  C
  C8       1.0000 0.94400  0.06550  0.18990  Biso   1.000  C
  C9       1.0000 0.80600  0.56550  0.06010  Biso   1.000  C
  C10      1.0000 0.44400  0.68450  0.06010  Biso   1.000  C
  C11      1.0000 0.80600  0.68450  0.18990  Biso   1.000  C
  C12      1.0000 0.44400  0.56550  0.18990  Biso   1.000  C
  C13      1.0000 0.80600  0.06550  0.56010  Biso   1.000  C
  C14      1.0000 0.44400  0.18450  0.56010  Biso   1.000  C
  C15      1.0000 0.80600  0.18450  0.68990  Biso   1.000  C
  C16      1.0000 0.44400  0.06550  0.68990  Biso   1.000  C
  C17      1.0000 0.69400  0.43450  0.43990  Biso   1.000  C
  C18      1.0000 0.55600  0.81550  0.43990  Biso   1.000  C
  C19      1.0000 0.69400  0.81550  0.81010  Biso   1.000  C
  C20      1.0000 0.55600  0.43450  0.81010  Biso   1.000  C
  C21      1.0000 0.69400  0.93450  0.93990  Biso   1.000  C
  C22      1.0000 0.55600  0.31550  0.93990  Biso   1.000  C
  C23      1.0000 0.69400  0.31550  0.31010  Biso   1.000  C
  C24      1.0000 0.55600  0.93450  0.31010  Biso   1.000  C
  C25      1.0000 0.19400  0.43450  0.93990  Biso   1.000  C
  C26      1.0000 0.05600  0.81550  0.93990  Biso   1.000  C
  C27      1.0000 0.19400  0.81550  0.31010  Biso   1.000  C
  C28      1.0000 0.05600  0.43450  0.31010  Biso   1.000  C
  C29      1.0000 0.19400  0.93450  0.43990  Biso   1.000  C
  C30      1.0000 0.05600  0.31550  0.43990  Biso   1.000  C
  C31      1.0000 0.19400  0.31550  0.81010  Biso   1.000  C
  C32      1.0000 0.05600  0.93450  0.81010  Biso   1.000  C
  H1       1.0000 0.35426  0.58958  0.57820  Biso   1.000  H
  H2       1.0000 0.89574  0.66042  0.57820  Biso   1.000  H
  H3       1.0000 0.35426  0.66042  0.67180  Biso   1.000  H
  H4       1.0000 0.89574  0.58958  0.67180  Biso   1.000  H
  H5       1.0000 0.35426  0.08958  0.07820  Biso   1.000  H
  H6       1.0000 0.89574  0.16042  0.07820  Biso   1.000  H
  H7       1.0000 0.35426  0.16042  0.17180  Biso   1.000  H
  H8       1.0000 0.89574  0.08958  0.17180  Biso   1.000  H
  H9       1.0000 0.85426  0.58958  0.07820  Biso   1.000  H
  H10      1.0000 0.39574  0.66042  0.07820  Biso   1.000  H
  H11      1.0000 0.85426  0.66042  0.17180  Biso   1.000  H
  H12      1.0000 0.39574  0.58958  0.17180  Biso   1.000  H
  H13      1.0000 0.85426  0.08958  0.57820  Biso   1.000  H
  H14      1.0000 0.39574  0.16042  0.57820  Biso   1.000  H
  H15      1.0000 0.85426  0.16042  0.67180  Biso   1.000  H
  H16      1.0000 0.39574  0.08958  0.67180  Biso   1.000  H
  H17      1.0000 0.64574  0.41042  0.42180  Biso   1.000  H
  H18      1.0000 0.60426  0.83958  0.42180  Biso   1.000  H
  H19      1.0000 0.64574  0.83958  0.82820  Biso   1.000  H
  H20      1.0000 0.60426  0.41042  0.82820  Biso   1.000  H
  H21      1.0000 0.64574  0.91042  0.92180  Biso   1.000  H
  H22      1.0000 0.60426  0.33958  0.92180  Biso   1.000  H
  H23      1.0000 0.64574  0.33958  0.32820  Biso   1.000  H
  H24      1.0000 0.60426  0.91042  0.32820  Biso   1.000  H
  H25      1.0000 0.14574  0.41042  0.92180  Biso   1.000  H
  H26      1.0000 0.10426  0.83958  0.92180  Biso   1.000  H
  H27      1.0000 0.14574  0.83958  0.32820  Biso   1.000  H
  H28      1.0000 0.10426  0.41042  0.32820  Biso   1.000  H
  H29      1.0000 0.14574  0.91042  0.42180  Biso   1.000  H
  H30      1.0000 0.10426  0.33958  0.42180  Biso   1.000  H
  H31      1.0000 0.14574  0.33958  0.82820  Biso   1.000  H
  H32      1.0000 0.10426  0.91042  0.82820  Biso   1.000  H
  C33      1.0000 0.34200  0.52780  0.52000  Biso   1.000  C
  C34      1.0000 0.90800  0.72220  0.52000  Biso   1.000  C
  C35      1.0000 0.34200  0.72220  0.73000  Biso   1.000  C
  C36      1.0000 0.90800  0.52780  0.73000  Biso   1.000  C
  C37      1.0000 0.34200  0.02780  0.02000  Biso   1.000  C
  C38      1.0000 0.90800  0.22220  0.02000  Biso   1.000  C
  C39      1.0000 0.34200  0.22220  0.23000  Biso   1.000  C
  C40      1.0000 0.90800  0.02780  0.23000  Biso   1.000  C
  C41      1.0000 0.84200  0.52780  0.02000  Biso   1.000  C
  C42      1.0000 0.40800  0.72220  0.02000  Biso   1.000  C
  C43      1.0000 0.84200  0.72220  0.23000  Biso   1.000  C
  C44      1.0000 0.40800  0.52780  0.23000  Biso   1.000  C
  C45      1.0000 0.84200  0.02780  0.52000  Biso   1.000  C
  C46      1.0000 0.40800  0.22220  0.52000  Biso   1.000  C
  C47      1.0000 0.84200  0.22220  0.73000  Biso   1.000  C
  C48      1.0000 0.40800  0.02780  0.73000  Biso   1.000  C
  C49      1.0000 0.65800  0.47220  0.48000  Biso   1.000  C
  C50      1.0000 0.59200  0.77780  0.48000  Biso   1.000  C
  C51      1.0000 0.65800  0.77780  0.77000  Biso   1.000  C
  C52      1.0000 0.59200  0.47220  0.77000  Biso   1.000  C
  C53      1.0000 0.65800  0.97220  0.98000  Biso   1.000  C
  C54      1.0000 0.59200  0.27780  0.98000  Biso   1.000  C
  C55      1.0000 0.65800  0.27780  0.27000  Biso   1.000  C
  C56      1.0000 0.59200  0.97220  0.27000  Biso   1.000  C
  C57      1.0000 0.15800  0.47220  0.98000  Biso   1.000  C
  C58      1.0000 0.09200  0.77780  0.98000  Biso   1.000  C
  C59      1.0000 0.15800  0.77780  0.27000  Biso   1.000  C
  C60      1.0000 0.09200  0.47220  0.27000  Biso   1.000  C
  C61      1.0000 0.15800  0.97220  0.48000  Biso   1.000  C
  C62      1.0000 0.09200  0.27780  0.48000  Biso   1.000  C
  C63      1.0000 0.15800  0.27780  0.77000  Biso   1.000  C
  C64      1.0000 0.09200  0.97220  0.77000  Biso   1.000  C
  H33      1.0000 0.41430  0.52650  0.51124  Biso   1.000  H
  H34      1.0000 0.83570  0.72350  0.51124  Biso   1.000  H
  H35      1.0000 0.41430  0.72350  0.73876  Biso   1.000  H
  H36      1.0000 0.83570  0.52650  0.73876  Biso   1.000  H
  H37      1.0000 0.41430  0.02650  0.01124  Biso   1.000  H
  H38      1.0000 0.83570  0.22350  0.01124  Biso   1.000  H
  H39      1.0000 0.41430  0.22350  0.23876  Biso   1.000  H
  H40      1.0000 0.83570  0.02650  0.23876  Biso   1.000  H
  H41      1.0000 0.91430  0.52650  0.01124  Biso   1.000  H
  H42      1.0000 0.33570  0.72350  0.01124  Biso   1.000  H
  H43      1.0000 0.91430  0.72350  0.23876  Biso   1.000  H
  H44      1.0000 0.33570  0.52650  0.23876  Biso   1.000  H
  H45      1.0000 0.91430  0.02650  0.51124  Biso   1.000  H
  H46      1.0000 0.33570  0.22350  0.51124  Biso   1.000  H
  H47      1.0000 0.91430  0.22350  0.73876  Biso   1.000  H
  H48      1.0000 0.33570  0.02650  0.73876  Biso   1.000  H
  H49      1.0000 0.58570  0.47350  0.48876  Biso   1.000  H
  H50      1.0000 0.66430  0.77650  0.48876  Biso   1.000  H
  H51      1.0000 0.58570  0.77650  0.76124  Biso   1.000  H
  H52      1.0000 0.66430  0.47350  0.76124  Biso   1.000  H
  H53      1.0000 0.58570  0.97350  0.98876  Biso   1.000  H
  H54      1.0000 0.66430  0.27650  0.98876  Biso   1.000  H
  H55      1.0000 0.58570  0.27650  0.26124  Biso   1.000  H
  H56      1.0000 0.66430  0.97350  0.26124  Biso   1.000  H
  H57      1.0000 0.08570  0.47350  0.98876  Biso   1.000  H
  H58      1.0000 0.16430  0.77650  0.98876  Biso   1.000  H
  H59      1.0000 0.08570  0.77650  0.26124  Biso   1.000  H
  H60      1.0000 0.16430  0.47350  0.26124  Biso   1.000  H
  H61      1.0000 0.08570  0.97350  0.48876  Biso   1.000  H
  H62      1.0000 0.16430  0.27650  0.48876  Biso   1.000  H
  H63      1.0000 0.08570  0.27650  0.76124  Biso   1.000  H
  H64      1.0000 0.16430  0.97350  0.76124  Biso   1.000  H
  C65      1.0000 0.27000  0.49180  0.49300  Biso   1.000  C
  C66      1.0000 0.98000  0.75820  0.49300  Biso   1.000  C
  C67      1.0000 0.27000  0.75820  0.75700  Biso   1.000  C
  C68      1.0000 0.98000  0.49180  0.75700  Biso   1.000  C
  C69      1.0000 0.27000  0.99180  0.99300  Biso   1.000  C
  C70      1.0000 0.98000  0.25820  0.99300  Biso   1.000  C
  C71      1.0000 0.27000  0.25820  0.25700  Biso   1.000  C
  C72      1.0000 0.98000  0.99180  0.25700  Biso   1.000  C
  C73      1.0000 0.77000  0.49180  0.99300  Biso   1.000  C
  C74      1.0000 0.48000  0.75820  0.99300  Biso   1.000  C
  C75      1.0000 0.77000  0.75820  0.25700  Biso   1.000  C
  C76      1.0000 0.48000  0.49180  0.25700  Biso   1.000  C
  C77      1.0000 0.77000  0.99180  0.49300  Biso   1.000  C
  C78      1.0000 0.48000  0.25820  0.49300  Biso   1.000  C
  C79      1.0000 0.77000  0.25820  0.75700  Biso   1.000  C
  C80      1.0000 0.48000  0.99180  0.75700  Biso   1.000  C
  C81      1.0000 0.73000  0.50820  0.50700  Biso   1.000  C
  C82      1.0000 0.52000  0.74180  0.50700  Biso   1.000  C
  C83      1.0000 0.73000  0.74180  0.74300  Biso   1.000  C
  C84      1.0000 0.52000  0.50820  0.74300  Biso   1.000  C
  C85      1.0000 0.73000  0.00820  0.00700  Biso   1.000  C
  C86      1.0000 0.52000  0.24180  0.00700  Biso   1.000  C
  C87      1.0000 0.73000  0.24180  0.24300  Biso   1.000  C
  C88      1.0000 0.52000  0.00820  0.24300  Biso   1.000  C
  C89      1.0000 0.23000  0.50820  0.00700  Biso   1.000  C
  C90      1.0000 0.02000  0.74180  0.00700  Biso   1.000  C
  C91      1.0000 0.23000  0.74180  0.24300  Biso   1.000  C
  C92      1.0000 0.02000  0.50820  0.24300  Biso   1.000  C
  C93      1.0000 0.23000  0.00820  0.50700  Biso   1.000  C
  C94      1.0000 0.02000  0.24180  0.50700  Biso   1.000  C
  C95      1.0000 0.23000  0.24180  0.74300  Biso   1.000  C
  C96      1.0000 0.02000  0.00820  0.74300  Biso   1.000  C
  C97      1.0000 0.16190  0.49370  0.50610  Biso   1.000  C
  C98      1.0000 0.08810  0.75630  0.50610  Biso   1.000  C
  C99      1.0000 0.16190  0.75630  0.74390  Biso   1.000  C
  C100     1.0000 0.08810  0.49370  0.74390  Biso   1.000  C
  C101     1.0000 0.16190  0.99370  0.00610  Biso   1.000  C
  C102     1.0000 0.08810  0.25630  0.00610  Biso   1.000  C
  C103     1.0000 0.16190  0.25630  0.24390  Biso   1.000  C
  C104     1.0000 0.08810  0.99370  0.24390  Biso   1.000  C
  C105     1.0000 0.66190  0.49370  0.00610  Biso   1.000  C
  C106     1.0000 0.58810  0.75630  0.00610  Biso   1.000  C
  C107     1.0000 0.66190  0.75630  0.24390  Biso   1.000  C
  C108     1.0000 0.58810  0.49370  0.24390  Biso   1.000  C
  C109     1.0000 0.66190  0.99370  0.50610  Biso   1.000  C
  C110     1.0000 0.58810  0.25630  0.50610  Biso   1.000  C
  C111     1.0000 0.66190  0.25630  0.74390  Biso   1.000  C
  C112     1.0000 0.58810  0.99370  0.74390  Biso   1.000  C
  C113     1.0000 0.83810  0.50630  0.49390  Biso   1.000  C
  C114     1.0000 0.41190  0.74370  0.49390  Biso   1.000  C
  C115     1.0000 0.83810  0.74370  0.75610  Biso   1.000  C
  C116     1.0000 0.41190  0.50630  0.75610  Biso   1.000  C
  C117     1.0000 0.83810  0.00630  0.99390  Biso   1.000  C
  C118     1.0000 0.41190  0.24370  0.99390  Biso   1.000  C
  C119     1.0000 0.83810  0.24370  0.25610  Biso   1.000  C
  C120     1.0000 0.41190  0.00630  0.25610  Biso   1.000  C
  C121     1.0000 0.33810  0.50630  0.99390  Biso   1.000  C
  C122     1.0000 0.91190  0.74370  0.99390  Biso   1.000  C
  C123     1.0000 0.33810  0.74370  0.25610  Biso   1.000  C
  C124     1.0000 0.91190  0.50630  0.25610  Biso   1.000  C
  C125     1.0000 0.33810  0.00630  0.49390  Biso   1.000  C
  C126     1.0000 0.91190  0.24370  0.49390  Biso   1.000  C
  C127     1.0000 0.33810  0.24370  0.75610  Biso   1.000  C
  C128     1.0000 0.91190  0.00630  0.75610  Biso   1.000  C
  H65      1.0000 0.11374  0.46967  0.48808  Biso   1.000  H
  H66      1.0000 0.13626  0.78033  0.48808  Biso   1.000  H
  H67      1.0000 0.11374  0.78033  0.76192  Biso   1.000  H
  H68      1.0000 0.13626  0.46967  0.76192  Biso   1.000  H
  H69      1.0000 0.11374  0.96967  0.98808  Biso   1.000  H
  H70      1.0000 0.13626  0.28033  0.98808  Biso   1.000  H
  H71      1.0000 0.11374  0.28033  0.26192  Biso   1.000  H
  H72      1.0000 0.13626  0.96967  0.26192  Biso   1.000  H
  H73      1.0000 0.61374  0.46967  0.98808  Biso   1.000  H
  H74      1.0000 0.63626  0.78033  0.98808  Biso   1.000  H
  H75      1.0000 0.61374  0.78033  0.26192  Biso   1.000  H
  H76      1.0000 0.63626  0.46967  0.26192  Biso   1.000  H
  H77      1.0000 0.61374  0.96967  0.48808  Biso   1.000  H
  H78      1.0000 0.63626  0.28033  0.48808  Biso   1.000  H
  H79      1.0000 0.61374  0.28033  0.76192  Biso   1.000  H
  H80      1.0000 0.63626  0.96967  0.76192  Biso   1.000  H
  H81      1.0000 0.88626  0.53033  0.51192  Biso   1.000  H
  H82      1.0000 0.36374  0.71967  0.51192  Biso   1.000  H
  H83      1.0000 0.88626  0.71967  0.73808  Biso   1.000  H
  H84      1.0000 0.36374  0.53033  0.73808  Biso   1.000  H
  H85      1.0000 0.88626  0.03033  0.01192  Biso   1.000  H
  H86      1.0000 0.36374  0.21967  0.01192  Biso   1.000  H
  H87      1.0000 0.88626  0.21967  0.23808  Biso   1.000  H
  H88      1.0000 0.36374  0.03033  0.23808  Biso   1.000  H
  H89      1.0000 0.38626  0.53033  0.01192  Biso   1.000  H
  H90      1.0000 0.86374  0.71967  0.01192  Biso   1.000  H
  H91      1.0000 0.38626  0.71967  0.23808  Biso   1.000  H
  H92      1.0000 0.86374  0.53033  0.23808  Biso   1.000  H
  H93      1.0000 0.38626  0.03033  0.51192  Biso   1.000  H
  H94      1.0000 0.86374  0.21967  0.51192  Biso   1.000  H
  H95      1.0000 0.38626  0.21967  0.73808  Biso   1.000  H
  H96      1.0000 0.86374  0.03033  0.73808  Biso   1.000  H
  C129     1.0000 0.12600  0.53150  0.54630  Biso   1.000  C
  C130     1.0000 0.12400  0.71850  0.54630  Biso   1.000  C
  C131     1.0000 0.12600  0.71850  0.70370  Biso   1.000  C
  C132     1.0000 0.12400  0.53150  0.70370  Biso   1.000  C
  C133     1.0000 0.12600  0.03150  0.04630  Biso   1.000  C
  C134     1.0000 0.12400  0.21850  0.04630  Biso   1.000  C
  C135     1.0000 0.12600  0.21850  0.20370  Biso   1.000  C
  C136     1.0000 0.12400  0.03150  0.20370  Biso   1.000  C
  C137     1.0000 0.62600  0.53150  0.04630  Biso   1.000  C
  C138     1.0000 0.62400  0.71850  0.04630  Biso   1.000  C
  C139     1.0000 0.62600  0.71850  0.20370  Biso   1.000  C
  C140     1.0000 0.62400  0.53150  0.20370  Biso   1.000  C
  C141     1.0000 0.62600  0.03150  0.54630  Biso   1.000  C
  C142     1.0000 0.62400  0.21850  0.54630  Biso   1.000  C
  C143     1.0000 0.62600  0.21850  0.70370  Biso   1.000  C
  C144     1.0000 0.62400  0.03150  0.70370  Biso   1.000  C
  C145     1.0000 0.87400  0.46850  0.45370  Biso   1.000  C
  C146     1.0000 0.37600  0.78150  0.45370  Biso   1.000  C
  C147     1.0000 0.87400  0.78150  0.79630  Biso   1.000  C
  C148     1.0000 0.37600  0.46850  0.79630  Biso   1.000  C
  C149     1.0000 0.87400  0.96850  0.95370  Biso   1.000  C
  C150     1.0000 0.37600  0.28150  0.95370  Biso   1.000  C
  C151     1.0000 0.87400  0.28150  0.29630  Biso   1.000  C
  C152     1.0000 0.37600  0.96850  0.29630  Biso   1.000  C
  C153     1.0000 0.37400  0.46850  0.95370  Biso   1.000  C
  C154     1.0000 0.87600  0.78150  0.95370  Biso   1.000  C
  C155     1.0000 0.37400  0.78150  0.29630  Biso   1.000  C
  C156     1.0000 0.87600  0.46850  0.29630  Biso   1.000  C
  C157     1.0000 0.37400  0.96850  0.45370  Biso   1.000  C
  C158     1.0000 0.87600  0.28150  0.45370  Biso   1.000  C
  C159     1.0000 0.37400  0.28150  0.79630  Biso   1.000  C
  C160     1.0000 0.87600  0.96850  0.79630  Biso   1.000  C
  H97      1.0000 0.05369  0.53275  0.55504  Biso   1.000  H
  H98      1.0000 0.19631  0.71725  0.55504  Biso   1.000  H
  H99      1.0000 0.05369  0.71725  0.69496  Biso   1.000  H
  H100     1.0000 0.19631  0.53275  0.69496  Biso   1.000  H
  H101     1.0000 0.05369  0.03275  0.05504  Biso   1.000  H
  H102     1.0000 0.19631  0.21725  0.05504  Biso   1.000  H
  H103     1.0000 0.05369  0.21725  0.19496  Biso   1.000  H
  H104     1.0000 0.19631  0.03275  0.19496  Biso   1.000  H
  H105     1.0000 0.55369  0.53275  0.05504  Biso   1.000  H
  H106     1.0000 0.69631  0.71725  0.05504  Biso   1.000  H
  H107     1.0000 0.55369  0.71725  0.19496  Biso   1.000  H
  H108     1.0000 0.69631  0.53275  0.19496  Biso   1.000  H
  H109     1.0000 0.55369  0.03275  0.55504  Biso   1.000  H
  H110     1.0000 0.69631  0.21725  0.55504  Biso   1.000  H
  H111     1.0000 0.55369  0.21725  0.69496  Biso   1.000  H
  H112     1.0000 0.69631  0.03275  0.69496  Biso   1.000  H
  H113     1.0000 0.94631  0.46725  0.44496  Biso   1.000  H
  H114     1.0000 0.30369  0.78275  0.44496  Biso   1.000  H
  H115     1.0000 0.94631  0.78275  0.80504  Biso   1.000  H
  H116     1.0000 0.30369  0.46725  0.80504  Biso   1.000  H
  H117     1.0000 0.94631  0.96725  0.94496  Biso   1.000  H
  H118     1.0000 0.30369  0.28275  0.94496  Biso   1.000  H
  H119     1.0000 0.94631  0.28275  0.30504  Biso   1.000  H
  H120     1.0000 0.30369  0.96725  0.30504  Biso   1.000  H
  H121     1.0000 0.44631  0.46725  0.94496  Biso   1.000  H
  H122     1.0000 0.80369  0.78275  0.94496  Biso   1.000  H
  H123     1.0000 0.44631  0.78275  0.30504  Biso   1.000  H
  H124     1.0000 0.80369  0.46725  0.30504  Biso   1.000  H
  H125     1.0000 0.44631  0.96725  0.44496  Biso   1.000  H
  H126     1.0000 0.80369  0.28275  0.44496  Biso   1.000  H
  H127     1.0000 0.44631  0.28275  0.80504  Biso   1.000  H
  H128     1.0000 0.80369  0.96725  0.80504  Biso   1.000  H
  C161     1.0000 0.30720  0.45100  0.44830  Biso   1.000  C
  C162     1.0000 0.94280  0.79900  0.44830  Biso   1.000  C
  C163     1.0000 0.30720  0.79900  0.80170  Biso   1.000  C
  C164     1.0000 0.94280  0.45100  0.80170  Biso   1.000  C
  C165     1.0000 0.30720  0.95100  0.94830  Biso   1.000  C
  C166     1.0000 0.94280  0.29900  0.94830  Biso   1.000  C
  C167     1.0000 0.30720  0.29900  0.30170  Biso   1.000  C
  C168     1.0000 0.94280  0.95100  0.30170  Biso   1.000  C
  C169     1.0000 0.80720  0.45100  0.94830  Biso   1.000  C
  C170     1.0000 0.44280  0.79900  0.94830  Biso   1.000  C
  C171     1.0000 0.80720  0.79900  0.30170  Biso   1.000  C
  C172     1.0000 0.44280  0.45100  0.30170  Biso   1.000  C
  C173     1.0000 0.80720  0.95100  0.44830  Biso   1.000  C
  C174     1.0000 0.44280  0.29900  0.44830  Biso   1.000  C
  C175     1.0000 0.80720  0.29900  0.80170  Biso   1.000  C
  C176     1.0000 0.44280  0.95100  0.80170  Biso   1.000  C
  C177     1.0000 0.69280  0.54900  0.55170  Biso   1.000  C
  C178     1.0000 0.55720  0.70100  0.55170  Biso   1.000  C
  C179     1.0000 0.69280  0.70100  0.69830  Biso   1.000  C
  C180     1.0000 0.55720  0.54900  0.69830  Biso   1.000  C
  C181     1.0000 0.69280  0.04900  0.05170  Biso   1.000  C
  C182     1.0000 0.55720  0.20100  0.05170  Biso   1.000  C
  C183     1.0000 0.69280  0.20100  0.19830  Biso   1.000  C
  C184     1.0000 0.55720  0.04900  0.19830  Biso   1.000  C
  C185     1.0000 0.19280  0.54900  0.05170  Biso   1.000  C
  C186     1.0000 0.05720  0.70100  0.05170  Biso   1.000  C
  C187     1.0000 0.19280  0.70100  0.19830  Biso   1.000  C
  C188     1.0000 0.05720  0.54900  0.19830  Biso   1.000  C
  C189     1.0000 0.19280  0.04900  0.55170  Biso   1.000  C
  C190     1.0000 0.05720  0.20100  0.55170  Biso   1.000  C
  C191     1.0000 0.19280  0.20100  0.69830  Biso   1.000  C
  C192     1.0000 0.05720  0.04900  0.69830  Biso   1.000  C
  O1       1.0000 0.40310  0.44710  0.44060  Biso   1.000  O
  O2       1.0000 0.84690  0.80290  0.44060  Biso   1.000  O
  O3       1.0000 0.40310  0.80290  0.80940  Biso   1.000  O
  O4       1.0000 0.84690  0.44710  0.80940  Biso   1.000  O
  O5       1.0000 0.40310  0.94710  0.94060  Biso   1.000  O
  O6       1.0000 0.84690  0.30290  0.94060  Biso   1.000  O
  O7       1.0000 0.40310  0.30290  0.30940  Biso   1.000  O
  O8       1.0000 0.84690  0.94710  0.30940  Biso   1.000  O
  O9       1.0000 0.90310  0.44710  0.94060  Biso   1.000  O
  O10      1.0000 0.34690  0.80290  0.94060  Biso   1.000  O
  O11      1.0000 0.90310  0.80290  0.30940  Biso   1.000  O
  O12      1.0000 0.34690  0.44710  0.30940  Biso   1.000  O
  O13      1.0000 0.90310  0.94710  0.44060  Biso   1.000  O
  O14      1.0000 0.34690  0.30290  0.44060  Biso   1.000  O
  O15      1.0000 0.90310  0.30290  0.80940  Biso   1.000  O
  O16      1.0000 0.34690  0.94710  0.80940  Biso   1.000  O
  O17      1.0000 0.59690  0.55290  0.55940  Biso   1.000  O
  O18      1.0000 0.65310  0.69710  0.55940  Biso   1.000  O
  O19      1.0000 0.59690  0.69710  0.69060  Biso   1.000  O
  O20      1.0000 0.65310  0.55290  0.69060  Biso   1.000  O
  O21      1.0000 0.59690  0.05290  0.05940  Biso   1.000  O
  O22      1.0000 0.65310  0.19710  0.05940  Biso   1.000  O
  O23      1.0000 0.59690  0.19710  0.19060  Biso   1.000  O
  O24      1.0000 0.65310  0.05290  0.19060  Biso   1.000  O
  O25      1.0000 0.09690  0.55290  0.05940  Biso   1.000  O
  O26      1.0000 0.15310  0.69710  0.05940  Biso   1.000  O
  O27      1.0000 0.09690  0.69710  0.19060  Biso   1.000  O
  O28      1.0000 0.15310  0.55290  0.19060  Biso   1.000  O
  O29      1.0000 0.09690  0.05290  0.55940  Biso   1.000  O
  O30      1.0000 0.15310  0.19710  0.55940  Biso   1.000  O
  O31      1.0000 0.09690  0.19710  0.69060  Biso   1.000  O
  O32      1.0000 0.15310  0.05290  0.69060  Biso   1.000  O
  O33      1.0000 0.23780  0.42270  0.42160  Biso   1.000  O
  O34      1.0000 0.01220  0.82730  0.42160  Biso   1.000  O
  O35      1.0000 0.23780  0.82730  0.82840  Biso   1.000  O
  O36      1.0000 0.01220  0.42270  0.82840  Biso   1.000  O
  O37      1.0000 0.23780  0.92270  0.92160  Biso   1.000  O
  O38      1.0000 0.01220  0.32730  0.92160  Biso   1.000  O
  O39      1.0000 0.23780  0.32730  0.32840  Biso   1.000  O
  O40      1.0000 0.01220  0.92270  0.32840  Biso   1.000  O
  O41      1.0000 0.73780  0.42270  0.92160  Biso   1.000  O
  O42      1.0000 0.51220  0.82730  0.92160  Biso   1.000  O
  O43      1.0000 0.73780  0.82730  0.32840  Biso   1.000  O
  O44      1.0000 0.51220  0.42270  0.32840  Biso   1.000  O
  O45      1.0000 0.73780  0.92270  0.42160  Biso   1.000  O
  O46      1.0000 0.51220  0.32730  0.42160  Biso   1.000  O
  O47      1.0000 0.73780  0.32730  0.82840  Biso   1.000  O
  O48      1.0000 0.51220  0.92270  0.82840  Biso   1.000  O
  O49      1.0000 0.76220  0.57730  0.57840  Biso   1.000  O
  O50      1.0000 0.48780  0.67270  0.57840  Biso   1.000  O
  O51      1.0000 0.76220  0.67270  0.67160  Biso   1.000  O
  O52      1.0000 0.48780  0.57730  0.67160  Biso   1.000  O
  O53      1.0000 0.76220  0.07730  0.07840  Biso   1.000  O
  O54      1.0000 0.48780  0.17270  0.07840  Biso   1.000  O
  O55      1.0000 0.76220  0.17270  0.17160  Biso   1.000  O
  O56      1.0000 0.48780  0.07730  0.17160  Biso   1.000  O
  O57      1.0000 0.26220  0.57730  0.07840  Biso   1.000  O
  O58      1.0000 0.98780  0.67270  0.07840  Biso   1.000  O
  O59      1.0000 0.26220  0.67270  0.17160  Biso   1.000  O
  O60      1.0000 0.98780  0.57730  0.17160  Biso   1.000  O
  O61      1.0000 0.26220  0.07730  0.57840  Biso   1.000  O
  O62      1.0000 0.98780  0.17270  0.57840  Biso   1.000  O
  O63      1.0000 0.26220  0.17270  0.67160  Biso   1.000  O
  O64      1.0000 0.98780  0.07730  0.67160  Biso   1.000  O
