data_image0
_cell_length_a       18.972
_cell_length_b       15.53
_cell_length_c       19.512
_cell_angle_alpha    90
_cell_angle_beta     101.8
_cell_angle_gamma    90

_symmetry_space_group_name_H-M    "P 1"
_symmetry_int_tables_number       1

loop_
  _symmetry_equiv_pos_as_xyz
  'x, y, z'

loop_
  _atom_site_label
  _atom_site_occupancy
  _atom_site_fract_x
  _atom_site_fract_y
  _atom_site_fract_z
  _atom_site_thermal_displace_type
  _atom_site_B_iso_or_equiv
  _atom_site_type_symbol
  Eu1      1.0000 0.25000  0.09199  0.50000  Biso   1.000  Eu
  Eu2      1.0000 0.75000  0.59199  0.00000  Biso   1.000  Eu
  Eu3      1.0000 0.75000  0.90801  0.50000  Biso   1.000  Eu
  Eu4      1.0000 0.25000  0.40801  0.00000  Biso   1.000  Eu
  Cu1      1.0000 0.07725  0.57760  0.41985  Biso   1.000  Cu
  Cu2      1.0000 0.42275  0.57760  0.58015  Biso   1.000  Cu
  Cu3      1.0000 0.57725  0.07760  0.91985  Biso   1.000  Cu
  Cu4      1.0000 0.92275  0.07760  0.08015  Biso   1.000  Cu
  Cu5      1.0000 0.92275  0.42240  0.58015  Biso   1.000  Cu
  Cu6      1.0000 0.57725  0.42240  0.41985  Biso   1.000  Cu
  Cu7      1.0000 0.42275  0.92240  0.08015  Biso   1.000  Cu
  Cu8      1.0000 0.07725  0.92240  0.91985  Biso   1.000  Cu
  Br1      1.0000 0.00000  0.50000  0.50000  Biso   1.000  Br
  Br2      1.0000 0.50000  0.50000  0.50000  Biso   1.000  Br
  Br3      1.0000 0.50000  0.00000  0.00000  Biso   1.000  Br
  Br4      1.0000 0.00000  0.00000  0.00000  Biso   1.000  Br
  N1       1.0000 0.14890  0.48370  0.41480  Biso   1.000  N
  N2       1.0000 0.35110  0.48370  0.58520  Biso   1.000  N
  N3       1.0000 0.64890  0.98370  0.91480  Biso   1.000  N
  N4       1.0000 0.85110  0.98370  0.08520  Biso   1.000  N
  N5       1.0000 0.85110  0.51630  0.58520  Biso   1.000  N
  N6       1.0000 0.64890  0.51630  0.41480  Biso   1.000  N
  N7       1.0000 0.35110  0.01630  0.08520  Biso   1.000  N
  N8       1.0000 0.14890  0.01630  0.91480  Biso   1.000  N
  N9       1.0000 0.00940  0.58410  0.32220  Biso   1.000  N
  N10      1.0000 0.49060  0.58410  0.67780  Biso   1.000  N
  N11      1.0000 0.50940  0.08410  0.82220  Biso   1.000  N
  N12      1.0000 0.99060  0.08410  0.17780  Biso   1.000  N
  N13      1.0000 0.99060  0.41590  0.67780  Biso   1.000  N
  N14      1.0000 0.50940  0.41590  0.32220  Biso   1.000  N
  N15      1.0000 0.49060  0.91590  0.17780  Biso   1.000  N
  N16      1.0000 0.00940  0.91590  0.82220  Biso   1.000  N
  O1       1.0000 0.27930  0.20090  0.42990  Biso   1.000  O
  O2       1.0000 0.22070  0.20090  0.57010  Biso   1.000  O
  O3       1.0000 0.77930  0.70090  0.92990  Biso   1.000  O
  O4       1.0000 0.72070  0.70090  0.07010  Biso   1.000  O
  O5       1.0000 0.72070  0.79910  0.57010  Biso   1.000  O
  O6       1.0000 0.77930  0.79910  0.42990  Biso   1.000  O
  O7       1.0000 0.22070  0.29910  0.07010  Biso   1.000  O
  O8       1.0000 0.27930  0.29910  0.92990  Biso   1.000  O
  C1       1.0000 0.86340  0.58710  0.12200  Biso   1.000  C
  C2       1.0000 0.63660  0.58710  0.87800  Biso   1.000  C
  C3       1.0000 0.36340  0.08710  0.62200  Biso   1.000  C
  C4       1.0000 0.13660  0.08710  0.37800  Biso   1.000  C
  C5       1.0000 0.13660  0.41290  0.87800  Biso   1.000  C
  C6       1.0000 0.36340  0.41290  0.12200  Biso   1.000  C
  C7       1.0000 0.63660  0.91290  0.37800  Biso   1.000  C
  C8       1.0000 0.86340  0.91290  0.62200  Biso   1.000  C
  O9       1.0000 0.87640  0.63070  0.07260  Biso   1.000  O
  O10      1.0000 0.62360  0.63070  0.92740  Biso   1.000  O
  O11      1.0000 0.37640  0.13070  0.57260  Biso   1.000  O
  O12      1.0000 0.12360  0.13070  0.42740  Biso   1.000  O
  O13      1.0000 0.12360  0.36930  0.92740  Biso   1.000  O
  O14      1.0000 0.37640  0.36930  0.07260  Biso   1.000  O
  O15      1.0000 0.62360  0.86930  0.42740  Biso   1.000  O
  O16      1.0000 0.87640  0.86930  0.57260  Biso   1.000  O
  O17      1.0000 0.80720  0.54120  0.11740  Biso   1.000  O
  O18      1.0000 0.69280  0.54120  0.88260  Biso   1.000  O
  O19      1.0000 0.30720  0.04120  0.61740  Biso   1.000  O
  O20      1.0000 0.19280  0.04120  0.38260  Biso   1.000  O
  O21      1.0000 0.19280  0.45880  0.88260  Biso   1.000  O
  O22      1.0000 0.30720  0.45880  0.11740  Biso   1.000  O
  O23      1.0000 0.69280  0.95880  0.38260  Biso   1.000  O
  O24      1.0000 0.80720  0.95880  0.61740  Biso   1.000  O
  C9       1.0000 0.91500  0.58830  0.19230  Biso   1.000  C
  C10      1.0000 0.58500  0.58830  0.80770  Biso   1.000  C
  C11      1.0000 0.41500  0.08830  0.69230  Biso   1.000  C
  C12      1.0000 0.08500  0.08830  0.30770  Biso   1.000  C
  C13      1.0000 0.08500  0.41170  0.80770  Biso   1.000  C
  C14      1.0000 0.41500  0.41170  0.19230  Biso   1.000  C
  C15      1.0000 0.58500  0.91170  0.30770  Biso   1.000  C
  C16      1.0000 0.91500  0.91170  0.69230  Biso   1.000  C
  C17      1.0000 0.03570  0.73590  0.48550  Biso   1.000  C
  C18      1.0000 0.46430  0.73590  0.51450  Biso   1.000  C
  C19      1.0000 0.53570  0.23590  0.98550  Biso   1.000  C
  C20      1.0000 0.96430  0.23590  0.01450  Biso   1.000  C
  C21      1.0000 0.96430  0.26410  0.51450  Biso   1.000  C
  C22      1.0000 0.53570  0.26410  0.48550  Biso   1.000  C
  C23      1.0000 0.46430  0.76410  0.01450  Biso   1.000  C
  C24      1.0000 0.03570  0.76410  0.98550  Biso   1.000  C
  H1       1.0000 0.99555  0.70359  0.48989  Biso   1.000  H
  H2       1.0000 0.50445  0.70359  0.51011  Biso   1.000  H
  H3       1.0000 0.49555  0.20359  0.98989  Biso   1.000  H
  H4       1.0000 0.00445  0.20359  0.01011  Biso   1.000  H
  H5       1.0000 0.00445  0.29641  0.51011  Biso   1.000  H
  H6       1.0000 0.49555  0.29641  0.48989  Biso   1.000  H
  H7       1.0000 0.50445  0.79641  0.01011  Biso   1.000  H
  H8       1.0000 0.99555  0.79641  0.98989  Biso   1.000  H
  C25      1.0000 0.11320  0.95650  0.53910  Biso   1.000  C
  C26      1.0000 0.38680  0.95650  0.46090  Biso   1.000  C
  C27      1.0000 0.61320  0.45650  0.03910  Biso   1.000  C
  C28      1.0000 0.88680  0.45650  0.96090  Biso   1.000  C
  C29      1.0000 0.88680  0.04350  0.46090  Biso   1.000  C
  C30      1.0000 0.61320  0.04350  0.53910  Biso   1.000  C
  C31      1.0000 0.38680  0.54350  0.96090  Biso   1.000  C
  C32      1.0000 0.11320  0.54350  0.03910  Biso   1.000  C
  N17      1.0000 0.08560  0.69890  0.45550  Biso   1.000  N
  N18      1.0000 0.41440  0.69890  0.54450  Biso   1.000  N
  N19      1.0000 0.58560  0.19890  0.95550  Biso   1.000  N
  N20      1.0000 0.91440  0.19890  0.04450  Biso   1.000  N
  N21      1.0000 0.91440  0.30110  0.54450  Biso   1.000  N
  N22      1.0000 0.58560  0.30110  0.45550  Biso   1.000  N
  N23      1.0000 0.41440  0.80110  0.04450  Biso   1.000  N
  N24      1.0000 0.08560  0.80110  0.95550  Biso   1.000  N
  C33      1.0000 0.04050  0.81960  0.51040  Biso   1.000  C
  C34      1.0000 0.45950  0.81960  0.48960  Biso   1.000  C
  C35      1.0000 0.54050  0.31960  0.01040  Biso   1.000  C
  C36      1.0000 0.95950  0.31960  0.98960  Biso   1.000  C
  C37      1.0000 0.95950  0.18040  0.48960  Biso   1.000  C
  C38      1.0000 0.54050  0.18040  0.51040  Biso   1.000  C
  C39      1.0000 0.45950  0.68040  0.98960  Biso   1.000  C
  C40      1.0000 0.04050  0.68040  0.01040  Biso   1.000  C
  H9       1.0000 0.00417  0.84263  0.53038  Biso   1.000  H
  H10      1.0000 0.49583  0.84263  0.46962  Biso   1.000  H
  H11      1.0000 0.50417  0.34263  0.03038  Biso   1.000  H
  H12      1.0000 0.99583  0.34263  0.96962  Biso   1.000  H
  H13      1.0000 0.99583  0.15737  0.46962  Biso   1.000  H
  H14      1.0000 0.50417  0.15737  0.53038  Biso   1.000  H
  H15      1.0000 0.49583  0.65737  0.96962  Biso   1.000  H
  H16      1.0000 0.00417  0.65737  0.03038  Biso   1.000  H
  C41      1.0000 0.03310  0.59730  0.26320  Biso   1.000  C
  C42      1.0000 0.46690  0.59730  0.73680  Biso   1.000  C
  C43      1.0000 0.53310  0.09730  0.76320  Biso   1.000  C
  C44      1.0000 0.96690  0.09730  0.23680  Biso   1.000  C
  C45      1.0000 0.96690  0.40270  0.73680  Biso   1.000  C
  C46      1.0000 0.53310  0.40270  0.26320  Biso   1.000  C
  C47      1.0000 0.46690  0.90270  0.23680  Biso   1.000  C
  C48      1.0000 0.03310  0.90270  0.76320  Biso   1.000  C
  H17      1.0000 0.08226  0.60474  0.26619  Biso   1.000  H
  H18      1.0000 0.41774  0.60474  0.73381  Biso   1.000  H
  H19      1.0000 0.58226  0.10474  0.76619  Biso   1.000  H
  H20      1.0000 0.91774  0.10474  0.23381  Biso   1.000  H
  H21      1.0000 0.91774  0.39526  0.73381  Biso   1.000  H
  H22      1.0000 0.58226  0.39526  0.26619  Biso   1.000  H
  H23      1.0000 0.41774  0.89526  0.23381  Biso   1.000  H
  H24      1.0000 0.08226  0.89526  0.76619  Biso   1.000  H
  O25      1.0000 0.16980  0.99520  0.53250  Biso   1.000  O
  O26      1.0000 0.33020  0.99520  0.46750  Biso   1.000  O
  O27      1.0000 0.66980  0.49520  0.03250  Biso   1.000  O
  O28      1.0000 0.83020  0.49520  0.96750  Biso   1.000  O
  O29      1.0000 0.83020  0.00480  0.46750  Biso   1.000  O
  O30      1.0000 0.66980  0.00480  0.53250  Biso   1.000  O
  O31      1.0000 0.33020  0.50480  0.96750  Biso   1.000  O
  O32      1.0000 0.16980  0.50480  0.03250  Biso   1.000  O
  C49      1.0000 0.98850  0.60030  0.19820  Biso   1.000  C
  C50      1.0000 0.51150  0.60030  0.80180  Biso   1.000  C
  C51      1.0000 0.48850  0.10030  0.69820  Biso   1.000  C
  C52      1.0000 0.01150  0.10030  0.30180  Biso   1.000  C
  C53      1.0000 0.01150  0.39970  0.80180  Biso   1.000  C
  C54      1.0000 0.48850  0.39970  0.19820  Biso   1.000  C
  C55      1.0000 0.51150  0.89970  0.30180  Biso   1.000  C
  C56      1.0000 0.98850  0.89970  0.69820  Biso   1.000  C
  H25      1.0000 0.00738  0.61039  0.15851  Biso   1.000  H
  H26      1.0000 0.49262  0.61039  0.84149  Biso   1.000  H
  H27      1.0000 0.50738  0.11039  0.65851  Biso   1.000  H
  H28      1.0000 0.99262  0.11039  0.34149  Biso   1.000  H
  H29      1.0000 0.99262  0.38961  0.84149  Biso   1.000  H
  H30      1.0000 0.50738  0.38961  0.15851  Biso   1.000  H
  H31      1.0000 0.49262  0.88961  0.34149  Biso   1.000  H
  H32      1.0000 0.00738  0.88961  0.65851  Biso   1.000  H
  C57      1.0000 0.29590  0.27310  0.40970  Biso   1.000  C
  C58      1.0000 0.20410  0.27310  0.59030  Biso   1.000  C
  C59      1.0000 0.79590  0.77310  0.90970  Biso   1.000  C
  C60      1.0000 0.70410  0.77310  0.09030  Biso   1.000  C
  C61      1.0000 0.70410  0.72690  0.59030  Biso   1.000  C
  C62      1.0000 0.79590  0.72690  0.40970  Biso   1.000  C
  C63      1.0000 0.20410  0.22690  0.09030  Biso   1.000  C
  C64      1.0000 0.29590  0.22690  0.90970  Biso   1.000  C
  C65      1.0000 0.24420  0.34730  0.41030  Biso   1.000  C
  C66      1.0000 0.25580  0.34730  0.58970  Biso   1.000  C
  C67      1.0000 0.74420  0.84730  0.91030  Biso   1.000  C
  C68      1.0000 0.75580  0.84730  0.08970  Biso   1.000  C
  C69      1.0000 0.75580  0.65270  0.58970  Biso   1.000  C
  C70      1.0000 0.74420  0.65270  0.41030  Biso   1.000  C
  C71      1.0000 0.25580  0.15270  0.08970  Biso   1.000  C
  C72      1.0000 0.24420  0.15270  0.91030  Biso   1.000  C
  C73      1.0000 0.10020  0.86880  0.50530  Biso   1.000  C
  C74      1.0000 0.39980  0.86880  0.49470  Biso   1.000  C
  C75      1.0000 0.60020  0.36880  0.00530  Biso   1.000  C
  C76      1.0000 0.89980  0.36880  0.99470  Biso   1.000  C
  C77      1.0000 0.89980  0.13120  0.49470  Biso   1.000  C
  C78      1.0000 0.60020  0.13120  0.50530  Biso   1.000  C
  C79      1.0000 0.39980  0.63120  0.99470  Biso   1.000  C
  C80      1.0000 0.10020  0.63120  0.00530  Biso   1.000  C
  O33      1.0000 0.06960  0.98350  0.57390  Biso   1.000  O
  O34      1.0000 0.43040  0.98350  0.42610  Biso   1.000  O
  O35      1.0000 0.56960  0.48350  0.07390  Biso   1.000  O
  O36      1.0000 0.93040  0.48350  0.92610  Biso   1.000  O
  O37      1.0000 0.93040  0.01650  0.42610  Biso   1.000  O
  O38      1.0000 0.56960  0.01650  0.57390  Biso   1.000  O
  O39      1.0000 0.43040  0.51650  0.92610  Biso   1.000  O
  O40      1.0000 0.06960  0.51650  0.07390  Biso   1.000  O
  C81      1.0000 0.12830  0.40090  0.41390  Biso   1.000  C
  C82      1.0000 0.37170  0.40090  0.58610  Biso   1.000  C
  C83      1.0000 0.62830  0.90090  0.91390  Biso   1.000  C
  C84      1.0000 0.87170  0.90090  0.08610  Biso   1.000  C
  C85      1.0000 0.87170  0.59910  0.58610  Biso   1.000  C
  C86      1.0000 0.62830  0.59910  0.41390  Biso   1.000  C
  C87      1.0000 0.37170  0.09910  0.08610  Biso   1.000  C
  C88      1.0000 0.12830  0.09910  0.91390  Biso   1.000  C
  H33      1.0000 0.08010  0.38973  0.41372  Biso   1.000  H
  H34      1.0000 0.41990  0.38973  0.58628  Biso   1.000  H
  H35      1.0000 0.58010  0.88973  0.91372  Biso   1.000  H
  H36      1.0000 0.91990  0.88973  0.08628  Biso   1.000  H
  H37      1.0000 0.91990  0.61027  0.58628  Biso   1.000  H
  H38      1.0000 0.58010  0.61027  0.41372  Biso   1.000  H
  H39      1.0000 0.41990  0.11027  0.08628  Biso   1.000  H
  H40      1.0000 0.08010  0.11027  0.91372  Biso   1.000  H
  C89      1.0000 0.17270  0.33180  0.41320  Biso   1.000  C
  C90      1.0000 0.32730  0.33180  0.58680  Biso   1.000  C
  C91      1.0000 0.67270  0.83180  0.91320  Biso   1.000  C
  C92      1.0000 0.82730  0.83180  0.08680  Biso   1.000  C
  C93      1.0000 0.82730  0.66820  0.58680  Biso   1.000  C
  C94      1.0000 0.67270  0.66820  0.41320  Biso   1.000  C
  C95      1.0000 0.32730  0.16820  0.08680  Biso   1.000  C
  C96      1.0000 0.17270  0.16820  0.91320  Biso   1.000  C
  H41      1.0000 0.15548  0.27587  0.41454  Biso   1.000  H
  H42      1.0000 0.34452  0.27587  0.58546  Biso   1.000  H
  H43      1.0000 0.65548  0.77587  0.91454  Biso   1.000  H
  H44      1.0000 0.84452  0.77587  0.08546  Biso   1.000  H
  H45      1.0000 0.84452  0.72413  0.58546  Biso   1.000  H
  H46      1.0000 0.65548  0.72413  0.41454  Biso   1.000  H
  H47      1.0000 0.34452  0.22413  0.08546  Biso   1.000  H
  H48      1.0000 0.15548  0.22413  0.91454  Biso   1.000  H
  C97      1.0000 0.14980  0.83340  0.47110  Biso   1.000  C
  C98      1.0000 0.35020  0.83340  0.52890  Biso   1.000  C
  C99      1.0000 0.64980  0.33340  0.97110  Biso   1.000  C
  C100     1.0000 0.85020  0.33340  0.02890  Biso   1.000  C
  C101     1.0000 0.85020  0.16660  0.52890  Biso   1.000  C
  C102     1.0000 0.64980  0.16660  0.47110  Biso   1.000  C
  C103     1.0000 0.35020  0.66660  0.02890  Biso   1.000  C
  C104     1.0000 0.14980  0.66660  0.97110  Biso   1.000  C
  H49      1.0000 0.18886  0.86608  0.46420  Biso   1.000  H
  H50      1.0000 0.31114  0.86608  0.53580  Biso   1.000  H
  H51      1.0000 0.68886  0.36608  0.96420  Biso   1.000  H
  H52      1.0000 0.81114  0.36608  0.03580  Biso   1.000  H
  H53      1.0000 0.81114  0.13392  0.53580  Biso   1.000  H
  H54      1.0000 0.68886  0.13392  0.46420  Biso   1.000  H
  H55      1.0000 0.31114  0.63392  0.03580  Biso   1.000  H
  H56      1.0000 0.18886  0.63392  0.96420  Biso   1.000  H
  C105     1.0000 0.89040  0.57520  0.25260  Biso   1.000  C
  C106     1.0000 0.60960  0.57520  0.74740  Biso   1.000  C
  C107     1.0000 0.39040  0.07520  0.75260  Biso   1.000  C
  C108     1.0000 0.10960  0.07520  0.24740  Biso   1.000  C
  C109     1.0000 0.10960  0.42480  0.74740  Biso   1.000  C
  C110     1.0000 0.39040  0.42480  0.25260  Biso   1.000  C
  C111     1.0000 0.60960  0.92480  0.24740  Biso   1.000  C
  C112     1.0000 0.89040  0.92480  0.75260  Biso   1.000  C
  H57      1.0000 0.84156  0.56650  0.25072  Biso   1.000  H
  H58      1.0000 0.65844  0.56650  0.74928  Biso   1.000  H
  H59      1.0000 0.34156  0.06650  0.75072  Biso   1.000  H
  H60      1.0000 0.15844  0.06650  0.24928  Biso   1.000  H
  H61      1.0000 0.15844  0.43350  0.74928  Biso   1.000  H
  H62      1.0000 0.34156  0.43350  0.25072  Biso   1.000  H
  H63      1.0000 0.65844  0.93350  0.24928  Biso   1.000  H
  H64      1.0000 0.84156  0.93350  0.75072  Biso   1.000  H
  C113     1.0000 0.14200  0.74980  0.44690  Biso   1.000  C
  C114     1.0000 0.35800  0.74980  0.55310  Biso   1.000  C
  C115     1.0000 0.64200  0.24980  0.94690  Biso   1.000  C
  C116     1.0000 0.85800  0.24980  0.05310  Biso   1.000  C
  C117     1.0000 0.85800  0.25020  0.55310  Biso   1.000  C
  C118     1.0000 0.64200  0.25020  0.44690  Biso   1.000  C
  C119     1.0000 0.35800  0.75020  0.05310  Biso   1.000  C
  C120     1.0000 0.14200  0.75020  0.94690  Biso   1.000  C
  H65      1.0000 0.17633  0.72720  0.42406  Biso   1.000  H
  H66      1.0000 0.32367  0.72720  0.57594  Biso   1.000  H
  H67      1.0000 0.67633  0.22720  0.92406  Biso   1.000  H
  H68      1.0000 0.82367  0.22720  0.07594  Biso   1.000  H
  H69      1.0000 0.82367  0.27280  0.57594  Biso   1.000  H
  H70      1.0000 0.67633  0.27280  0.42406  Biso   1.000  H
  H71      1.0000 0.32367  0.77280  0.07594  Biso   1.000  H
  H72      1.0000 0.17633  0.77280  0.92406  Biso   1.000  H
  C121     1.0000 0.26720  0.43230  0.41110  Biso   1.000  C
  C122     1.0000 0.23280  0.43230  0.58890  Biso   1.000  C
  C123     1.0000 0.76720  0.93230  0.91110  Biso   1.000  C
  C124     1.0000 0.73280  0.93230  0.08890  Biso   1.000  C
  C125     1.0000 0.73280  0.56770  0.58890  Biso   1.000  C
  C126     1.0000 0.76720  0.56770  0.41110  Biso   1.000  C
  C127     1.0000 0.23280  0.06770  0.08890  Biso   1.000  C
  C128     1.0000 0.26720  0.06770  0.91110  Biso   1.000  C
  H73      1.0000 0.31498  0.44482  0.41025  Biso   1.000  H
  H74      1.0000 0.18502  0.44482  0.58975  Biso   1.000  H
  H75      1.0000 0.81498  0.94482  0.91025  Biso   1.000  H
  H76      1.0000 0.68502  0.94482  0.08975  Biso   1.000  H
  H77      1.0000 0.68502  0.55518  0.58975  Biso   1.000  H
  H78      1.0000 0.81498  0.55518  0.41025  Biso   1.000  H
  H79      1.0000 0.18502  0.05518  0.08975  Biso   1.000  H
  H80      1.0000 0.31498  0.05518  0.91025  Biso   1.000  H
  C129     1.0000 0.21860  0.49820  0.41320  Biso   1.000  C
  C130     1.0000 0.28140  0.49820  0.58680  Biso   1.000  C
  C131     1.0000 0.71860  0.99820  0.91320  Biso   1.000  C
  C132     1.0000 0.78140  0.99820  0.08680  Biso   1.000  C
  C133     1.0000 0.78140  0.50180  0.58680  Biso   1.000  C
  C134     1.0000 0.71860  0.50180  0.41320  Biso   1.000  C
  C135     1.0000 0.28140  0.00180  0.08680  Biso   1.000  C
  C136     1.0000 0.21860  0.00180  0.91320  Biso   1.000  C
  H81      1.0000 0.23465  0.55482  0.41360  Biso   1.000  H
  H82      1.0000 0.26535  0.55482  0.58640  Biso   1.000  H
  H83      1.0000 0.73465  0.05482  0.91360  Biso   1.000  H
  H84      1.0000 0.76535  0.05482  0.08640  Biso   1.000  H
  H85      1.0000 0.76535  0.44518  0.58640  Biso   1.000  H
  H86      1.0000 0.73465  0.44518  0.41360  Biso   1.000  H
  H87      1.0000 0.26535  0.94518  0.08640  Biso   1.000  H
  H88      1.0000 0.23465  0.94518  0.91360  Biso   1.000  H
  C137     1.0000 0.93850  0.57470  0.31670  Biso   1.000  C
  C138     1.0000 0.56150  0.57470  0.68330  Biso   1.000  C
  C139     1.0000 0.43850  0.07470  0.81670  Biso   1.000  C
  C140     1.0000 0.06150  0.07470  0.18330  Biso   1.000  C
  C141     1.0000 0.06150  0.42530  0.68330  Biso   1.000  C
  C142     1.0000 0.43850  0.42530  0.31670  Biso   1.000  C
  C143     1.0000 0.56150  0.92530  0.18330  Biso   1.000  C
  C144     1.0000 0.93850  0.92530  0.81670  Biso   1.000  C
  H89      1.0000 0.92058  0.56769  0.35732  Biso   1.000  H
  H90      1.0000 0.57942  0.56769  0.64268  Biso   1.000  H
  H91      1.0000 0.42058  0.06769  0.85732  Biso   1.000  H
  H92      1.0000 0.07942  0.06769  0.14268  Biso   1.000  H
  H93      1.0000 0.07942  0.43231  0.64268  Biso   1.000  H
  H94      1.0000 0.42058  0.43231  0.35732  Biso   1.000  H
  H95      1.0000 0.57942  0.93231  0.14268  Biso   1.000  H
  H96      1.0000 0.92058  0.93231  0.85732  Biso   1.000  H
  O41      1.0000 0.35230  0.28740  0.38820  Biso   1.000  O
  O42      1.0000 0.14770  0.28740  0.61180  Biso   1.000  O
  O43      1.0000 0.85230  0.78740  0.88820  Biso   1.000  O
  O44      1.0000 0.64770  0.78740  0.11180  Biso   1.000  O
  O45      1.0000 0.64770  0.71260  0.61180  Biso   1.000  O
  O46      1.0000 0.85230  0.71260  0.38820  Biso   1.000  O
  O47      1.0000 0.14770  0.21260  0.11180  Biso   1.000  O
  O48      1.0000 0.35230  0.21260  0.88820  Biso   1.000  O
  N25      1.0000 0.10650  0.37300  0.15340  Biso   1.000  N
  N26      1.0000 0.39350  0.37300  0.84660  Biso   1.000  N
  N27      1.0000 0.60650  0.87300  0.65340  Biso   1.000  N
  N28      1.0000 0.89350  0.87300  0.34660  Biso   1.000  N
  N29      1.0000 0.89350  0.62700  0.84660  Biso   1.000  N
  N30      1.0000 0.60650  0.62700  0.15340  Biso   1.000  N
  N31      1.0000 0.39350  0.12700  0.34660  Biso   1.000  N
  N32      1.0000 0.10650  0.12700  0.65340  Biso   1.000  N
  H97      1.0000 0.11756  0.32804  0.12931  Biso   1.000  H
  H98      1.0000 0.38244  0.32804  0.87069  Biso   1.000  H
  H99      1.0000 0.61756  0.82804  0.62931  Biso   1.000  H
  H100     1.0000 0.88244  0.82804  0.37069  Biso   1.000  H
  H101     1.0000 0.88244  0.67196  0.87069  Biso   1.000  H
  H102     1.0000 0.61756  0.67196  0.12931  Biso   1.000  H
  H103     1.0000 0.38244  0.17196  0.37069  Biso   1.000  H
  H104     1.0000 0.11756  0.17196  0.62931  Biso   1.000  H
  H105     1.0000 0.09511  0.41660  0.12365  Biso   1.000  H
  H106     1.0000 0.40489  0.41660  0.87635  Biso   1.000  H
  H107     1.0000 0.59511  0.91660  0.62365  Biso   1.000  H
  H108     1.0000 0.90489  0.91660  0.37635  Biso   1.000  H
  H109     1.0000 0.90489  0.58340  0.87635  Biso   1.000  H
  H110     1.0000 0.59511  0.58340  0.12365  Biso   1.000  H
  H111     1.0000 0.40489  0.08340  0.37635  Biso   1.000  H
  H112     1.0000 0.09511  0.08340  0.62365  Biso   1.000  H
  C145     1.0000 0.04290  0.35080  0.18300  Biso   1.000  C
  C146     1.0000 0.45710  0.35080  0.81700  Biso   1.000  C
  C147     1.0000 0.54290  0.85080  0.68300  Biso   1.000  C
  C148     1.0000 0.95710  0.85080  0.31700  Biso   1.000  C
  C149     1.0000 0.95710  0.64920  0.81700  Biso   1.000  C
  C150     1.0000 0.54290  0.64920  0.18300  Biso   1.000  C
  C151     1.0000 0.45710  0.14920  0.31700  Biso   1.000  C
  C152     1.0000 0.04290  0.14920  0.68300  Biso   1.000  C
  H113     1.0000 0.00262  0.33924  0.14560  Biso   1.000  H
  H114     1.0000 0.49738  0.33924  0.85440  Biso   1.000  H
  H115     1.0000 0.50262  0.83924  0.64560  Biso   1.000  H
  H116     1.0000 0.99738  0.83924  0.35440  Biso   1.000  H
  H117     1.0000 0.99738  0.66076  0.85440  Biso   1.000  H
  H118     1.0000 0.50262  0.66076  0.14560  Biso   1.000  H
  H119     1.0000 0.49738  0.16076  0.35440  Biso   1.000  H
  H120     1.0000 0.00262  0.16076  0.64560  Biso   1.000  H
  H121     1.0000 0.03162  0.39816  0.21047  Biso   1.000  H
  H122     1.0000 0.46838  0.39816  0.78953  Biso   1.000  H
  H123     1.0000 0.53162  0.89816  0.71047  Biso   1.000  H
  H124     1.0000 0.96838  0.89816  0.28953  Biso   1.000  H
  H125     1.0000 0.96838  0.60184  0.78953  Biso   1.000  H
  H126     1.0000 0.53162  0.60184  0.21047  Biso   1.000  H
  H127     1.0000 0.46838  0.10184  0.28953  Biso   1.000  H
  H128     1.0000 0.03162  0.10184  0.71047  Biso   1.000  H
  H129     1.0000 0.05337  0.30069  0.21209  Biso   1.000  H
  H130     1.0000 0.44663  0.30069  0.78791  Biso   1.000  H
  H131     1.0000 0.55337  0.80069  0.71209  Biso   1.000  H
  H132     1.0000 0.94663  0.80069  0.28791  Biso   1.000  H
  H133     1.0000 0.94663  0.69931  0.78791  Biso   1.000  H
  H134     1.0000 0.55337  0.69931  0.21209  Biso   1.000  H
  H135     1.0000 0.44663  0.19931  0.28791  Biso   1.000  H
  H136     1.0000 0.05337  0.19931  0.71209  Biso   1.000  H
  C153     1.0000 0.16930  0.39660  0.20600  Biso   1.000  C
  C154     1.0000 0.33070  0.39660  0.79400  Biso   1.000  C
  C155     1.0000 0.66930  0.89660  0.70600  Biso   1.000  C
  C156     1.0000 0.83070  0.89660  0.29400  Biso   1.000  C
  C157     1.0000 0.83070  0.60340  0.79400  Biso   1.000  C
  C158     1.0000 0.66930  0.60340  0.20600  Biso   1.000  C
  C159     1.0000 0.33070  0.10340  0.29400  Biso   1.000  C
  C160     1.0000 0.16930  0.10340  0.70600  Biso   1.000  C
  H137     1.0000 0.20774  0.41303  0.18341  Biso   1.000  H
  H138     1.0000 0.29226  0.41303  0.81659  Biso   1.000  H
  H139     1.0000 0.70774  0.91303  0.68341  Biso   1.000  H
  H140     1.0000 0.79226  0.91303  0.31659  Biso   1.000  H
  H141     1.0000 0.79226  0.58697  0.81659  Biso   1.000  H
  H142     1.0000 0.70774  0.58697  0.18341  Biso   1.000  H
  H143     1.0000 0.29226  0.08697  0.31659  Biso   1.000  H
  H144     1.0000 0.20774  0.08697  0.68341  Biso   1.000  H
  H145     1.0000 0.18427  0.34833  0.23623  Biso   1.000  H
  H146     1.0000 0.31573  0.34833  0.76377  Biso   1.000  H
  H147     1.0000 0.68427  0.84833  0.73623  Biso   1.000  H
  H148     1.0000 0.81573  0.84833  0.26377  Biso   1.000  H
  H149     1.0000 0.81573  0.65167  0.76377  Biso   1.000  H
  H150     1.0000 0.68427  0.65167  0.23623  Biso   1.000  H
  H151     1.0000 0.31573  0.15167  0.26377  Biso   1.000  H
  H152     1.0000 0.18427  0.15167  0.73623  Biso   1.000  H
  H153     1.0000 0.15754  0.44404  0.23312  Biso   1.000  H
  H154     1.0000 0.34246  0.44404  0.76688  Biso   1.000  H
  H155     1.0000 0.65754  0.94404  0.73312  Biso   1.000  H
  H156     1.0000 0.84246  0.94404  0.26688  Biso   1.000  H
  H157     1.0000 0.84246  0.55596  0.76688  Biso   1.000  H
  H158     1.0000 0.65754  0.55596  0.23312  Biso   1.000  H
  H159     1.0000 0.34246  0.05596  0.26688  Biso   1.000  H
  H160     1.0000 0.15754  0.05596  0.73312  Biso   1.000  H
  O49      1.0000 0.21670  0.64800  0.30460  Biso   1.000  O
  O50      1.0000 0.28330  0.64800  0.69540  Biso   1.000  O
  O51      1.0000 0.71670  0.14800  0.80460  Biso   1.000  O
  O52      1.0000 0.78330  0.14800  0.19540  Biso   1.000  O
  O53      1.0000 0.78330  0.35200  0.69540  Biso   1.000  O
  O54      1.0000 0.71670  0.35200  0.30460  Biso   1.000  O
  O55      1.0000 0.28330  0.85200  0.19540  Biso   1.000  O
  O56      1.0000 0.21670  0.85200  0.80460  Biso   1.000  O
  N33      1.0000 0.32900  0.64820  0.28550  Biso   1.000  N
  N34      1.0000 0.17100  0.64820  0.71450  Biso   1.000  N
  N35      1.0000 0.82900  0.14820  0.78550  Biso   1.000  N
  N36      1.0000 0.67100  0.14820  0.21450  Biso   1.000  N
  N37      1.0000 0.67100  0.35180  0.71450  Biso   1.000  N
  N38      1.0000 0.82900  0.35180  0.28550  Biso   1.000  N
  N39      1.0000 0.17100  0.85180  0.21450  Biso   1.000  N
  N40      1.0000 0.32900  0.85180  0.78550  Biso   1.000  N
  C161     1.0000 0.25880  0.64340  0.26360  Biso   1.000  C
  C162     1.0000 0.24120  0.64340  0.73640  Biso   1.000  C
  C163     1.0000 0.75880  0.14340  0.76360  Biso   1.000  C
  C164     1.0000 0.74120  0.14340  0.23640  Biso   1.000  C
  C165     1.0000 0.74120  0.35660  0.73640  Biso   1.000  C
  C166     1.0000 0.75880  0.35660  0.26360  Biso   1.000  C
  C167     1.0000 0.24120  0.85660  0.23640  Biso   1.000  C
  C168     1.0000 0.25880  0.85660  0.76360  Biso   1.000  C
  C169     1.0000 0.35900  0.65810  0.35990  Biso   1.000  C
  C170     1.0000 0.14100  0.65810  0.64010  Biso   1.000  C
  C171     1.0000 0.85900  0.15810  0.85990  Biso   1.000  C
  C172     1.0000 0.64100  0.15810  0.14010  Biso   1.000  C
  C173     1.0000 0.64100  0.34190  0.64010  Biso   1.000  C
  C174     1.0000 0.85900  0.34190  0.35990  Biso   1.000  C
  C175     1.0000 0.14100  0.84190  0.14010  Biso   1.000  C
  C176     1.0000 0.35900  0.84190  0.85990  Biso   1.000  C
  H161     1.0000 0.38627  0.71052  0.36761  Biso   1.000  H
  H162     1.0000 0.11373  0.71052  0.63239  Biso   1.000  H
  H163     1.0000 0.88627  0.21052  0.86761  Biso   1.000  H
  H164     1.0000 0.61373  0.21052  0.13239  Biso   1.000  H
  H165     1.0000 0.61373  0.28948  0.63239  Biso   1.000  H
  H166     1.0000 0.88627  0.28948  0.36761  Biso   1.000  H
  H167     1.0000 0.11373  0.78948  0.13239  Biso   1.000  H
  H168     1.0000 0.38627  0.78948  0.86761  Biso   1.000  H
  H169     1.0000 0.38999  0.61014  0.37607  Biso   1.000  H
  H170     1.0000 0.11001  0.61014  0.62393  Biso   1.000  H
  H171     1.0000 0.88999  0.11014  0.87607  Biso   1.000  H
  H172     1.0000 0.61001  0.11014  0.12393  Biso   1.000  H
  H173     1.0000 0.61001  0.38986  0.62393  Biso   1.000  H
  H174     1.0000 0.88999  0.38986  0.37607  Biso   1.000  H
  H175     1.0000 0.11001  0.88986  0.12393  Biso   1.000  H
  H176     1.0000 0.38999  0.88986  0.87607  Biso   1.000  H
  H177     1.0000 0.32068  0.66002  0.38525  Biso   1.000  H
  H178     1.0000 0.17932  0.66002  0.61475  Biso   1.000  H
  H179     1.0000 0.82068  0.16002  0.88525  Biso   1.000  H
  H180     1.0000 0.67932  0.16002  0.11475  Biso   1.000  H
  H181     1.0000 0.67932  0.33998  0.61475  Biso   1.000  H
  H182     1.0000 0.82068  0.33998  0.38525  Biso   1.000  H
  H183     1.0000 0.17932  0.83998  0.11475  Biso   1.000  H
  H184     1.0000 0.32068  0.83998  0.88525  Biso   1.000  H
  C177     1.0000 0.23040  0.63400  0.18590  Biso   1.000  C
  C178     1.0000 0.26960  0.63400  0.81410  Biso   1.000  C
  C179     1.0000 0.73040  0.13400  0.68590  Biso   1.000  C
  C180     1.0000 0.76960  0.13400  0.31410  Biso   1.000  C
  C181     1.0000 0.76960  0.36600  0.81410  Biso   1.000  C
  C182     1.0000 0.73040  0.36600  0.18590  Biso   1.000  C
  C183     1.0000 0.26960  0.86600  0.31410  Biso   1.000  C
  C184     1.0000 0.23040  0.86600  0.68590  Biso   1.000  C
  H185     1.0000 0.17912  0.62672  0.17699  Biso   1.000  H
  H186     1.0000 0.32088  0.62672  0.82301  Biso   1.000  H
  H187     1.0000 0.67912  0.12672  0.67699  Biso   1.000  H
  H188     1.0000 0.82088  0.12672  0.32301  Biso   1.000  H
  H189     1.0000 0.82088  0.37328  0.82301  Biso   1.000  H
  H190     1.0000 0.67912  0.37328  0.17699  Biso   1.000  H
  H191     1.0000 0.32088  0.87328  0.32301  Biso   1.000  H
  H192     1.0000 0.17912  0.87328  0.67699  Biso   1.000  H
  H193     1.0000 0.25211  0.58472  0.16889  Biso   1.000  H
  H194     1.0000 0.24789  0.58472  0.83111  Biso   1.000  H
  H195     1.0000 0.75211  0.08472  0.66889  Biso   1.000  H
  H196     1.0000 0.74789  0.08472  0.33111  Biso   1.000  H
  H197     1.0000 0.74789  0.41528  0.83111  Biso   1.000  H
  H198     1.0000 0.75211  0.41528  0.16889  Biso   1.000  H
  H199     1.0000 0.24789  0.91528  0.33111  Biso   1.000  H
  H200     1.0000 0.25211  0.91528  0.66889  Biso   1.000  H
  H201     1.0000 0.24199  0.68478  0.16231  Biso   1.000  H
  H202     1.0000 0.25801  0.68478  0.83769  Biso   1.000  H
  H203     1.0000 0.74199  0.18478  0.66231  Biso   1.000  H
  H204     1.0000 0.75801  0.18478  0.33769  Biso   1.000  H
  H205     1.0000 0.75801  0.31522  0.83769  Biso   1.000  H
  H206     1.0000 0.74199  0.31522  0.16231  Biso   1.000  H
  H207     1.0000 0.25801  0.81522  0.33769  Biso   1.000  H
  H208     1.0000 0.24199  0.81522  0.66231  Biso   1.000  H
  C185     1.0000 0.37890  0.65270  0.23730  Biso   1.000  C
  C186     1.0000 0.12110  0.65270  0.76270  Biso   1.000  C
  C187     1.0000 0.87890  0.15270  0.73730  Biso   1.000  C
  C188     1.0000 0.62110  0.15270  0.26270  Biso   1.000  C
  C189     1.0000 0.62110  0.34730  0.76270  Biso   1.000  C
  C190     1.0000 0.87890  0.34730  0.23730  Biso   1.000  C
  C191     1.0000 0.12110  0.84730  0.26270  Biso   1.000  C
  C192     1.0000 0.37890  0.84730  0.73730  Biso   1.000  C
  H209     1.0000 0.35478  0.63384  0.19167  Biso   1.000  H
  H210     1.0000 0.14522  0.63384  0.80833  Biso   1.000  H
  H211     1.0000 0.85478  0.13384  0.69167  Biso   1.000  H
  H212     1.0000 0.64522  0.13384  0.30833  Biso   1.000  H
  H213     1.0000 0.64522  0.36616  0.80833  Biso   1.000  H
  H214     1.0000 0.85478  0.36616  0.19167  Biso   1.000  H
  H215     1.0000 0.14522  0.86616  0.30833  Biso   1.000  H
  H216     1.0000 0.35478  0.86616  0.69167  Biso   1.000  H
  H217     1.0000 0.41961  0.61615  0.25406  Biso   1.000  H
  H218     1.0000 0.08039  0.61615  0.74594  Biso   1.000  H
  H219     1.0000 0.91961  0.11615  0.75406  Biso   1.000  H
  H220     1.0000 0.58039  0.11615  0.24594  Biso   1.000  H
  H221     1.0000 0.58039  0.38385  0.74594  Biso   1.000  H
  H222     1.0000 0.91961  0.38385  0.25406  Biso   1.000  H
  H223     1.0000 0.08039  0.88385  0.24594  Biso   1.000  H
  H224     1.0000 0.41961  0.88385  0.75406  Biso   1.000  H
  H225     1.0000 0.39496  0.71096  0.23466  Biso   1.000  H
  H226     1.0000 0.10504  0.71096  0.76534  Biso   1.000  H
  H227     1.0000 0.89496  0.21096  0.73466  Biso   1.000  H
  H228     1.0000 0.60504  0.21096  0.26534  Biso   1.000  H
  H229     1.0000 0.60504  0.28904  0.76534  Biso   1.000  H
  H230     1.0000 0.89496  0.28904  0.23466  Biso   1.000  H
  H231     1.0000 0.10504  0.78904  0.26534  Biso   1.000  H
  H232     1.0000 0.39496  0.78904  0.73466  Biso   1.000  H
