data_image0
_cell_length_a       18.95
_cell_length_b       15.55
_cell_length_c       19.36
_cell_angle_alpha    90
_cell_angle_beta     101.39
_cell_angle_gamma    90

_symmetry_space_group_name_H-M    "P 1"
_symmetry_int_tables_number       1

loop_
  _symmetry_equiv_pos_as_xyz
  'x, y, z'

loop_
  _atom_site_label
  _atom_site_occupancy
  _atom_site_fract_x
  _atom_site_fract_y
  _atom_site_fract_z
  _atom_site_thermal_displace_type
  _atom_site_B_iso_or_equiv
  _atom_site_type_symbol
  Gd1      1.0000 0.25000  0.59182  0.00000  Biso   1.000  Gd
  Gd2      1.0000 0.75000  0.09182  0.50000  Biso   1.000  Gd
  Gd3      1.0000 0.75000  0.40818  0.00000  Biso   1.000  Gd
  Gd4      1.0000 0.25000  0.90818  0.50000  Biso   1.000  Gd
  Br1      1.0000 0.50000  0.00000  0.00000  Biso   1.000  Br
  Br2      1.0000 0.00000  0.00000  0.00000  Biso   1.000  Br
  Br3      1.0000 0.00000  0.50000  0.50000  Biso   1.000  Br
  Br4      1.0000 0.50000  0.50000  0.50000  Biso   1.000  Br
  Cu1      1.0000 0.42259  0.07795  0.08045  Biso   1.000  Cu
  Cu2      1.0000 0.07741  0.07795  0.91955  Biso   1.000  Cu
  Cu3      1.0000 0.92259  0.57795  0.58045  Biso   1.000  Cu
  Cu4      1.0000 0.57741  0.57795  0.41955  Biso   1.000  Cu
  Cu5      1.0000 0.57741  0.92205  0.91955  Biso   1.000  Cu
  Cu6      1.0000 0.92259  0.92205  0.08045  Biso   1.000  Cu
  Cu7      1.0000 0.07741  0.42205  0.41955  Biso   1.000  Cu
  Cu8      1.0000 0.42259  0.42205  0.58045  Biso   1.000  Cu
  O1       1.0000 0.22060  0.69970  0.06920  Biso   1.000  O
  O2       1.0000 0.27940  0.69970  0.93080  Biso   1.000  O
  O3       1.0000 0.72060  0.19970  0.56920  Biso   1.000  O
  O4       1.0000 0.77940  0.19970  0.43080  Biso   1.000  O
  O5       1.0000 0.77940  0.30030  0.93080  Biso   1.000  O
  O6       1.0000 0.72060  0.30030  0.06920  Biso   1.000  O
  O7       1.0000 0.27940  0.80030  0.43080  Biso   1.000  O
  O8       1.0000 0.22060  0.80030  0.56920  Biso   1.000  O
  O9       1.0000 0.14730  0.78730  0.11150  Biso   1.000  O
  O10      1.0000 0.35270  0.78730  0.88850  Biso   1.000  O
  O11      1.0000 0.64730  0.28730  0.61150  Biso   1.000  O
  O12      1.0000 0.85270  0.28730  0.38850  Biso   1.000  O
  O13      1.0000 0.85270  0.21270  0.88850  Biso   1.000  O
  O14      1.0000 0.64730  0.21270  0.11150  Biso   1.000  O
  O15      1.0000 0.35270  0.71270  0.38850  Biso   1.000  O
  O16      1.0000 0.14730  0.71270  0.61150  Biso   1.000  O
  O17      1.0000 0.69380  0.04300  0.38320  Biso   1.000  O
  O18      1.0000 0.80620  0.04300  0.61680  Biso   1.000  O
  O19      1.0000 0.19380  0.54300  0.88320  Biso   1.000  O
  O20      1.0000 0.30620  0.54300  0.11680  Biso   1.000  O
  O21      1.0000 0.30620  0.95700  0.61680  Biso   1.000  O
  O22      1.0000 0.19380  0.95700  0.38320  Biso   1.000  O
  O23      1.0000 0.80620  0.45700  0.11680  Biso   1.000  O
  O24      1.0000 0.69380  0.45700  0.88320  Biso   1.000  O
  O25      1.0000 0.62400  0.13130  0.42810  Biso   1.000  O
  O26      1.0000 0.87600  0.13130  0.57190  Biso   1.000  O
  O27      1.0000 0.12400  0.63130  0.92810  Biso   1.000  O
  O28      1.0000 0.37600  0.63130  0.07190  Biso   1.000  O
  O29      1.0000 0.37600  0.86870  0.57190  Biso   1.000  O
  O30      1.0000 0.12400  0.86870  0.42810  Biso   1.000  O
  O31      1.0000 0.87600  0.36870  0.07190  Biso   1.000  O
  O32      1.0000 0.62400  0.36870  0.92810  Biso   1.000  O
  O33      1.0000 0.32920  0.49530  0.96720  Biso   1.000  O
  O34      1.0000 0.17080  0.49530  0.03280  Biso   1.000  O
  O35      1.0000 0.82920  0.99530  0.46720  Biso   1.000  O
  O36      1.0000 0.67080  0.99530  0.53280  Biso   1.000  O
  O37      1.0000 0.67080  0.50470  0.03280  Biso   1.000  O
  O38      1.0000 0.82920  0.50470  0.96720  Biso   1.000  O
  O39      1.0000 0.17080  0.00470  0.53280  Biso   1.000  O
  O40      1.0000 0.32920  0.00470  0.46720  Biso   1.000  O
  O41      1.0000 0.43070  0.48400  0.92630  Biso   1.000  O
  O42      1.0000 0.06930  0.48400  0.07370  Biso   1.000  O
  O43      1.0000 0.93070  0.98400  0.42630  Biso   1.000  O
  O44      1.0000 0.56930  0.98400  0.57370  Biso   1.000  O
  O45      1.0000 0.56930  0.51600  0.07370  Biso   1.000  O
  O46      1.0000 0.93070  0.51600  0.92630  Biso   1.000  O
  O47      1.0000 0.06930  0.01600  0.57370  Biso   1.000  O
  O48      1.0000 0.43070  0.01600  0.42630  Biso   1.000  O
  N1       1.0000 0.41370  0.19850  0.04440  Biso   1.000  N
  N2       1.0000 0.08630  0.19850  0.95560  Biso   1.000  N
  N3       1.0000 0.91370  0.69850  0.54440  Biso   1.000  N
  N4       1.0000 0.58630  0.69850  0.45560  Biso   1.000  N
  N5       1.0000 0.58630  0.80150  0.95560  Biso   1.000  N
  N6       1.0000 0.91370  0.80150  0.04440  Biso   1.000  N
  N7       1.0000 0.08630  0.30150  0.45560  Biso   1.000  N
  N8       1.0000 0.41370  0.30150  0.54440  Biso   1.000  N
  N9       1.0000 0.35020  0.98390  0.08470  Biso   1.000  N
  N10      1.0000 0.14980  0.98390  0.91530  Biso   1.000  N
  N11      1.0000 0.85020  0.48390  0.58470  Biso   1.000  N
  N12      1.0000 0.64980  0.48390  0.41530  Biso   1.000  N
  N13      1.0000 0.64980  0.01610  0.91530  Biso   1.000  N
  N14      1.0000 0.85020  0.01610  0.08470  Biso   1.000  N
  N15      1.0000 0.14980  0.51610  0.41530  Biso   1.000  N
  N16      1.0000 0.35020  0.51610  0.58470  Biso   1.000  N
  N17      1.0000 0.49110  0.08430  0.17780  Biso   1.000  N
  N18      1.0000 0.00890  0.08430  0.82220  Biso   1.000  N
  N19      1.0000 0.99110  0.58430  0.67780  Biso   1.000  N
  N20      1.0000 0.50890  0.58430  0.32220  Biso   1.000  N
  N21      1.0000 0.50890  0.91570  0.82220  Biso   1.000  N
  N22      1.0000 0.99110  0.91570  0.17780  Biso   1.000  N
  N23      1.0000 0.00890  0.41570  0.32220  Biso   1.000  N
  N24      1.0000 0.49110  0.41570  0.67780  Biso   1.000  N
  C1       1.0000 0.63650  0.08760  0.37750  Biso   1.000  C
  C2       1.0000 0.86350  0.08760  0.62250  Biso   1.000  C
  C3       1.0000 0.13650  0.58760  0.87750  Biso   1.000  C
  C4       1.0000 0.36350  0.58760  0.12250  Biso   1.000  C
  C5       1.0000 0.36350  0.91240  0.62250  Biso   1.000  C
  C6       1.0000 0.13650  0.91240  0.37750  Biso   1.000  C
  C7       1.0000 0.86350  0.41240  0.12250  Biso   1.000  C
  C8       1.0000 0.63650  0.41240  0.87750  Biso   1.000  C
  C9       1.0000 0.32800  0.83210  0.08830  Biso   1.000  C
  C10      1.0000 0.17200  0.83210  0.91170  Biso   1.000  C
  C11      1.0000 0.82800  0.33210  0.58830  Biso   1.000  C
  C12      1.0000 0.67200  0.33210  0.41170  Biso   1.000  C
  C13      1.0000 0.67200  0.16790  0.91170  Biso   1.000  C
  C14      1.0000 0.82800  0.16790  0.08830  Biso   1.000  C
  C15      1.0000 0.17200  0.66790  0.41170  Biso   1.000  C
  C16      1.0000 0.32800  0.66790  0.58830  Biso   1.000  C
  H1       1.0000 0.34572  0.77632  0.08883  Biso   1.000  H
  H2       1.0000 0.15428  0.77632  0.91117  Biso   1.000  H
  H3       1.0000 0.84572  0.27632  0.58883  Biso   1.000  H
  H4       1.0000 0.65428  0.27632  0.41117  Biso   1.000  H
  H5       1.0000 0.65428  0.22368  0.91117  Biso   1.000  H
  H6       1.0000 0.84572  0.22368  0.08883  Biso   1.000  H
  H7       1.0000 0.15428  0.72368  0.41117  Biso   1.000  H
  H8       1.0000 0.34572  0.72368  0.58883  Biso   1.000  H
  C17      1.0000 0.39910  0.36860  0.99420  Biso   1.000  C
  C18      1.0000 0.10090  0.36860  0.00580  Biso   1.000  C
  C19      1.0000 0.89910  0.86860  0.49420  Biso   1.000  C
  C20      1.0000 0.60090  0.86860  0.50580  Biso   1.000  C
  C21      1.0000 0.60090  0.63140  0.00580  Biso   1.000  C
  C22      1.0000 0.89910  0.63140  0.99420  Biso   1.000  C
  C23      1.0000 0.10090  0.13140  0.50580  Biso   1.000  C
  C24      1.0000 0.39910  0.13140  0.49420  Biso   1.000  C
  C25      1.0000 0.25590  0.84640  0.08990  Biso   1.000  C
  C26      1.0000 0.24410  0.84640  0.91010  Biso   1.000  C
  C27      1.0000 0.75590  0.34640  0.58990  Biso   1.000  C
  C28      1.0000 0.74410  0.34640  0.41010  Biso   1.000  C
  C29      1.0000 0.74410  0.15360  0.91010  Biso   1.000  C
  C30      1.0000 0.75590  0.15360  0.08990  Biso   1.000  C
  C31      1.0000 0.24410  0.65360  0.41010  Biso   1.000  C
  C32      1.0000 0.25590  0.65360  0.58990  Biso   1.000  C
  C33      1.0000 0.38620  0.45660  0.96050  Biso   1.000  C
  C34      1.0000 0.11380  0.45660  0.03950  Biso   1.000  C
  C35      1.0000 0.88620  0.95660  0.46050  Biso   1.000  C
  C36      1.0000 0.61380  0.95660  0.53950  Biso   1.000  C
  C37      1.0000 0.61380  0.54340  0.03950  Biso   1.000  C
  C38      1.0000 0.88620  0.54340  0.96050  Biso   1.000  C
  C39      1.0000 0.11380  0.04340  0.53950  Biso   1.000  C
  C40      1.0000 0.38620  0.04340  0.46050  Biso   1.000  C
  C41      1.0000 0.45830  0.31800  0.98930  Biso   1.000  C
  C42      1.0000 0.04170  0.31800  0.01070  Biso   1.000  C
  C43      1.0000 0.95830  0.81800  0.48930  Biso   1.000  C
  C44      1.0000 0.54170  0.81800  0.51070  Biso   1.000  C
  C45      1.0000 0.54170  0.68200  0.01070  Biso   1.000  C
  C46      1.0000 0.95830  0.68200  0.98930  Biso   1.000  C
  C47      1.0000 0.04170  0.18200  0.51070  Biso   1.000  C
  C48      1.0000 0.45830  0.18200  0.48930  Biso   1.000  C
  H9       1.0000 0.49487  0.34079  0.96915  Biso   1.000  H
  H10      1.0000 0.00513  0.34079  0.03085  Biso   1.000  H
  H11      1.0000 0.99487  0.84079  0.46915  Biso   1.000  H
  H12      1.0000 0.50513  0.84079  0.53085  Biso   1.000  H
  H13      1.0000 0.50513  0.65921  0.03085  Biso   1.000  H
  H14      1.0000 0.99487  0.65921  0.96915  Biso   1.000  H
  H15      1.0000 0.00513  0.15921  0.53085  Biso   1.000  H
  H16      1.0000 0.49487  0.15921  0.46915  Biso   1.000  H
  C49      1.0000 0.46360  0.23500  0.01350  Biso   1.000  C
  C50      1.0000 0.03640  0.23500  0.98650  Biso   1.000  C
  C51      1.0000 0.96360  0.73500  0.51350  Biso   1.000  C
  C52      1.0000 0.53640  0.73500  0.48650  Biso   1.000  C
  C53      1.0000 0.53640  0.76500  0.98650  Biso   1.000  C
  C54      1.0000 0.96360  0.76500  0.01350  Biso   1.000  C
  C55      1.0000 0.03640  0.26500  0.48650  Biso   1.000  C
  C56      1.0000 0.46360  0.26500  0.51350  Biso   1.000  C
  H17      1.0000 0.50348  0.20264  0.00829  Biso   1.000  H
  H18      1.0000 0.99652  0.20264  0.99171  Biso   1.000  H
  H19      1.0000 0.00348  0.70264  0.50829  Biso   1.000  H
  H20      1.0000 0.49652  0.70264  0.49171  Biso   1.000  H
  H21      1.0000 0.49652  0.79736  0.99171  Biso   1.000  H
  H22      1.0000 0.00348  0.79736  0.00829  Biso   1.000  H
  H23      1.0000 0.99652  0.29736  0.49171  Biso   1.000  H
  H24      1.0000 0.50348  0.29736  0.50829  Biso   1.000  H
  C57      1.0000 0.34980  0.33220  0.02990  Biso   1.000  C
  C58      1.0000 0.15020  0.33220  0.97010  Biso   1.000  C
  C59      1.0000 0.84980  0.83220  0.52990  Biso   1.000  C
  C60      1.0000 0.65020  0.83220  0.47010  Biso   1.000  C
  C61      1.0000 0.65020  0.66780  0.97010  Biso   1.000  C
  C62      1.0000 0.84980  0.66780  0.02990  Biso   1.000  C
  C63      1.0000 0.15020  0.16780  0.47010  Biso   1.000  C
  C64      1.0000 0.34980  0.16780  0.52990  Biso   1.000  C
  H25      1.0000 0.31081  0.36452  0.03769  Biso   1.000  H
  H26      1.0000 0.18919  0.36452  0.96231  Biso   1.000  H
  H27      1.0000 0.81081  0.86452  0.53769  Biso   1.000  H
  H28      1.0000 0.68919  0.86452  0.46231  Biso   1.000  H
  H29      1.0000 0.68919  0.63548  0.96231  Biso   1.000  H
  H30      1.0000 0.81081  0.63548  0.03769  Biso   1.000  H
  H31      1.0000 0.18919  0.13548  0.46231  Biso   1.000  H
  H32      1.0000 0.31081  0.13548  0.53769  Biso   1.000  H
  C65      1.0000 0.35780  0.25060  0.05320  Biso   1.000  C
  C66      1.0000 0.14220  0.25060  0.94680  Biso   1.000  C
  C67      1.0000 0.85780  0.75060  0.55320  Biso   1.000  C
  C68      1.0000 0.64220  0.75060  0.44680  Biso   1.000  C
  C69      1.0000 0.64220  0.74940  0.94680  Biso   1.000  C
  C70      1.0000 0.85780  0.74940  0.05320  Biso   1.000  C
  C71      1.0000 0.14220  0.24940  0.44680  Biso   1.000  C
  C72      1.0000 0.35780  0.24940  0.55320  Biso   1.000  C
  H33      1.0000 0.32351  0.22826  0.07659  Biso   1.000  H
  H34      1.0000 0.17649  0.22826  0.92341  Biso   1.000  H
  H35      1.0000 0.82351  0.72826  0.57659  Biso   1.000  H
  H36      1.0000 0.67649  0.72826  0.42341  Biso   1.000  H
  H37      1.0000 0.67649  0.77174  0.92341  Biso   1.000  H
  H38      1.0000 0.82351  0.77174  0.07659  Biso   1.000  H
  H39      1.0000 0.17649  0.27174  0.42341  Biso   1.000  H
  H40      1.0000 0.32351  0.27174  0.57659  Biso   1.000  H
  C73      1.0000 0.20300  0.77220  0.08980  Biso   1.000  C
  C74      1.0000 0.29700  0.77220  0.91020  Biso   1.000  C
  C75      1.0000 0.70300  0.27220  0.58980  Biso   1.000  C
  C76      1.0000 0.79700  0.27220  0.41020  Biso   1.000  C
  C77      1.0000 0.79700  0.22780  0.91020  Biso   1.000  C
  C78      1.0000 0.70300  0.22780  0.08980  Biso   1.000  C
  C79      1.0000 0.29700  0.72780  0.41020  Biso   1.000  C
  C80      1.0000 0.20300  0.72780  0.58980  Biso   1.000  C
  C81      1.0000 0.23280  0.93100  0.08950  Biso   1.000  C
  C82      1.0000 0.26720  0.93100  0.91050  Biso   1.000  C
  C83      1.0000 0.73280  0.43100  0.58950  Biso   1.000  C
  C84      1.0000 0.76720  0.43100  0.41050  Biso   1.000  C
  C85      1.0000 0.76720  0.06900  0.91050  Biso   1.000  C
  C86      1.0000 0.73280  0.06900  0.08950  Biso   1.000  C
  C87      1.0000 0.26720  0.56900  0.41050  Biso   1.000  C
  C88      1.0000 0.23280  0.56900  0.58950  Biso   1.000  C
  H41      1.0000 0.18507  0.94349  0.09064  Biso   1.000  H
  H42      1.0000 0.31493  0.94349  0.90936  Biso   1.000  H
  H43      1.0000 0.68507  0.44349  0.59064  Biso   1.000  H
  H44      1.0000 0.81493  0.44349  0.40936  Biso   1.000  H
  H45      1.0000 0.81493  0.05651  0.90936  Biso   1.000  H
  H46      1.0000 0.68507  0.05651  0.09064  Biso   1.000  H
  H47      1.0000 0.31493  0.55651  0.40936  Biso   1.000  H
  H48      1.0000 0.18507  0.55651  0.59064  Biso   1.000  H
  C89      1.0000 0.37260  0.90060  0.08610  Biso   1.000  C
  C90      1.0000 0.12740  0.90060  0.91390  Biso   1.000  C
  C91      1.0000 0.87260  0.40060  0.58610  Biso   1.000  C
  C92      1.0000 0.62740  0.40060  0.41390  Biso   1.000  C
  C93      1.0000 0.62740  0.09940  0.91390  Biso   1.000  C
  C94      1.0000 0.87260  0.09940  0.08610  Biso   1.000  C
  C95      1.0000 0.12740  0.59940  0.41390  Biso   1.000  C
  C96      1.0000 0.37260  0.59940  0.58610  Biso   1.000  C
  H49      1.0000 0.42071  0.88975  0.08543  Biso   1.000  H
  H50      1.0000 0.07929  0.88975  0.91457  Biso   1.000  H
  H51      1.0000 0.92071  0.38975  0.58543  Biso   1.000  H
  H52      1.0000 0.57929  0.38975  0.41457  Biso   1.000  H
  H53      1.0000 0.57929  0.11025  0.91457  Biso   1.000  H
  H54      1.0000 0.92071  0.11025  0.08543  Biso   1.000  H
  H55      1.0000 0.07929  0.61025  0.41457  Biso   1.000  H
  H56      1.0000 0.42071  0.61025  0.58543  Biso   1.000  H
  C97      1.0000 0.28160  0.99670  0.08730  Biso   1.000  C
  C98      1.0000 0.21840  0.99670  0.91270  Biso   1.000  C
  C99      1.0000 0.78160  0.49670  0.58730  Biso   1.000  C
  C100     1.0000 0.71840  0.49670  0.41270  Biso   1.000  C
  C101     1.0000 0.71840  0.00330  0.91270  Biso   1.000  C
  C102     1.0000 0.78160  0.00330  0.08730  Biso   1.000  C
  C103     1.0000 0.21840  0.50330  0.41270  Biso   1.000  C
  C104     1.0000 0.28160  0.50330  0.58730  Biso   1.000  C
  H57      1.0000 0.26526  0.05309  0.08768  Biso   1.000  H
  H58      1.0000 0.23474  0.05309  0.91232  Biso   1.000  H
  H59      1.0000 0.76526  0.55309  0.58768  Biso   1.000  H
  H60      1.0000 0.73474  0.55309  0.41232  Biso   1.000  H
  H61      1.0000 0.73474  0.94691  0.91232  Biso   1.000  H
  H62      1.0000 0.76526  0.94691  0.08768  Biso   1.000  H
  H63      1.0000 0.23474  0.44691  0.41232  Biso   1.000  H
  H64      1.0000 0.26526  0.44691  0.58768  Biso   1.000  H
  C105     1.0000 0.58540  0.08810  0.30820  Biso   1.000  C
  C106     1.0000 0.91460  0.08810  0.69180  Biso   1.000  C
  C107     1.0000 0.08540  0.58810  0.80820  Biso   1.000  C
  C108     1.0000 0.41460  0.58810  0.19180  Biso   1.000  C
  C109     1.0000 0.41460  0.91190  0.69180  Biso   1.000  C
  C110     1.0000 0.08540  0.91190  0.30820  Biso   1.000  C
  C111     1.0000 0.91460  0.41190  0.19180  Biso   1.000  C
  C112     1.0000 0.58540  0.41190  0.80820  Biso   1.000  C
  C113     1.0000 0.51180  0.10200  0.30180  Biso   1.000  C
  C114     1.0000 0.98820  0.10200  0.69820  Biso   1.000  C
  C115     1.0000 0.01180  0.60200  0.80180  Biso   1.000  C
  C116     1.0000 0.48820  0.60200  0.19820  Biso   1.000  C
  C117     1.0000 0.48820  0.89800  0.69820  Biso   1.000  C
  C118     1.0000 0.01180  0.89800  0.30180  Biso   1.000  C
  C119     1.0000 0.98820  0.39800  0.19820  Biso   1.000  C
  C120     1.0000 0.51180  0.39800  0.80180  Biso   1.000  C
  H65      1.0000 0.49306  0.11391  0.34164  Biso   1.000  H
  H66      1.0000 0.00694  0.11391  0.65836  Biso   1.000  H
  H67      1.0000 0.99306  0.61391  0.84164  Biso   1.000  H
  H68      1.0000 0.50694  0.61391  0.15836  Biso   1.000  H
  H69      1.0000 0.50694  0.88609  0.65836  Biso   1.000  H
  H70      1.0000 0.99306  0.88609  0.34164  Biso   1.000  H
  H71      1.0000 0.00694  0.38609  0.15836  Biso   1.000  H
  H72      1.0000 0.49306  0.38609  0.84164  Biso   1.000  H
  C121     1.0000 0.60860  0.07640  0.24620  Biso   1.000  C
  C122     1.0000 0.89140  0.07640  0.75380  Biso   1.000  C
  C123     1.0000 0.10860  0.57640  0.74620  Biso   1.000  C
  C124     1.0000 0.39140  0.57640  0.25380  Biso   1.000  C
  C125     1.0000 0.39140  0.92360  0.75380  Biso   1.000  C
  C126     1.0000 0.10860  0.92360  0.24620  Biso   1.000  C
  C127     1.0000 0.89140  0.42360  0.25380  Biso   1.000  C
  C128     1.0000 0.60860  0.42360  0.74620  Biso   1.000  C
  H73      1.0000 0.65747  0.06917  0.24687  Biso   1.000  H
  H74      1.0000 0.84253  0.06917  0.75313  Biso   1.000  H
  H75      1.0000 0.15747  0.56917  0.74687  Biso   1.000  H
  H76      1.0000 0.34253  0.56917  0.25313  Biso   1.000  H
  H77      1.0000 0.34253  0.93083  0.75313  Biso   1.000  H
  H78      1.0000 0.15747  0.93083  0.24687  Biso   1.000  H
  H79      1.0000 0.84253  0.43083  0.25313  Biso   1.000  H
  H80      1.0000 0.65747  0.43083  0.74687  Biso   1.000  H
  C129     1.0000 0.56140  0.07530  0.18430  Biso   1.000  C
  C130     1.0000 0.93860  0.07530  0.81570  Biso   1.000  C
  C131     1.0000 0.06140  0.57530  0.68430  Biso   1.000  C
  C132     1.0000 0.43860  0.57530  0.31570  Biso   1.000  C
  C133     1.0000 0.43860  0.92470  0.81570  Biso   1.000  C
  C134     1.0000 0.06140  0.92470  0.18430  Biso   1.000  C
  C135     1.0000 0.93860  0.42470  0.31570  Biso   1.000  C
  C136     1.0000 0.56140  0.42470  0.68430  Biso   1.000  C
  H81      1.0000 0.57952  0.06762  0.14346  Biso   1.000  H
  H82      1.0000 0.92048  0.06762  0.85654  Biso   1.000  H
  H83      1.0000 0.07952  0.56762  0.64346  Biso   1.000  H
  H84      1.0000 0.42048  0.56762  0.35654  Biso   1.000  H
  H85      1.0000 0.42048  0.93238  0.85654  Biso   1.000  H
  H86      1.0000 0.07952  0.93238  0.14346  Biso   1.000  H
  H87      1.0000 0.92048  0.43238  0.35654  Biso   1.000  H
  H88      1.0000 0.57952  0.43238  0.64346  Biso   1.000  H
  C137     1.0000 0.46690  0.09810  0.23710  Biso   1.000  C
  C138     1.0000 0.03310  0.09810  0.76290  Biso   1.000  C
  C139     1.0000 0.96690  0.59810  0.73710  Biso   1.000  C
  C140     1.0000 0.53310  0.59810  0.26290  Biso   1.000  C
  C141     1.0000 0.53310  0.90190  0.76290  Biso   1.000  C
  C142     1.0000 0.96690  0.90190  0.23710  Biso   1.000  C
  C143     1.0000 0.03310  0.40190  0.26290  Biso   1.000  C
  C144     1.0000 0.46690  0.40190  0.73710  Biso   1.000  C
  H89      1.0000 0.41767  0.10540  0.23444  Biso   1.000  H
  H90      1.0000 0.08233  0.10540  0.76556  Biso   1.000  H
  H91      1.0000 0.91767  0.60540  0.73444  Biso   1.000  H
  H92      1.0000 0.58233  0.60540  0.26556  Biso   1.000  H
  H93      1.0000 0.58233  0.89460  0.76556  Biso   1.000  H
  H94      1.0000 0.91767  0.89460  0.23444  Biso   1.000  H
  H95      1.0000 0.08233  0.39460  0.26556  Biso   1.000  H
  H96      1.0000 0.41767  0.39460  0.73444  Biso   1.000  H
  O49      1.0000 0.28310  0.14840  0.19500  Biso   1.000  O
  O50      1.0000 0.21690  0.14840  0.80500  Biso   1.000  O
  O51      1.0000 0.78310  0.64840  0.69500  Biso   1.000  O
  O52      1.0000 0.71690  0.64840  0.30500  Biso   1.000  O
  O53      1.0000 0.71690  0.85160  0.80500  Biso   1.000  O
  O54      1.0000 0.78310  0.85160  0.19500  Biso   1.000  O
  O55      1.0000 0.21690  0.35160  0.30500  Biso   1.000  O
  O56      1.0000 0.28310  0.35160  0.69500  Biso   1.000  O
  N25      1.0000 0.17120  0.14730  0.21410  Biso   1.000  N
  N26      1.0000 0.32880  0.14730  0.78590  Biso   1.000  N
  N27      1.0000 0.67120  0.64730  0.71410  Biso   1.000  N
  N28      1.0000 0.82880  0.64730  0.28590  Biso   1.000  N
  N29      1.0000 0.82880  0.85270  0.78590  Biso   1.000  N
  N30      1.0000 0.67120  0.85270  0.21410  Biso   1.000  N
  N31      1.0000 0.32880  0.35270  0.28590  Biso   1.000  N
  N32      1.0000 0.17120  0.35270  0.71410  Biso   1.000  N
  C145     1.0000 0.24150  0.14340  0.23610  Biso   1.000  C
  C146     1.0000 0.25850  0.14340  0.76390  Biso   1.000  C
  C147     1.0000 0.74150  0.64340  0.73610  Biso   1.000  C
  C148     1.0000 0.75850  0.64340  0.26390  Biso   1.000  C
  C149     1.0000 0.75850  0.85660  0.76390  Biso   1.000  C
  C150     1.0000 0.74150  0.85660  0.23610  Biso   1.000  C
  C151     1.0000 0.25850  0.35660  0.26390  Biso   1.000  C
  C152     1.0000 0.24150  0.35660  0.73610  Biso   1.000  C
  C153     1.0000 0.27070  0.13410  0.31410  Biso   1.000  C
  C154     1.0000 0.22930  0.13410  0.68590  Biso   1.000  C
  C155     1.0000 0.77070  0.63410  0.81410  Biso   1.000  C
  C156     1.0000 0.72930  0.63410  0.18590  Biso   1.000  C
  C157     1.0000 0.72930  0.86590  0.68590  Biso   1.000  C
  C158     1.0000 0.77070  0.86590  0.31410  Biso   1.000  C
  C159     1.0000 0.22930  0.36590  0.18590  Biso   1.000  C
  C160     1.0000 0.27070  0.36590  0.81410  Biso   1.000  C
  H97      1.0000 0.32171  0.12475  0.32211  Biso   1.000  H
  H98      1.0000 0.17829  0.12475  0.67789  Biso   1.000  H
  H99      1.0000 0.82171  0.62475  0.82211  Biso   1.000  H
  H100     1.0000 0.67829  0.62475  0.17789  Biso   1.000  H
  H101     1.0000 0.67829  0.87525  0.67789  Biso   1.000  H
  H102     1.0000 0.82171  0.87525  0.32211  Biso   1.000  H
  H103     1.0000 0.17829  0.37525  0.17789  Biso   1.000  H
  H104     1.0000 0.32171  0.37525  0.82211  Biso   1.000  H
  H105     1.0000 0.24795  0.08608  0.33198  Biso   1.000  H
  H106     1.0000 0.25205  0.08608  0.66802  Biso   1.000  H
  H107     1.0000 0.74795  0.58608  0.83198  Biso   1.000  H
  H108     1.0000 0.75205  0.58608  0.16802  Biso   1.000  H
  H109     1.0000 0.75205  0.91392  0.66802  Biso   1.000  H
  H110     1.0000 0.74795  0.91392  0.33198  Biso   1.000  H
  H111     1.0000 0.25205  0.41392  0.16802  Biso   1.000  H
  H112     1.0000 0.24795  0.41392  0.83198  Biso   1.000  H
  H113     1.0000 0.26088  0.18561  0.33792  Biso   1.000  H
  H114     1.0000 0.23912  0.18561  0.66208  Biso   1.000  H
  H115     1.0000 0.76088  0.68561  0.83792  Biso   1.000  H
  H116     1.0000 0.73912  0.68561  0.16208  Biso   1.000  H
  H117     1.0000 0.73912  0.81439  0.66208  Biso   1.000  H
  H118     1.0000 0.76088  0.81439  0.33792  Biso   1.000  H
  H119     1.0000 0.23912  0.31439  0.16208  Biso   1.000  H
  H120     1.0000 0.26088  0.31439  0.83792  Biso   1.000  H
  C161     1.0000 0.14030  0.15700  0.13930  Biso   1.000  C
  C162     1.0000 0.35970  0.15700  0.86070  Biso   1.000  C
  C163     1.0000 0.64030  0.65700  0.63930  Biso   1.000  C
  C164     1.0000 0.85970  0.65700  0.36070  Biso   1.000  C
  C165     1.0000 0.85970  0.84300  0.86070  Biso   1.000  C
  C166     1.0000 0.64030  0.84300  0.13930  Biso   1.000  C
  C167     1.0000 0.35970  0.34300  0.36070  Biso   1.000  C
  C168     1.0000 0.14030  0.34300  0.63930  Biso   1.000  C
  H121     1.0000 0.17787  0.15368  0.11267  Biso   1.000  H
  H122     1.0000 0.32213  0.15368  0.88733  Biso   1.000  H
  H123     1.0000 0.67787  0.65368  0.61267  Biso   1.000  H
  H124     1.0000 0.82213  0.65368  0.38733  Biso   1.000  H
  H125     1.0000 0.82213  0.84632  0.88733  Biso   1.000  H
  H126     1.0000 0.67787  0.84632  0.11267  Biso   1.000  H
  H127     1.0000 0.32213  0.34632  0.38733  Biso   1.000  H
  H128     1.0000 0.17787  0.34632  0.61267  Biso   1.000  H
  H129     1.0000 0.11673  0.21183  0.13142  Biso   1.000  H
  H130     1.0000 0.38327  0.21183  0.86858  Biso   1.000  H
  H131     1.0000 0.61673  0.71183  0.63142  Biso   1.000  H
  H132     1.0000 0.88327  0.71183  0.36858  Biso   1.000  H
  H133     1.0000 0.88327  0.78817  0.86858  Biso   1.000  H
  H134     1.0000 0.61673  0.78817  0.13142  Biso   1.000  H
  H135     1.0000 0.38327  0.28817  0.36858  Biso   1.000  H
  H136     1.0000 0.11673  0.28817  0.63142  Biso   1.000  H
  H137     1.0000 0.10592  0.11201  0.12467  Biso   1.000  H
  H138     1.0000 0.39408  0.11201  0.87533  Biso   1.000  H
  H139     1.0000 0.60592  0.61201  0.62467  Biso   1.000  H
  H140     1.0000 0.89408  0.61201  0.37533  Biso   1.000  H
  H141     1.0000 0.89408  0.88799  0.87533  Biso   1.000  H
  H142     1.0000 0.60592  0.88799  0.12467  Biso   1.000  H
  H143     1.0000 0.39408  0.38799  0.37533  Biso   1.000  H
  H144     1.0000 0.10592  0.38799  0.62467  Biso   1.000  H
  C169     1.0000 0.12010  0.15160  0.26200  Biso   1.000  C
  C170     1.0000 0.37990  0.15160  0.73800  Biso   1.000  C
  C171     1.0000 0.62010  0.65160  0.76200  Biso   1.000  C
  C172     1.0000 0.87990  0.65160  0.23800  Biso   1.000  C
  C173     1.0000 0.87990  0.84840  0.73800  Biso   1.000  C
  C174     1.0000 0.62010  0.84840  0.26200  Biso   1.000  C
  C175     1.0000 0.37990  0.34840  0.23800  Biso   1.000  C
  C176     1.0000 0.12010  0.34840  0.76200  Biso   1.000  C
  H145     1.0000 0.09005  0.10134  0.25581  Biso   1.000  H
  H146     1.0000 0.40995  0.10134  0.74419  Biso   1.000  H
  H147     1.0000 0.59005  0.60134  0.75581  Biso   1.000  H
  H148     1.0000 0.90995  0.60134  0.24419  Biso   1.000  H
  H149     1.0000 0.90995  0.89866  0.74419  Biso   1.000  H
  H150     1.0000 0.59005  0.89866  0.25581  Biso   1.000  H
  H151     1.0000 0.40995  0.39866  0.24419  Biso   1.000  H
  H152     1.0000 0.09005  0.39866  0.75581  Biso   1.000  H
  H153     1.0000 0.09068  0.20201  0.25160  Biso   1.000  H
  H154     1.0000 0.40932  0.20201  0.74840  Biso   1.000  H
  H155     1.0000 0.59068  0.70201  0.75160  Biso   1.000  H
  H156     1.0000 0.90932  0.70201  0.24840  Biso   1.000  H
  H157     1.0000 0.90932  0.79799  0.74840  Biso   1.000  H
  H158     1.0000 0.59068  0.79799  0.25160  Biso   1.000  H
  H159     1.0000 0.40932  0.29799  0.24840  Biso   1.000  H
  H160     1.0000 0.09068  0.29799  0.75160  Biso   1.000  H
  H161     1.0000 0.14612  0.15420  0.30978  Biso   1.000  H
  H162     1.0000 0.35388  0.15420  0.69022  Biso   1.000  H
  H163     1.0000 0.64612  0.65420  0.80978  Biso   1.000  H
  H164     1.0000 0.85388  0.65420  0.19022  Biso   1.000  H
  H165     1.0000 0.85388  0.84580  0.69022  Biso   1.000  H
  H166     1.0000 0.64612  0.84580  0.30978  Biso   1.000  H
  H167     1.0000 0.35388  0.34580  0.19022  Biso   1.000  H
  H168     1.0000 0.14612  0.34580  0.80978  Biso   1.000  H
  N33      1.0000 0.39410  0.87300  0.34670  Biso   1.000  N
  N34      1.0000 0.10590  0.87300  0.65330  Biso   1.000  N
  N35      1.0000 0.89410  0.37300  0.84670  Biso   1.000  N
  N36      1.0000 0.60590  0.37300  0.15330  Biso   1.000  N
  N37      1.0000 0.60590  0.12700  0.65330  Biso   1.000  N
  N38      1.0000 0.89410  0.12700  0.34670  Biso   1.000  N
  N39      1.0000 0.10590  0.62700  0.15330  Biso   1.000  N
  N40      1.0000 0.39410  0.62700  0.84670  Biso   1.000  N
  H169     1.0000 0.38229  0.82726  0.36960  Biso   1.000  H
  H170     1.0000 0.11771  0.82726  0.63040  Biso   1.000  H
  H171     1.0000 0.88229  0.32726  0.86960  Biso   1.000  H
  H172     1.0000 0.61771  0.32726  0.13040  Biso   1.000  H
  H173     1.0000 0.61771  0.17274  0.63040  Biso   1.000  H
  H174     1.0000 0.88229  0.17274  0.36960  Biso   1.000  H
  H175     1.0000 0.11771  0.67274  0.13040  Biso   1.000  H
  H176     1.0000 0.38229  0.67274  0.86960  Biso   1.000  H
  H177     1.0000 0.40517  0.91523  0.37798  Biso   1.000  H
  H178     1.0000 0.09483  0.91523  0.62202  Biso   1.000  H
  H179     1.0000 0.90517  0.41523  0.87798  Biso   1.000  H
  H180     1.0000 0.59483  0.41523  0.12202  Biso   1.000  H
  H181     1.0000 0.59483  0.08477  0.62202  Biso   1.000  H
  H182     1.0000 0.90517  0.08477  0.37798  Biso   1.000  H
  H183     1.0000 0.09483  0.58477  0.12202  Biso   1.000  H
  H184     1.0000 0.40517  0.58477  0.87798  Biso   1.000  H
  C177     1.0000 0.32960  0.89850  0.29400  Biso   1.000  C
  C178     1.0000 0.17040  0.89850  0.70600  Biso   1.000  C
  C179     1.0000 0.82960  0.39850  0.79400  Biso   1.000  C
  C180     1.0000 0.67040  0.39850  0.20600  Biso   1.000  C
  C181     1.0000 0.67040  0.10150  0.70600  Biso   1.000  C
  C182     1.0000 0.82960  0.10150  0.29400  Biso   1.000  C
  C183     1.0000 0.17040  0.60150  0.20600  Biso   1.000  C
  C184     1.0000 0.32960  0.60150  0.79400  Biso   1.000  C
  H185     1.0000 0.34141  0.94623  0.26696  Biso   1.000  H
  H186     1.0000 0.15859  0.94623  0.73304  Biso   1.000  H
  H187     1.0000 0.84141  0.44623  0.76696  Biso   1.000  H
  H188     1.0000 0.65859  0.44623  0.23304  Biso   1.000  H
  H189     1.0000 0.65859  0.05377  0.73304  Biso   1.000  H
  H190     1.0000 0.84141  0.05377  0.26696  Biso   1.000  H
  H191     1.0000 0.15859  0.55377  0.23304  Biso   1.000  H
  H192     1.0000 0.34141  0.55377  0.76696  Biso   1.000  H
  H193     1.0000 0.29173  0.91476  0.31774  Biso   1.000  H
  H194     1.0000 0.20827  0.91476  0.68226  Biso   1.000  H
  H195     1.0000 0.79173  0.41476  0.81774  Biso   1.000  H
  H196     1.0000 0.70827  0.41476  0.18226  Biso   1.000  H
  H197     1.0000 0.70827  0.08524  0.68226  Biso   1.000  H
  H198     1.0000 0.79173  0.08524  0.31774  Biso   1.000  H
  H199     1.0000 0.20827  0.58524  0.18226  Biso   1.000  H
  H200     1.0000 0.29173  0.58524  0.81774  Biso   1.000  H
  H201     1.0000 0.31400  0.85089  0.26315  Biso   1.000  H
  H202     1.0000 0.18600  0.85089  0.73685  Biso   1.000  H
  H203     1.0000 0.81400  0.35089  0.76315  Biso   1.000  H
  H204     1.0000 0.68600  0.35089  0.23685  Biso   1.000  H
  H205     1.0000 0.68600  0.14911  0.73685  Biso   1.000  H
  H206     1.0000 0.81400  0.14911  0.26315  Biso   1.000  H
  H207     1.0000 0.18600  0.64911  0.23685  Biso   1.000  H
  H208     1.0000 0.31400  0.64911  0.76315  Biso   1.000  H
  C185     1.0000 0.45900  0.85060  0.31860  Biso   1.000  C
  C186     1.0000 0.04100  0.85060  0.68140  Biso   1.000  C
  C187     1.0000 0.95900  0.35060  0.81860  Biso   1.000  C
  C188     1.0000 0.54100  0.35060  0.18140  Biso   1.000  C
  C189     1.0000 0.54100  0.14940  0.68140  Biso   1.000  C
  C190     1.0000 0.95900  0.14940  0.31860  Biso   1.000  C
  C191     1.0000 0.04100  0.64940  0.18140  Biso   1.000  C
  C192     1.0000 0.45900  0.64940  0.81860  Biso   1.000  C
  H209     1.0000 0.47084  0.89746  0.29062  Biso   1.000  H
  H210     1.0000 0.02916  0.89746  0.70938  Biso   1.000  H
  H211     1.0000 0.97084  0.39746  0.79062  Biso   1.000  H
  H212     1.0000 0.52916  0.39746  0.20938  Biso   1.000  H
  H213     1.0000 0.52916  0.10254  0.70938  Biso   1.000  H
  H214     1.0000 0.97084  0.10254  0.29062  Biso   1.000  H
  H215     1.0000 0.02916  0.60254  0.20938  Biso   1.000  H
  H216     1.0000 0.47084  0.60254  0.79062  Biso   1.000  H
  H217     1.0000 0.44961  0.79997  0.28989  Biso   1.000  H
  H218     1.0000 0.05039  0.79997  0.71011  Biso   1.000  H
  H219     1.0000 0.94961  0.29997  0.78989  Biso   1.000  H
  H220     1.0000 0.55039  0.29997  0.21011  Biso   1.000  H
  H221     1.0000 0.55039  0.20003  0.71011  Biso   1.000  H
  H222     1.0000 0.94961  0.20003  0.28989  Biso   1.000  H
  H223     1.0000 0.05039  0.70003  0.21011  Biso   1.000  H
  H224     1.0000 0.44961  0.70003  0.78989  Biso   1.000  H
  H225     1.0000 0.49849  0.84000  0.35699  Biso   1.000  H
  H226     1.0000 0.00151  0.84000  0.64301  Biso   1.000  H
  H227     1.0000 0.99849  0.34000  0.85699  Biso   1.000  H
  H228     1.0000 0.50151  0.34000  0.14301  Biso   1.000  H
  H229     1.0000 0.50151  0.16000  0.64301  Biso   1.000  H
  H230     1.0000 0.99849  0.16000  0.35699  Biso   1.000  H
  H231     1.0000 0.00151  0.66000  0.14301  Biso   1.000  H
  H232     1.0000 0.49849  0.66000  0.85699  Biso   1.000  H
