data_image0
_cell_length_a       18.971
_cell_length_b       15.5933
_cell_length_c       19.549
_cell_angle_alpha    90
_cell_angle_beta     101.681
_cell_angle_gamma    90

_symmetry_space_group_name_H-M    "P 1"
_symmetry_int_tables_number       1

loop_
  _symmetry_equiv_pos_as_xyz
  'x, y, z'

loop_
  _atom_site_label
  _atom_site_occupancy
  _atom_site_fract_x
  _atom_site_fract_y
  _atom_site_fract_z
  _atom_site_thermal_displace_type
  _atom_site_B_iso_or_equiv
  _atom_site_type_symbol
  Sm1      1.0000 0.75000  0.59227  0.00000  Biso   1.000  Sm
  Sm2      1.0000 0.25000  0.09227  0.50000  Biso   1.000  Sm
  Sm3      1.0000 0.25000  0.40773  0.00000  Biso   1.000  Sm
  Sm4      1.0000 0.75000  0.90773  0.50000  Biso   1.000  Sm
  Br1      1.0000 0.00000  0.00000  0.00000  Biso   1.000  Br
  Br2      1.0000 0.50000  0.00000  0.00000  Biso   1.000  Br
  Br3      1.0000 0.50000  0.50000  0.50000  Biso   1.000  Br
  Br4      1.0000 0.00000  0.50000  0.50000  Biso   1.000  Br
  Cu1      1.0000 0.92304  0.07790  0.07959  Biso   1.000  Cu
  Cu2      1.0000 0.57696  0.07790  0.92041  Biso   1.000  Cu
  Cu3      1.0000 0.42304  0.57790  0.57959  Biso   1.000  Cu
  Cu4      1.0000 0.07696  0.57790  0.42041  Biso   1.000  Cu
  Cu5      1.0000 0.07696  0.92210  0.92041  Biso   1.000  Cu
  Cu6      1.0000 0.42304  0.92210  0.07959  Biso   1.000  Cu
  Cu7      1.0000 0.57696  0.42210  0.42041  Biso   1.000  Cu
  Cu8      1.0000 0.92304  0.42210  0.57959  Biso   1.000  Cu
  O1       1.0000 0.72050  0.70150  0.07050  Biso   1.000  O
  O2       1.0000 0.77950  0.70150  0.92950  Biso   1.000  O
  O3       1.0000 0.22050  0.20150  0.57050  Biso   1.000  O
  O4       1.0000 0.27950  0.20150  0.42950  Biso   1.000  O
  O5       1.0000 0.27950  0.29850  0.92950  Biso   1.000  O
  O6       1.0000 0.22050  0.29850  0.07050  Biso   1.000  O
  O7       1.0000 0.77950  0.79850  0.42950  Biso   1.000  O
  O8       1.0000 0.72050  0.79850  0.57050  Biso   1.000  O
  O9       1.0000 0.83050  0.49560  0.96710  Biso   1.000  O
  O10      1.0000 0.66950  0.49560  0.03290  Biso   1.000  O
  O11      1.0000 0.33050  0.99560  0.46710  Biso   1.000  O
  O12      1.0000 0.16950  0.99560  0.53290  Biso   1.000  O
  O13      1.0000 0.16950  0.50440  0.03290  Biso   1.000  O
  O14      1.0000 0.33050  0.50440  0.96710  Biso   1.000  O
  O15      1.0000 0.66950  0.00440  0.53290  Biso   1.000  O
  O16      1.0000 0.83050  0.00440  0.46710  Biso   1.000  O
  O17      1.0000 0.12250  0.13110  0.42660  Biso   1.000  O
  O18      1.0000 0.37750  0.13110  0.57340  Biso   1.000  O
  O19      1.0000 0.62250  0.63110  0.92660  Biso   1.000  O
  O20      1.0000 0.87750  0.63110  0.07340  Biso   1.000  O
  O21      1.0000 0.87750  0.86890  0.57340  Biso   1.000  O
  O22      1.0000 0.62250  0.86890  0.42660  Biso   1.000  O
  O23      1.0000 0.37750  0.36890  0.07340  Biso   1.000  O
  O24      1.0000 0.12250  0.36890  0.92660  Biso   1.000  O
  O25      1.0000 0.93050  0.48350  0.92570  Biso   1.000  O
  O26      1.0000 0.56950  0.48350  0.07430  Biso   1.000  O
  O27      1.0000 0.43050  0.98350  0.42570  Biso   1.000  O
  O28      1.0000 0.06950  0.98350  0.57430  Biso   1.000  O
  O29      1.0000 0.06950  0.51650  0.07430  Biso   1.000  O
  O30      1.0000 0.43050  0.51650  0.92570  Biso   1.000  O
  O31      1.0000 0.56950  0.01650  0.57430  Biso   1.000  O
  O32      1.0000 0.93050  0.01650  0.42570  Biso   1.000  O
  O33      1.0000 0.64830  0.78810  0.11330  Biso   1.000  O
  O34      1.0000 0.85170  0.78810  0.88670  Biso   1.000  O
  O35      1.0000 0.14830  0.28810  0.61330  Biso   1.000  O
  O36      1.0000 0.35170  0.28810  0.38670  Biso   1.000  O
  O37      1.0000 0.35170  0.21190  0.88670  Biso   1.000  O
  O38      1.0000 0.14830  0.21190  0.11330  Biso   1.000  O
  O39      1.0000 0.85170  0.71190  0.38670  Biso   1.000  O
  O40      1.0000 0.64830  0.71190  0.61330  Biso   1.000  O
  O41      1.0000 0.19270  0.04140  0.38230  Biso   1.000  O
  O42      1.0000 0.30730  0.04140  0.61770  Biso   1.000  O
  O43      1.0000 0.69270  0.54140  0.88230  Biso   1.000  O
  O44      1.0000 0.80730  0.54140  0.11770  Biso   1.000  O
  O45      1.0000 0.80730  0.95860  0.61770  Biso   1.000  O
  O46      1.0000 0.69270  0.95860  0.38230  Biso   1.000  O
  O47      1.0000 0.30730  0.45860  0.11770  Biso   1.000  O
  O48      1.0000 0.19270  0.45860  0.88230  Biso   1.000  O
  N1       1.0000 0.85010  0.98460  0.08480  Biso   1.000  N
  N2       1.0000 0.64990  0.98460  0.91520  Biso   1.000  N
  N3       1.0000 0.35010  0.48460  0.58480  Biso   1.000  N
  N4       1.0000 0.14990  0.48460  0.41520  Biso   1.000  N
  N5       1.0000 0.14990  0.01540  0.91520  Biso   1.000  N
  N6       1.0000 0.35010  0.01540  0.08480  Biso   1.000  N
  N7       1.0000 0.64990  0.51540  0.41520  Biso   1.000  N
  N8       1.0000 0.85010  0.51540  0.58480  Biso   1.000  N
  N9       1.0000 0.98940  0.08470  0.17750  Biso   1.000  N
  N10      1.0000 0.51060  0.08470  0.82250  Biso   1.000  N
  N11      1.0000 0.48940  0.58470  0.67750  Biso   1.000  N
  N12      1.0000 0.01060  0.58470  0.32250  Biso   1.000  N
  N13      1.0000 0.01060  0.91530  0.82250  Biso   1.000  N
  N14      1.0000 0.48940  0.91530  0.17750  Biso   1.000  N
  N15      1.0000 0.51060  0.41530  0.32250  Biso   1.000  N
  N16      1.0000 0.98940  0.41530  0.67750  Biso   1.000  N
  N17      1.0000 0.91410  0.19900  0.04400  Biso   1.000  N
  N18      1.0000 0.58590  0.19900  0.95600  Biso   1.000  N
  N19      1.0000 0.41410  0.69900  0.54400  Biso   1.000  N
  N20      1.0000 0.08590  0.69900  0.45600  Biso   1.000  N
  N21      1.0000 0.08590  0.80100  0.95600  Biso   1.000  N
  N22      1.0000 0.41410  0.80100  0.04400  Biso   1.000  N
  N23      1.0000 0.58590  0.30100  0.45600  Biso   1.000  N
  N24      1.0000 0.91410  0.30100  0.54400  Biso   1.000  N
  C1       1.0000 0.01160  0.10090  0.30090  Biso   1.000  C
  C2       1.0000 0.48840  0.10090  0.69910  Biso   1.000  C
  C3       1.0000 0.51160  0.60090  0.80090  Biso   1.000  C
  C4       1.0000 0.98840  0.60090  0.19910  Biso   1.000  C
  C5       1.0000 0.98840  0.89910  0.69910  Biso   1.000  C
  C6       1.0000 0.51160  0.89910  0.30090  Biso   1.000  C
  C7       1.0000 0.48840  0.39910  0.19910  Biso   1.000  C
  C8       1.0000 0.01160  0.39910  0.80090  Biso   1.000  C
  H1       1.0000 0.99253  0.11125  0.34041  Biso   1.000  H
  H2       1.0000 0.50747  0.11125  0.65959  Biso   1.000  H
  H3       1.0000 0.49253  0.61125  0.84041  Biso   1.000  H
  H4       1.0000 0.00747  0.61125  0.15959  Biso   1.000  H
  H5       1.0000 0.00747  0.88875  0.65959  Biso   1.000  H
  H6       1.0000 0.49253  0.88875  0.34041  Biso   1.000  H
  H7       1.0000 0.50747  0.38875  0.15959  Biso   1.000  H
  H8       1.0000 0.99253  0.38875  0.84041  Biso   1.000  H
  C9       1.0000 0.85040  0.33380  0.02840  Biso   1.000  C
  C10      1.0000 0.64960  0.33380  0.97160  Biso   1.000  C
  C11      1.0000 0.35040  0.83380  0.52840  Biso   1.000  C
  C12      1.0000 0.14960  0.83380  0.47160  Biso   1.000  C
  C13      1.0000 0.14960  0.66620  0.97160  Biso   1.000  C
  C14      1.0000 0.35040  0.66620  0.02840  Biso   1.000  C
  C15      1.0000 0.64960  0.16620  0.47160  Biso   1.000  C
  C16      1.0000 0.85040  0.16620  0.52840  Biso   1.000  C
  H9       1.0000 0.81136  0.36624  0.03555  Biso   1.000  H
  H10      1.0000 0.68864  0.36624  0.96445  Biso   1.000  H
  H11      1.0000 0.31136  0.86624  0.53555  Biso   1.000  H
  H12      1.0000 0.18864  0.86624  0.46445  Biso   1.000  H
  H13      1.0000 0.18864  0.63376  0.96445  Biso   1.000  H
  H14      1.0000 0.31136  0.63376  0.03555  Biso   1.000  H
  H15      1.0000 0.68864  0.13376  0.46445  Biso   1.000  H
  H16      1.0000 0.81136  0.13376  0.53555  Biso   1.000  H
  C17      1.0000 0.85890  0.24970  0.05240  Biso   1.000  C
  C18      1.0000 0.64110  0.24970  0.94760  Biso   1.000  C
  C19      1.0000 0.35890  0.74970  0.55240  Biso   1.000  C
  C20      1.0000 0.14110  0.74970  0.44760  Biso   1.000  C
  C21      1.0000 0.14110  0.75030  0.94760  Biso   1.000  C
  C22      1.0000 0.35890  0.75030  0.05240  Biso   1.000  C
  C23      1.0000 0.64110  0.25030  0.44760  Biso   1.000  C
  C24      1.0000 0.85890  0.25030  0.55240  Biso   1.000  C
  H17      1.0000 0.82464  0.22727  0.07543  Biso   1.000  H
  H18      1.0000 0.67536  0.22727  0.92457  Biso   1.000  H
  H19      1.0000 0.32464  0.72727  0.57543  Biso   1.000  H
  H20      1.0000 0.17536  0.72727  0.42457  Biso   1.000  H
  H21      1.0000 0.17536  0.77273  0.92457  Biso   1.000  H
  H22      1.0000 0.32464  0.77273  0.07543  Biso   1.000  H
  H23      1.0000 0.67536  0.27273  0.42457  Biso   1.000  H
  H24      1.0000 0.82464  0.27273  0.57543  Biso   1.000  H
  C25      1.0000 0.70290  0.77380  0.09040  Biso   1.000  C
  C26      1.0000 0.79710  0.77380  0.90960  Biso   1.000  C
  C27      1.0000 0.20290  0.27380  0.59040  Biso   1.000  C
  C28      1.0000 0.29710  0.27380  0.40960  Biso   1.000  C
  C29      1.0000 0.29710  0.22620  0.90960  Biso   1.000  C
  C30      1.0000 0.20290  0.22620  0.09040  Biso   1.000  C
  C31      1.0000 0.79710  0.72620  0.40960  Biso   1.000  C
  C32      1.0000 0.70290  0.72620  0.59040  Biso   1.000  C
  C33      1.0000 0.06110  0.07470  0.18400  Biso   1.000  C
  C34      1.0000 0.43890  0.07470  0.81600  Biso   1.000  C
  C35      1.0000 0.56110  0.57470  0.68400  Biso   1.000  C
  C36      1.0000 0.93890  0.57470  0.31600  Biso   1.000  C
  C37      1.0000 0.93890  0.92530  0.81600  Biso   1.000  C
  C38      1.0000 0.56110  0.92530  0.18400  Biso   1.000  C
  C39      1.0000 0.43890  0.42530  0.31600  Biso   1.000  C
  C40      1.0000 0.06110  0.42530  0.68400  Biso   1.000  C
  H25      1.0000 0.07926  0.06729  0.14366  Biso   1.000  H
  H26      1.0000 0.42074  0.06729  0.85634  Biso   1.000  H
  H27      1.0000 0.57926  0.56729  0.64366  Biso   1.000  H
  H28      1.0000 0.92074  0.56729  0.35634  Biso   1.000  H
  H29      1.0000 0.92074  0.93271  0.85634  Biso   1.000  H
  H30      1.0000 0.57926  0.93271  0.14366  Biso   1.000  H
  H31      1.0000 0.42074  0.43271  0.35634  Biso   1.000  H
  H32      1.0000 0.07926  0.43271  0.64366  Biso   1.000  H
  C41      1.0000 0.13740  0.08720  0.37760  Biso   1.000  C
  C42      1.0000 0.36260  0.08720  0.62240  Biso   1.000  C
  C43      1.0000 0.63740  0.58720  0.87760  Biso   1.000  C
  C44      1.0000 0.86260  0.58720  0.12240  Biso   1.000  C
  C45      1.0000 0.86260  0.91280  0.62240  Biso   1.000  C
  C46      1.0000 0.63740  0.91280  0.37760  Biso   1.000  C
  C47      1.0000 0.36260  0.41280  0.12240  Biso   1.000  C
  C48      1.0000 0.13740  0.41280  0.87760  Biso   1.000  C
  C49      1.0000 0.88750  0.45710  0.96030  Biso   1.000  C
  C50      1.0000 0.61250  0.45710  0.03970  Biso   1.000  C
  C51      1.0000 0.38750  0.95710  0.46030  Biso   1.000  C
  C52      1.0000 0.11250  0.95710  0.53970  Biso   1.000  C
  C53      1.0000 0.11250  0.54290  0.03970  Biso   1.000  C
  C54      1.0000 0.38750  0.54290  0.96030  Biso   1.000  C
  C55      1.0000 0.61250  0.04290  0.53970  Biso   1.000  C
  C56      1.0000 0.88750  0.04290  0.46030  Biso   1.000  C
  C57      1.0000 0.73330  0.93200  0.08990  Biso   1.000  C
  C58      1.0000 0.76670  0.93200  0.91010  Biso   1.000  C
  C59      1.0000 0.23330  0.43200  0.58990  Biso   1.000  C
  C60      1.0000 0.26670  0.43200  0.41010  Biso   1.000  C
  C61      1.0000 0.26670  0.06800  0.91010  Biso   1.000  C
  C62      1.0000 0.23330  0.06800  0.08990  Biso   1.000  C
  C63      1.0000 0.76670  0.56800  0.41010  Biso   1.000  C
  C64      1.0000 0.73330  0.56800  0.58990  Biso   1.000  C
  H33      1.0000 0.68574  0.94417  0.09202  Biso   1.000  H
  H34      1.0000 0.81426  0.94417  0.90798  Biso   1.000  H
  H35      1.0000 0.18574  0.44417  0.59202  Biso   1.000  H
  H36      1.0000 0.31426  0.44417  0.40798  Biso   1.000  H
  H37      1.0000 0.31426  0.05583  0.90798  Biso   1.000  H
  H38      1.0000 0.18574  0.05583  0.09202  Biso   1.000  H
  H39      1.0000 0.81426  0.55583  0.40798  Biso   1.000  H
  H40      1.0000 0.68574  0.55583  0.59202  Biso   1.000  H
  C65      1.0000 0.87320  0.90200  0.08570  Biso   1.000  C
  C66      1.0000 0.62680  0.90200  0.91430  Biso   1.000  C
  C67      1.0000 0.37320  0.40200  0.58570  Biso   1.000  C
  C68      1.0000 0.12680  0.40200  0.41430  Biso   1.000  C
  C69      1.0000 0.12680  0.09800  0.91430  Biso   1.000  C
  C70      1.0000 0.37320  0.09800  0.08570  Biso   1.000  C
  C71      1.0000 0.62680  0.59800  0.41430  Biso   1.000  C
  C72      1.0000 0.87320  0.59800  0.58570  Biso   1.000  C
  H41      1.0000 0.92118  0.89175  0.08448  Biso   1.000  H
  H42      1.0000 0.57882  0.89175  0.91552  Biso   1.000  H
  H43      1.0000 0.42118  0.39175  0.58448  Biso   1.000  H
  H44      1.0000 0.07882  0.39175  0.41552  Biso   1.000  H
  H45      1.0000 0.07882  0.10825  0.91552  Biso   1.000  H
  H46      1.0000 0.42118  0.10825  0.08448  Biso   1.000  H
  H47      1.0000 0.57882  0.60825  0.41552  Biso   1.000  H
  H48      1.0000 0.92118  0.60825  0.58448  Biso   1.000  H
  C73      1.0000 0.75660  0.84720  0.08990  Biso   1.000  C
  C74      1.0000 0.74340  0.84720  0.91010  Biso   1.000  C
  C75      1.0000 0.25660  0.34720  0.58990  Biso   1.000  C
  C76      1.0000 0.24340  0.34720  0.41010  Biso   1.000  C
  C77      1.0000 0.24340  0.15280  0.91010  Biso   1.000  C
  C78      1.0000 0.25660  0.15280  0.08990  Biso   1.000  C
  C79      1.0000 0.74340  0.65280  0.41010  Biso   1.000  C
  C80      1.0000 0.75660  0.65280  0.58990  Biso   1.000  C
  C81      1.0000 0.96380  0.23540  0.01390  Biso   1.000  C
  C82      1.0000 0.53620  0.23540  0.98610  Biso   1.000  C
  C83      1.0000 0.46380  0.73540  0.51390  Biso   1.000  C
  C84      1.0000 0.03620  0.73540  0.48610  Biso   1.000  C
  C85      1.0000 0.03620  0.76460  0.98610  Biso   1.000  C
  C86      1.0000 0.46380  0.76460  0.01390  Biso   1.000  C
  C87      1.0000 0.53620  0.26460  0.48610  Biso   1.000  C
  C88      1.0000 0.96380  0.26460  0.51390  Biso   1.000  C
  H49      1.0000 0.00391  0.20327  0.00962  Biso   1.000  H
  H50      1.0000 0.49609  0.20327  0.99038  Biso   1.000  H
  H51      1.0000 0.50391  0.70327  0.50962  Biso   1.000  H
  H52      1.0000 0.99609  0.70327  0.49038  Biso   1.000  H
  H53      1.0000 0.99609  0.79673  0.99038  Biso   1.000  H
  H54      1.0000 0.50391  0.79673  0.00962  Biso   1.000  H
  H55      1.0000 0.49609  0.29673  0.49038  Biso   1.000  H
  H56      1.0000 0.00391  0.29673  0.50962  Biso   1.000  H
  C89      1.0000 0.96620  0.09810  0.23560  Biso   1.000  C
  C90      1.0000 0.53380  0.09810  0.76440  Biso   1.000  C
  C91      1.0000 0.46620  0.59810  0.73560  Biso   1.000  C
  C92      1.0000 0.03380  0.59810  0.26440  Biso   1.000  C
  C93      1.0000 0.03380  0.90190  0.76440  Biso   1.000  C
  C94      1.0000 0.46620  0.90190  0.23560  Biso   1.000  C
  C95      1.0000 0.53380  0.40190  0.26440  Biso   1.000  C
  C96      1.0000 0.96620  0.40190  0.73560  Biso   1.000  C
  H57      1.0000 0.91716  0.10596  0.23287  Biso   1.000  H
  H58      1.0000 0.58284  0.10596  0.76713  Biso   1.000  H
  H59      1.0000 0.41716  0.60596  0.73287  Biso   1.000  H
  H60      1.0000 0.08284  0.60596  0.26713  Biso   1.000  H
  H61      1.0000 0.08284  0.89404  0.76713  Biso   1.000  H
  H62      1.0000 0.41716  0.89404  0.23287  Biso   1.000  H
  H63      1.0000 0.58284  0.39404  0.26713  Biso   1.000  H
  H64      1.0000 0.91716  0.39404  0.73287  Biso   1.000  H
  C97      1.0000 0.78140  0.99780  0.08690  Biso   1.000  C
  C98      1.0000 0.71860  0.99780  0.91310  Biso   1.000  C
  C99      1.0000 0.28140  0.49780  0.58690  Biso   1.000  C
  C100     1.0000 0.21860  0.49780  0.41310  Biso   1.000  C
  C101     1.0000 0.21860  0.00220  0.91310  Biso   1.000  C
  C102     1.0000 0.28140  0.00220  0.08690  Biso   1.000  C
  C103     1.0000 0.71860  0.50220  0.41310  Biso   1.000  C
  C104     1.0000 0.78140  0.50220  0.58690  Biso   1.000  C
  H65      1.0000 0.76486  0.05404  0.08629  Biso   1.000  H
  H66      1.0000 0.73514  0.05404  0.91371  Biso   1.000  H
  H67      1.0000 0.26486  0.55404  0.58629  Biso   1.000  H
  H68      1.0000 0.23514  0.55404  0.41371  Biso   1.000  H
  H69      1.0000 0.23514  0.94596  0.91371  Biso   1.000  H
  H70      1.0000 0.26486  0.94596  0.08629  Biso   1.000  H
  H71      1.0000 0.73514  0.44596  0.41371  Biso   1.000  H
  H72      1.0000 0.76486  0.44596  0.58629  Biso   1.000  H
  C105     1.0000 0.95850  0.31910  0.98860  Biso   1.000  C
  C106     1.0000 0.54150  0.31910  0.01140  Biso   1.000  C
  C107     1.0000 0.45850  0.81910  0.48860  Biso   1.000  C
  C108     1.0000 0.04150  0.81910  0.51140  Biso   1.000  C
  C109     1.0000 0.04150  0.68090  0.01140  Biso   1.000  C
  C110     1.0000 0.45850  0.68090  0.98860  Biso   1.000  C
  C111     1.0000 0.54150  0.18090  0.51140  Biso   1.000  C
  C112     1.0000 0.95850  0.18090  0.48860  Biso   1.000  C
  H73      1.0000 0.99459  0.34139  0.96788  Biso   1.000  H
  H74      1.0000 0.50541  0.34139  0.03212  Biso   1.000  H
  H75      1.0000 0.49459  0.84139  0.46788  Biso   1.000  H
  H76      1.0000 0.00541  0.84139  0.53212  Biso   1.000  H
  H77      1.0000 0.00541  0.65861  0.03212  Biso   1.000  H
  H78      1.0000 0.49459  0.65861  0.96788  Biso   1.000  H
  H79      1.0000 0.50541  0.15861  0.53212  Biso   1.000  H
  H80      1.0000 0.99459  0.15861  0.46788  Biso   1.000  H
  C113     1.0000 0.90020  0.36890  0.99400  Biso   1.000  C
  C114     1.0000 0.59980  0.36890  0.00600  Biso   1.000  C
  C115     1.0000 0.40020  0.86890  0.49400  Biso   1.000  C
  C116     1.0000 0.09980  0.86890  0.50600  Biso   1.000  C
  C117     1.0000 0.09980  0.63110  0.00600  Biso   1.000  C
  C118     1.0000 0.40020  0.63110  0.99400  Biso   1.000  C
  C119     1.0000 0.59980  0.13110  0.50600  Biso   1.000  C
  C120     1.0000 0.90020  0.13110  0.49400  Biso   1.000  C
  C121     1.0000 0.10870  0.07490  0.24730  Biso   1.000  C
  C122     1.0000 0.39130  0.07490  0.75270  Biso   1.000  C
  C123     1.0000 0.60870  0.57490  0.74730  Biso   1.000  C
  C124     1.0000 0.89130  0.57490  0.25270  Biso   1.000  C
  C125     1.0000 0.89130  0.92510  0.75270  Biso   1.000  C
  C126     1.0000 0.60870  0.92510  0.24730  Biso   1.000  C
  C127     1.0000 0.39130  0.42510  0.25270  Biso   1.000  C
  C128     1.0000 0.10870  0.42510  0.74730  Biso   1.000  C
  H81      1.0000 0.15745  0.06576  0.24914  Biso   1.000  H
  H82      1.0000 0.34255  0.06576  0.75086  Biso   1.000  H
  H83      1.0000 0.65745  0.56576  0.74914  Biso   1.000  H
  H84      1.0000 0.84255  0.56576  0.25086  Biso   1.000  H
  H85      1.0000 0.84255  0.93424  0.75086  Biso   1.000  H
  H86      1.0000 0.65745  0.93424  0.24914  Biso   1.000  H
  H87      1.0000 0.34255  0.43424  0.25086  Biso   1.000  H
  H88      1.0000 0.15745  0.43424  0.74914  Biso   1.000  H
  C129     1.0000 0.08390  0.08870  0.30780  Biso   1.000  C
  C130     1.0000 0.41610  0.08870  0.69220  Biso   1.000  C
  C131     1.0000 0.58390  0.58870  0.80780  Biso   1.000  C
  C132     1.0000 0.91610  0.58870  0.19220  Biso   1.000  C
  C133     1.0000 0.91610  0.91130  0.69220  Biso   1.000  C
  C134     1.0000 0.58390  0.91130  0.30780  Biso   1.000  C
  C135     1.0000 0.41610  0.41130  0.19220  Biso   1.000  C
  C136     1.0000 0.08390  0.41130  0.80780  Biso   1.000  C
  C137     1.0000 0.82890  0.83330  0.08820  Biso   1.000  C
  C138     1.0000 0.67110  0.83330  0.91180  Biso   1.000  C
  C139     1.0000 0.32890  0.33330  0.58820  Biso   1.000  C
  C140     1.0000 0.17110  0.33330  0.41180  Biso   1.000  C
  C141     1.0000 0.17110  0.16670  0.91180  Biso   1.000  C
  C142     1.0000 0.32890  0.16670  0.08820  Biso   1.000  C
  C143     1.0000 0.67110  0.66670  0.41180  Biso   1.000  C
  C144     1.0000 0.82890  0.66670  0.58820  Biso   1.000  C
  H89      1.0000 0.84689  0.77779  0.08885  Biso   1.000  H
  H90      1.0000 0.65311  0.77779  0.91115  Biso   1.000  H
  H91      1.0000 0.34689  0.27779  0.58885  Biso   1.000  H
  H92      1.0000 0.15311  0.27779  0.41115  Biso   1.000  H
  H93      1.0000 0.15311  0.22221  0.91115  Biso   1.000  H
  H94      1.0000 0.34689  0.22221  0.08885  Biso   1.000  H
  H95      1.0000 0.65311  0.72221  0.41115  Biso   1.000  H
  H96      1.0000 0.84689  0.72221  0.58885  Biso   1.000  H
  O49      1.0000 0.78330  0.14870  0.19490  Biso   1.000  O
  O50      1.0000 0.71670  0.14870  0.80510  Biso   1.000  O
  O51      1.0000 0.28330  0.64870  0.69490  Biso   1.000  O
  O52      1.0000 0.21670  0.64870  0.30510  Biso   1.000  O
  O53      1.0000 0.21670  0.85130  0.80510  Biso   1.000  O
  O54      1.0000 0.28330  0.85130  0.19490  Biso   1.000  O
  O55      1.0000 0.71670  0.35130  0.30510  Biso   1.000  O
  O56      1.0000 0.78330  0.35130  0.69490  Biso   1.000  O
  N25      1.0000 0.67130  0.14720  0.21510  Biso   1.000  N
  N26      1.0000 0.82870  0.14720  0.78490  Biso   1.000  N
  N27      1.0000 0.17130  0.64720  0.71510  Biso   1.000  N
  N28      1.0000 0.32870  0.64720  0.28490  Biso   1.000  N
  N29      1.0000 0.32870  0.85280  0.78490  Biso   1.000  N
  N30      1.0000 0.17130  0.85280  0.21510  Biso   1.000  N
  N31      1.0000 0.82870  0.35280  0.28490  Biso   1.000  N
  N32      1.0000 0.67130  0.35280  0.71510  Biso   1.000  N
  C145     1.0000 0.64000  0.15750  0.13960  Biso   1.000  C
  C146     1.0000 0.86000  0.15750  0.86040  Biso   1.000  C
  C147     1.0000 0.14000  0.65750  0.63960  Biso   1.000  C
  C148     1.0000 0.36000  0.65750  0.36040  Biso   1.000  C
  C149     1.0000 0.36000  0.84250  0.86040  Biso   1.000  C
  C150     1.0000 0.14000  0.84250  0.13960  Biso   1.000  C
  C151     1.0000 0.86000  0.34250  0.36040  Biso   1.000  C
  C152     1.0000 0.64000  0.34250  0.63960  Biso   1.000  C
  H97      1.0000 0.62155  0.10334  0.12052  Biso   1.000  H
  H98      1.0000 0.87845  0.10334  0.87948  Biso   1.000  H
  H99      1.0000 0.12155  0.60334  0.62052  Biso   1.000  H
  H100     1.0000 0.37845  0.60334  0.37948  Biso   1.000  H
  H101     1.0000 0.37845  0.89666  0.87948  Biso   1.000  H
  H102     1.0000 0.12155  0.89666  0.12052  Biso   1.000  H
  H103     1.0000 0.87845  0.39666  0.37948  Biso   1.000  H
  H104     1.0000 0.62155  0.39666  0.62052  Biso   1.000  H
  H105     1.0000 0.67655  0.17707  0.11583  Biso   1.000  H
  H106     1.0000 0.82345  0.17707  0.88417  Biso   1.000  H
  H107     1.0000 0.17655  0.67707  0.61583  Biso   1.000  H
  H108     1.0000 0.32345  0.67707  0.38417  Biso   1.000  H
  H109     1.0000 0.32345  0.82293  0.88417  Biso   1.000  H
  H110     1.0000 0.17655  0.82293  0.11583  Biso   1.000  H
  H111     1.0000 0.82345  0.32293  0.38417  Biso   1.000  H
  H112     1.0000 0.67655  0.32293  0.61583  Biso   1.000  H
  H113     1.0000 0.60161  0.19865  0.13369  Biso   1.000  H
  H114     1.0000 0.89839  0.19865  0.86631  Biso   1.000  H
  H115     1.0000 0.10161  0.69865  0.63369  Biso   1.000  H
  H116     1.0000 0.39839  0.69865  0.36631  Biso   1.000  H
  H117     1.0000 0.39839  0.80135  0.86631  Biso   1.000  H
  H118     1.0000 0.10161  0.80135  0.13369  Biso   1.000  H
  H119     1.0000 0.89839  0.30135  0.36631  Biso   1.000  H
  H120     1.0000 0.60161  0.30135  0.63369  Biso   1.000  H
  C153     1.0000 0.62060  0.15330  0.26220  Biso   1.000  C
  C154     1.0000 0.87940  0.15330  0.73780  Biso   1.000  C
  C155     1.0000 0.12060  0.65330  0.76220  Biso   1.000  C
  C156     1.0000 0.37940  0.65330  0.23780  Biso   1.000  C
  C157     1.0000 0.37940  0.84670  0.73780  Biso   1.000  C
  C158     1.0000 0.12060  0.84670  0.26220  Biso   1.000  C
  C159     1.0000 0.87940  0.34670  0.23780  Biso   1.000  C
  C160     1.0000 0.62060  0.34670  0.76220  Biso   1.000  C
  H121     1.0000 0.57349  0.13649  0.23776  Biso   1.000  H
  H122     1.0000 0.92651  0.13649  0.76224  Biso   1.000  H
  H123     1.0000 0.07349  0.63649  0.73776  Biso   1.000  H
  H124     1.0000 0.42651  0.63649  0.26224  Biso   1.000  H
  H125     1.0000 0.42651  0.86351  0.76224  Biso   1.000  H
  H126     1.0000 0.07349  0.86351  0.23776  Biso   1.000  H
  H127     1.0000 0.92651  0.36351  0.26224  Biso   1.000  H
  H128     1.0000 0.57349  0.36351  0.73776  Biso   1.000  H
  H129     1.0000 0.61905  0.21129  0.27828  Biso   1.000  H
  H130     1.0000 0.88095  0.21129  0.72172  Biso   1.000  H
  H131     1.0000 0.11905  0.71129  0.77828  Biso   1.000  H
  H132     1.0000 0.38095  0.71129  0.22172  Biso   1.000  H
  H133     1.0000 0.38095  0.78871  0.72172  Biso   1.000  H
  H134     1.0000 0.11905  0.78871  0.27828  Biso   1.000  H
  H135     1.0000 0.88095  0.28871  0.22172  Biso   1.000  H
  H136     1.0000 0.61905  0.28871  0.77828  Biso   1.000  H
  H137     1.0000 0.63584  0.11598  0.30150  Biso   1.000  H
  H138     1.0000 0.86416  0.11598  0.69850  Biso   1.000  H
  H139     1.0000 0.13584  0.61598  0.80150  Biso   1.000  H
  H140     1.0000 0.36416  0.61598  0.19850  Biso   1.000  H
  H141     1.0000 0.36416  0.88402  0.69850  Biso   1.000  H
  H142     1.0000 0.13584  0.88402  0.30150  Biso   1.000  H
  H143     1.0000 0.86416  0.38402  0.19850  Biso   1.000  H
  H144     1.0000 0.63584  0.38402  0.80150  Biso   1.000  H
  C161     1.0000 0.74180  0.14360  0.23640  Biso   1.000  C
  C162     1.0000 0.75820  0.14360  0.76360  Biso   1.000  C
  C163     1.0000 0.24180  0.64360  0.73640  Biso   1.000  C
  C164     1.0000 0.25820  0.64360  0.26360  Biso   1.000  C
  C165     1.0000 0.25820  0.85640  0.76360  Biso   1.000  C
  C166     1.0000 0.24180  0.85640  0.23640  Biso   1.000  C
  C167     1.0000 0.75820  0.35640  0.26360  Biso   1.000  C
  C168     1.0000 0.74180  0.35640  0.73640  Biso   1.000  C
  C169     1.0000 0.76970  0.13400  0.31490  Biso   1.000  C
  C170     1.0000 0.73030  0.13400  0.68510  Biso   1.000  C
  C171     1.0000 0.26970  0.63400  0.81490  Biso   1.000  C
  C172     1.0000 0.23030  0.63400  0.18510  Biso   1.000  C
  C173     1.0000 0.23030  0.86600  0.68510  Biso   1.000  C
  C174     1.0000 0.26970  0.86600  0.31490  Biso   1.000  C
  C175     1.0000 0.73030  0.36600  0.18510  Biso   1.000  C
  C176     1.0000 0.76970  0.36600  0.81490  Biso   1.000  C
  H145     1.0000 0.82082  0.12502  0.32404  Biso   1.000  H
  H146     1.0000 0.67918  0.12502  0.67596  Biso   1.000  H
  H147     1.0000 0.32082  0.62502  0.82404  Biso   1.000  H
  H148     1.0000 0.17918  0.62502  0.17596  Biso   1.000  H
  H149     1.0000 0.17918  0.87498  0.67596  Biso   1.000  H
  H150     1.0000 0.32082  0.87498  0.32404  Biso   1.000  H
  H151     1.0000 0.67918  0.37498  0.17596  Biso   1.000  H
  H152     1.0000 0.82082  0.37498  0.82404  Biso   1.000  H
  H153     1.0000 0.74676  0.08574  0.33175  Biso   1.000  H
  H154     1.0000 0.75324  0.08574  0.66825  Biso   1.000  H
  H155     1.0000 0.24676  0.58574  0.83175  Biso   1.000  H
  H156     1.0000 0.25324  0.58574  0.16825  Biso   1.000  H
  H157     1.0000 0.25324  0.91426  0.66825  Biso   1.000  H
  H158     1.0000 0.24676  0.91426  0.33175  Biso   1.000  H
  H159     1.0000 0.75324  0.41426  0.16825  Biso   1.000  H
  H160     1.0000 0.74676  0.41426  0.83175  Biso   1.000  H
  H161     1.0000 0.75908  0.18507  0.33823  Biso   1.000  H
  H162     1.0000 0.74092  0.18507  0.66177  Biso   1.000  H
  H163     1.0000 0.25908  0.68507  0.83823  Biso   1.000  H
  H164     1.0000 0.24092  0.68507  0.16177  Biso   1.000  H
  H165     1.0000 0.24092  0.81493  0.66177  Biso   1.000  H
  H166     1.0000 0.25908  0.81493  0.33823  Biso   1.000  H
  H167     1.0000 0.74092  0.31493  0.16177  Biso   1.000  H
  H168     1.0000 0.75908  0.31493  0.83823  Biso   1.000  H
  N33      1.0000 0.10680  0.37260  0.15360  Biso   1.000  N
  N34      1.0000 0.39320  0.37260  0.84640  Biso   1.000  N
  N35      1.0000 0.60680  0.87260  0.65360  Biso   1.000  N
  N36      1.0000 0.89320  0.87260  0.34640  Biso   1.000  N
  N37      1.0000 0.89320  0.62740  0.84640  Biso   1.000  N
  N38      1.0000 0.60680  0.62740  0.15360  Biso   1.000  N
  N39      1.0000 0.39320  0.12740  0.34640  Biso   1.000  N
  N40      1.0000 0.10680  0.12740  0.65360  Biso   1.000  N
  H169     1.0000 0.11825  0.32712  0.13059  Biso   1.000  H
  H170     1.0000 0.38175  0.32712  0.86941  Biso   1.000  H
  H171     1.0000 0.61825  0.82712  0.63059  Biso   1.000  H
  H172     1.0000 0.88175  0.82712  0.36941  Biso   1.000  H
  H173     1.0000 0.88175  0.67288  0.86941  Biso   1.000  H
  H174     1.0000 0.61825  0.67288  0.13059  Biso   1.000  H
  H175     1.0000 0.38175  0.17288  0.36941  Biso   1.000  H
  H176     1.0000 0.11825  0.17288  0.63059  Biso   1.000  H
  H177     1.0000 0.09545  0.41513  0.12303  Biso   1.000  H
  H178     1.0000 0.40455  0.41513  0.87697  Biso   1.000  H
  H179     1.0000 0.59545  0.91513  0.62303  Biso   1.000  H
  H180     1.0000 0.90455  0.91513  0.37697  Biso   1.000  H
  H181     1.0000 0.90455  0.58487  0.87697  Biso   1.000  H
  H182     1.0000 0.59545  0.58487  0.12303  Biso   1.000  H
  H183     1.0000 0.40455  0.08487  0.37697  Biso   1.000  H
  H184     1.0000 0.09545  0.08487  0.62303  Biso   1.000  H
  C177     1.0000 0.17020  0.39810  0.20680  Biso   1.000  C
  C178     1.0000 0.32980  0.39810  0.79320  Biso   1.000  C
  C179     1.0000 0.67020  0.89810  0.70680  Biso   1.000  C
  C180     1.0000 0.82980  0.89810  0.29320  Biso   1.000  C
  C181     1.0000 0.82980  0.60190  0.79320  Biso   1.000  C
  C182     1.0000 0.67020  0.60190  0.20680  Biso   1.000  C
  C183     1.0000 0.32980  0.10190  0.29320  Biso   1.000  C
  C184     1.0000 0.17020  0.10190  0.70680  Biso   1.000  C
  H185     1.0000 0.20893  0.41327  0.18426  Biso   1.000  H
  H186     1.0000 0.29107  0.41327  0.81574  Biso   1.000  H
  H187     1.0000 0.70893  0.91327  0.68426  Biso   1.000  H
  H188     1.0000 0.79107  0.91327  0.31574  Biso   1.000  H
  H189     1.0000 0.79107  0.58673  0.81574  Biso   1.000  H
  H190     1.0000 0.70893  0.58673  0.18426  Biso   1.000  H
  H191     1.0000 0.29107  0.08673  0.31574  Biso   1.000  H
  H192     1.0000 0.20893  0.08673  0.68426  Biso   1.000  H
  H193     1.0000 0.18477  0.35118  0.23826  Biso   1.000  H
  H194     1.0000 0.31523  0.35118  0.76174  Biso   1.000  H
  H195     1.0000 0.68477  0.85118  0.73826  Biso   1.000  H
  H196     1.0000 0.81523  0.85118  0.26174  Biso   1.000  H
  H197     1.0000 0.81523  0.64882  0.76174  Biso   1.000  H
  H198     1.0000 0.68477  0.64882  0.23826  Biso   1.000  H
  H199     1.0000 0.31523  0.14882  0.26174  Biso   1.000  H
  H200     1.0000 0.18477  0.14882  0.73826  Biso   1.000  H
  H201     1.0000 0.15806  0.44655  0.23249  Biso   1.000  H
  H202     1.0000 0.34194  0.44655  0.76751  Biso   1.000  H
  H203     1.0000 0.65806  0.94655  0.73249  Biso   1.000  H
  H204     1.0000 0.84194  0.94655  0.26751  Biso   1.000  H
  H205     1.0000 0.84194  0.55345  0.76751  Biso   1.000  H
  H206     1.0000 0.65806  0.55345  0.23249  Biso   1.000  H
  H207     1.0000 0.34194  0.05345  0.26751  Biso   1.000  H
  H208     1.0000 0.15806  0.05345  0.73249  Biso   1.000  H
  C185     1.0000 0.04300  0.35140  0.18320  Biso   1.000  C
  C186     1.0000 0.45700  0.35140  0.81680  Biso   1.000  C
  C187     1.0000 0.54300  0.85140  0.68320  Biso   1.000  C
  C188     1.0000 0.95700  0.85140  0.31680  Biso   1.000  C
  C189     1.0000 0.95700  0.64860  0.81680  Biso   1.000  C
  C190     1.0000 0.54300  0.64860  0.18320  Biso   1.000  C
  C191     1.0000 0.45700  0.14860  0.31680  Biso   1.000  C
  C192     1.0000 0.04300  0.14860  0.68320  Biso   1.000  C
  H209     1.0000 0.00496  0.33126  0.14673  Biso   1.000  H
  H210     1.0000 0.49504  0.33126  0.85327  Biso   1.000  H
  H211     1.0000 0.50496  0.83126  0.64673  Biso   1.000  H
  H212     1.0000 0.99504  0.83126  0.35327  Biso   1.000  H
  H213     1.0000 0.99504  0.66874  0.85327  Biso   1.000  H
  H214     1.0000 0.50496  0.66874  0.14673  Biso   1.000  H
  H215     1.0000 0.49504  0.16874  0.35327  Biso   1.000  H
  H216     1.0000 0.00496  0.16874  0.64673  Biso   1.000  H
  H217     1.0000 0.02733  0.40178  0.20417  Biso   1.000  H
  H218     1.0000 0.47267  0.40178  0.79583  Biso   1.000  H
  H219     1.0000 0.52733  0.90178  0.70417  Biso   1.000  H
  H220     1.0000 0.97267  0.90178  0.29583  Biso   1.000  H
  H221     1.0000 0.97267  0.59822  0.79583  Biso   1.000  H
  H222     1.0000 0.52733  0.59822  0.20417  Biso   1.000  H
  H223     1.0000 0.47267  0.09822  0.29583  Biso   1.000  H
  H224     1.0000 0.02733  0.09822  0.70417  Biso   1.000  H
  H225     1.0000 0.05545  0.30758  0.21806  Biso   1.000  H
  H226     1.0000 0.44455  0.30758  0.78194  Biso   1.000  H
  H227     1.0000 0.55545  0.80758  0.71806  Biso   1.000  H
  H228     1.0000 0.94455  0.80758  0.28194  Biso   1.000  H
  H229     1.0000 0.94455  0.69242  0.78194  Biso   1.000  H
  H230     1.0000 0.55545  0.69242  0.21806  Biso   1.000  H
  H231     1.0000 0.44455  0.19242  0.28194  Biso   1.000  H
  H232     1.0000 0.05545  0.19242  0.71806  Biso   1.000  H
