data_image0
_cell_length_a       14.285
_cell_length_b       16.578
_cell_length_c       17.357
_cell_angle_alpha    95.26
_cell_angle_beta     105.9
_cell_angle_gamma    98.58

_symmetry_space_group_name_H-M    "P 1"
_symmetry_int_tables_number       1

loop_
  _symmetry_equiv_pos_as_xyz
  'x, y, z'

loop_
  _atom_site_label
  _atom_site_occupancy
  _atom_site_fract_x
  _atom_site_fract_y
  _atom_site_fract_z
  _atom_site_thermal_displace_type
  _atom_site_B_iso_or_equiv
  _atom_site_type_symbol
  Si1      1.0000 0.00000  0.50000  0.00000  Biso   1.000  Si
  W1       1.0000 0.14461  0.46326  0.87026  Biso   1.000  W
  W2       1.0000 0.85539  0.53674  0.12974  Biso   1.000  W
  W3       1.0000 0.92318  0.32523  0.84992  Biso   1.000  W
  W4       1.0000 0.07682  0.67477  0.15008  Biso   1.000  W
  W5       1.0000 0.91497  0.52404  0.79486  Biso   1.000  W
  W6       1.0000 0.08503  0.47596  0.20514  Biso   1.000  W
  W7       1.0000 0.23449  0.44656  0.07759  Biso   1.000  W
  W8       1.0000 0.76551  0.55344  0.92241  Biso   1.000  W
  W9       1.0000 0.01734  0.30139  0.05450  Biso   1.000  W
  W10      1.0000 0.98266  0.69861  0.94550  Biso   1.000  W
  W11      1.0000 0.78285  0.35811  0.98549  Biso   1.000  W
  W12      1.0000 0.21715  0.64189  0.01451  Biso   1.000  W
  O1       1.0000 0.87340  0.53830  0.69730  Biso   1.000  O
  O2       1.0000 0.12660  0.46170  0.30270  Biso   1.000  O
  O3       1.0000 0.88120  0.40870  0.78840  Biso   1.000  O
  O4       1.0000 0.11880  0.59130  0.21160  Biso   1.000  O
  O5       1.0000 0.05490  0.36580  0.84670  Biso   1.000  O
  O6       1.0000 0.94510  0.63420  0.15330  Biso   1.000  O
  O7       1.0000 0.21390  0.44670  0.80780  Biso   1.000  O
  O8       1.0000 0.78610  0.55330  0.19220  Biso   1.000  O
  O9       1.0000 0.04600  0.51400  0.80470  Biso   1.000  O
  O10      1.0000 0.95400  0.48600  0.19530  Biso   1.000  O
  O11      1.0000 0.79910  0.52830  0.82750  Biso   1.000  O
  O12      1.0000 0.20090  0.47170  0.17250  Biso   1.000  O
  O13      1.0000 0.81380  0.32300  0.88890  Biso   1.000  O
  O14      1.0000 0.18620  0.67700  0.11110  Biso   1.000  O
  O15      1.0000 0.98720  0.27890  0.94160  Biso   1.000  O
  O16      1.0000 0.01280  0.72110  0.05840  Biso   1.000  O
  O17      1.0000 0.21670  0.42610  0.96260  Biso   1.000  O
  O18      1.0000 0.78330  0.57390  0.03740  Biso   1.000  O
  O19      1.0000 0.72970  0.44170  0.92780  Biso   1.000  O
  O20      1.0000 0.27030  0.55830  0.07220  Biso   1.000  O
  O21      1.0000 0.67980  0.29070  0.97690  Biso   1.000  O
  O22      1.0000 0.32020  0.70930  0.02310  Biso   1.000  O
  O23      1.0000 0.88010  0.30140  0.04130  Biso   1.000  O
  O24      1.0000 0.11990  0.69860  0.95870  Biso   1.000  O
  O25      1.0000 0.04020  0.36900  0.15780  Biso   1.000  O
  O26      1.0000 0.95980  0.63100  0.84220  Biso   1.000  O
  O27      1.0000 0.02480  0.20700  0.07990  Biso   1.000  O
  O28      1.0000 0.97520  0.79300  0.92010  Biso   1.000  O
  O29      1.0000 0.34550  0.41990  0.11300  Biso   1.000  O
  O30      1.0000 0.65450  0.58010  0.88700  Biso   1.000  O
  O31      1.0000 0.15050  0.34320  0.06170  Biso   1.000  O
  O32      1.0000 0.84950  0.65680  0.93830  Biso   1.000  O
  O33      1.0000 0.88710  0.24200  0.77880  Biso   1.000  O
  O34      1.0000 0.11290  0.75800  0.22120  Biso   1.000  O
  O35      1.0000 0.79510  0.42820  0.08170  Biso   1.000  O
  O36      1.0000 0.20490  0.57180  0.91830  Biso   1.000  O
  O37      1.0000 0.06510  0.44620  0.06100  Biso   1.000  O
  O38      1.0000 0.93490  0.55380  0.93900  Biso   1.000  O
  O39      1.0000 0.88600  0.48780  0.00570  Biso   1.000  O
  O40      1.0000 0.11400  0.51220  0.99430  Biso   1.000  O
  O41      1.0000 0.99540  0.46500  0.90650  Biso   1.000  O
  O42      1.0000 0.00460  0.53500  0.09350  Biso   1.000  O
  O43      1.0000 0.04560  0.59360  0.01890  Biso   1.000  O
  O44      1.0000 0.95440  0.40640  0.98110  Biso   1.000  O
  Cu1      1.0000 0.45569  0.98202  0.91026  Biso   1.000  Cu
  Cu2      1.0000 0.54431  0.01798  0.08974  Biso   1.000  Cu
  Cu3      1.0000 0.46700  0.57948  0.52591  Biso   1.000  Cu
  Cu4      1.0000 0.53300  0.42052  0.47409  Biso   1.000  Cu
  C1       1.0000 0.85480  0.05790  0.53190  Biso   1.000  C
  C2       1.0000 0.14520  0.94210  0.46810  Biso   1.000  C
  H1       1.0000 0.80640  0.02910  0.48630  Biso   1.000  H
  H2       1.0000 0.19360  0.97090  0.51370  Biso   1.000  H
  C3       1.0000 0.91140  0.12720  0.52230  Biso   1.000  C
  C4       1.0000 0.08860  0.87280  0.47770  Biso   1.000  C
  C5       1.0000 0.98260  0.17050  0.59120  Biso   1.000  C
  C6       1.0000 0.01740  0.82950  0.40880  Biso   1.000  C
  C7       1.0000 0.99410  0.14320  0.66620  Biso   1.000  C
  C8       1.0000 0.00590  0.85680  0.33380  Biso   1.000  C
  H3       1.0000 0.04100  0.17300  0.71210  Biso   1.000  H
  H4       1.0000 0.95900  0.82700  0.28790  Biso   1.000  H
  C9       1.0000 0.93530  0.07170  0.67150  Biso   1.000  C
  C10      1.0000 0.06470  0.92830  0.32850  Biso   1.000  C
  C11      1.0000 0.86290  0.02690  0.60330  Biso   1.000  C
  C12      1.0000 0.13710  0.97310  0.39670  Biso   1.000  C
  C13      1.0000 0.80570  0.94300  0.61180  Biso   1.000  C
  C14      1.0000 0.19430  0.05700  0.38820  Biso   1.000  C
  H5       1.0000 0.79130  0.95080  0.66370  Biso   1.000  H
  H6       1.0000 0.20870  0.04920  0.33630  Biso   1.000  H
  C15      1.0000 0.87800  0.88110  0.62080  Biso   1.000  C
  C16      1.0000 0.12200  0.11890  0.37920  Biso   1.000  C
  C17      1.0000 0.87560  0.82460  0.67660  Biso   1.000  C
  C18      1.0000 0.12440  0.17540  0.32340  Biso   1.000  C
  C19      1.0000 0.94490  0.77440  0.69250  Biso   1.000  C
  C20      1.0000 0.05510  0.22560  0.30750  Biso   1.000  C
  H7       1.0000 0.94370  0.73780  0.73000  Biso   1.000  H
  H8       1.0000 0.05630  0.26220  0.27000  Biso   1.000  H
  C21      1.0000 0.01700  0.77850  0.65230  Biso   1.000  C
  C22      1.0000 0.98300  0.22150  0.34770  Biso   1.000  C
  C23      1.0000 0.01850  0.83130  0.59440  Biso   1.000  C
  C24      1.0000 0.98150  0.16870  0.40560  Biso   1.000  C
  C25      1.0000 0.94970  0.88220  0.58310  Biso   1.000  C
  C26      1.0000 0.05030  0.11780  0.41690  Biso   1.000  C
  H9       1.0000 0.95240  0.92000  0.54700  Biso   1.000  H
  H10      1.0000 0.04760  0.08000  0.45300  Biso   1.000  H
  C27      1.0000 0.12380  0.70830  0.74650  Biso   1.000  C
  C28      1.0000 0.87620  0.29170  0.25350  Biso   1.000  C
  H11      1.0000 0.07550  0.66420  0.75380  Biso   1.000  H
  H12      1.0000 0.92450  0.33580  0.24620  Biso   1.000  H
  H13      1.0000 0.13440  0.75450  0.78840  Biso   1.000  H
  H14      1.0000 0.86560  0.24550  0.21160  Biso   1.000  H
  C29      1.0000 0.21820  0.67990  0.74880  Biso   1.000  C
  C30      1.0000 0.78180  0.32010  0.25120  Biso   1.000  C
  H15      1.0000 0.24910  0.66840  0.80280  Biso   1.000  H
  H16      1.0000 0.75090  0.33160  0.19720  Biso   1.000  H
  H17      1.0000 0.26300  0.72300  0.73590  Biso   1.000  H
  H18      1.0000 0.73700  0.27700  0.26410  Biso   1.000  H
  C31      1.0000 0.19910  0.60430  0.68950  Biso   1.000  C
  C32      1.0000 0.80090  0.39570  0.31050  Biso   1.000  C
  H19      1.0000 0.15150  0.61050  0.63960  Biso   1.000  H
  H20      1.0000 0.84850  0.38950  0.36040  Biso   1.000  H
  H21      1.0000 0.17090  0.55750  0.71080  Biso   1.000  H
  H22      1.0000 0.82910  0.44250  0.28920  Biso   1.000  H
  C33      1.0000 0.37390  0.56800  0.72870  Biso   1.000  C
  C34      1.0000 0.62610  0.43200  0.27130  Biso   1.000  C
  H23      1.0000 0.37940  0.55710  0.78120  Biso   1.000  H
  H24      1.0000 0.62060  0.44290  0.21880  Biso   1.000  H
  C35      1.0000 0.44290  0.56840  0.68770  Biso   1.000  C
  C36      1.0000 0.55710  0.43160  0.31230  Biso   1.000  C
  H25      1.0000 0.50500  0.55490  0.70840  Biso   1.000  H
  H26      1.0000 0.49500  0.44510  0.29160  Biso   1.000  H
  C37      1.0000 0.31890  0.60080  0.60680  Biso   1.000  C
  C38      1.0000 0.68110  0.39920  0.39320  Biso   1.000  C
  C39      1.0000 0.26380  0.62800  0.53850  Biso   1.000  C
  C40      1.0000 0.73620  0.37200  0.46150  Biso   1.000  C
  C41      1.0000 0.16860  0.58410  0.50160  Biso   1.000  C
  C42      1.0000 0.83140  0.41590  0.49840  Biso   1.000  C
  H27      1.0000 0.14400  0.53940  0.52360  Biso   1.000  H
  H28      1.0000 0.85600  0.46060  0.47640  Biso   1.000  H
  C43      1.0000 0.11020  0.60690  0.43180  Biso   1.000  C
  C44      1.0000 0.88980  0.39310  0.56820  Biso   1.000  C
  H29      1.0000 0.04650  0.57760  0.40710  Biso   1.000  H
  H30      1.0000 0.95350  0.42240  0.59290  Biso   1.000  H
  C45      1.0000 0.14700  0.67360  0.39890  Biso   1.000  C
  C46      1.0000 0.85300  0.32640  0.60110  Biso   1.000  C
  H31      1.0000 0.10790  0.68890  0.35220  Biso   1.000  H
  H32      1.0000 0.89210  0.31110  0.64780  Biso   1.000  H
  C47      1.0000 0.24200  0.71750  0.43580  Biso   1.000  C
  C48      1.0000 0.75800  0.28250  0.56420  Biso   1.000  C
  H33      1.0000 0.26680  0.76210  0.41380  Biso   1.000  H
  H34      1.0000 0.73320  0.23790  0.58620  Biso   1.000  H
  N1       1.0000 0.30060  0.69470  0.50560  Biso   1.000  N
  N2       1.0000 0.69940  0.30530  0.49440  Biso   1.000  N
  C49      1.0000 0.76000  0.74900  0.72480  Biso   1.000  C
  C50      1.0000 0.24000  0.25100  0.27520  Biso   1.000  C
  H35      1.0000 0.80350  0.72490  0.76570  Biso   1.000  H
  H36      1.0000 0.19650  0.27510  0.23430  Biso   1.000  H
  H37      1.0000 0.74070  0.71260  0.67400  Biso   1.000  H
  H38      1.0000 0.25930  0.28740  0.32600  Biso   1.000  H
  C51      1.0000 0.66700  0.76280  0.75040  Biso   1.000  C
  C52      1.0000 0.33300  0.23720  0.24960  Biso   1.000  C
  H39      1.0000 0.63630  0.80470  0.72250  Biso   1.000  H
  H40      1.0000 0.36370  0.19530  0.27750  Biso   1.000  H
  H41      1.0000 0.61820  0.71210  0.73790  Biso   1.000  H
  H42      1.0000 0.38180  0.28790  0.26210  Biso   1.000  H
  C53      1.0000 0.70370  0.79040  0.84080  Biso   1.000  C
  C54      1.0000 0.29630  0.20960  0.15920  Biso   1.000  C
  H43      1.0000 0.75460  0.83940  0.85330  Biso   1.000  H
  H44      1.0000 0.24540  0.16060  0.14670  Biso   1.000  H
  H45      1.0000 0.73130  0.74740  0.86870  Biso   1.000  H
  H46      1.0000 0.26870  0.25260  0.13130  Biso   1.000  H
  C55      1.0000 0.55160  0.75290  0.88770  Biso   1.000  C
  C56      1.0000 0.44840  0.24710  0.11230  Biso   1.000  C
  H47      1.0000 0.55670  0.69790  0.89080  Biso   1.000  H
  H48      1.0000 0.44330  0.30210  0.10920  Biso   1.000  H
  C57      1.0000 0.48000  0.78870  0.90370  Biso   1.000  C
  C58      1.0000 0.52000  0.21130  0.09630  Biso   1.000  C
  H49      1.0000 0.42520  0.76330  0.91730  Biso   1.000  H
  H50      1.0000 0.57480  0.23670  0.08270  Biso   1.000  H
  C59      1.0000 0.58240  0.87930  0.87040  Biso   1.000  C
  C60      1.0000 0.41760  0.12070  0.12960  Biso   1.000  C
  C61      1.0000 0.62440  0.96190  0.85620  Biso   1.000  C
  C62      1.0000 0.37560  0.03810  0.14380  Biso   1.000  C
  C63      1.0000 0.70130  0.97910  0.82350  Biso   1.000  C
  C64      1.0000 0.29870  0.02090  0.17650  Biso   1.000  C
  H51      1.0000 0.73250  0.93730  0.80900  Biso   1.000  H
  H52      1.0000 0.26750  0.06270  0.19100  Biso   1.000  H
  C65      1.0000 0.73210  0.05980  0.81210  Biso   1.000  C
  C66      1.0000 0.26790  0.94020  0.18790  Biso   1.000  C
  H53      1.0000 0.78300  0.07190  0.78880  Biso   1.000  H
  H54      1.0000 0.21700  0.92810  0.21120  Biso   1.000  H
  C67      1.0000 0.68770  0.12020  0.83510  Biso   1.000  C
  C68      1.0000 0.31230  0.87980  0.16490  Biso   1.000  C
  H55      1.0000 0.70750  0.17440  0.82820  Biso   1.000  H
  H56      1.0000 0.29250  0.82560  0.17180  Biso   1.000  H
  C69      1.0000 0.61290  0.09980  0.86860  Biso   1.000  C
  C70      1.0000 0.38710  0.90020  0.13140  Biso   1.000  C
  H57      1.0000 0.58380  0.14200  0.88580  Biso   1.000  H
  H58      1.0000 0.41620  0.85800  0.11420  Biso   1.000  H
  C71      1.0000 0.02410  0.07190  0.80970  Biso   1.000  C
  C72      1.0000 0.97590  0.92810  0.19030  Biso   1.000  C
  H59      1.0000 0.02560  0.12910  0.82870  Biso   1.000  H
  H60      1.0000 0.97440  0.87090  0.17130  Biso   1.000  H
  H61      1.0000 0.08450  0.06740  0.79560  Biso   1.000  H
  H62      1.0000 0.91550  0.93260  0.20440  Biso   1.000  H
  C73      1.0000 0.01130  0.01720  0.87320  Biso   1.000  C
  C74      1.0000 0.98870  0.98280  0.12680  Biso   1.000  C
  H63      1.0000 0.00100  0.96030  0.84890  Biso   1.000  H
  H64      1.0000 0.99900  0.03970  0.15110  Biso   1.000  H
  H65      1.0000 0.95140  0.02520  0.88660  Biso   1.000  H
  H66      1.0000 0.04860  0.97480  0.11340  Biso   1.000  H
  C75      1.0000 0.09590  0.02990  0.95250  Biso   1.000  C
  C76      1.0000 0.90410  0.97010  0.04750  Biso   1.000  C
  H67      1.0000 0.11420  0.08810  0.97380  Biso   1.000  H
  H68      1.0000 0.88580  0.91190  0.02620  Biso   1.000  H
  H69      1.0000 0.07360  0.00090  0.99210  Biso   1.000  H
  H70      1.0000 0.92640  0.99910  0.00790  Biso   1.000  H
  C77      1.0000 0.19140  0.91670  0.94120  Biso   1.000  C
  C78      1.0000 0.80860  0.08330  0.05880  Biso   1.000  C
  H71      1.0000 0.14300  0.87520  0.94670  Biso   1.000  H
  H72      1.0000 0.85700  0.12480  0.05330  Biso   1.000  H
  C79      1.0000 0.27770  0.90780  0.93380  Biso   1.000  C
  C80      1.0000 0.72230  0.09220  0.06620  Biso   1.000  C
  H73      1.0000 0.30190  0.85870  0.93470  Biso   1.000  H
  H74      1.0000 0.69810  0.14130  0.06530  Biso   1.000  H
  C81      1.0000 0.27070  0.03510  0.92740  Biso   1.000  C
  C82      1.0000 0.72930  0.96490  0.07260  Biso   1.000  C
  C83      1.0000 0.29110  0.12030  0.91570  Biso   1.000  C
  C84      1.0000 0.70890  0.87970  0.08430  Biso   1.000  C
  C85      1.0000 0.23690  0.17330  0.90730  Biso   1.000  C
  C86      1.0000 0.76310  0.82670  0.09270  Biso   1.000  C
  H75      1.0000 0.17110  0.15160  0.90180  Biso   1.000  H
  H76      1.0000 0.82890  0.84840  0.09820  Biso   1.000  H
  C87      1.0000 0.25100  0.24600  0.90460  Biso   1.000  C
  C88      1.0000 0.74900  0.75400  0.09540  Biso   1.000  C
  H77      1.0000 0.20950  0.27820  0.92000  Biso   1.000  H
  H78      1.0000 0.79050  0.72180  0.08000  Biso   1.000  H
  C89      1.0000 0.32300  0.27810  0.88020  Biso   1.000  C
  C90      1.0000 0.67700  0.72190  0.11980  Biso   1.000  C
  H79      1.0000 0.32340  0.32800  0.85950  Biso   1.000  H
  H80      1.0000 0.67660  0.67200  0.14050  Biso   1.000  H
  C91      1.0000 0.39500  0.23920  0.88500  Biso   1.000  C
  C92      1.0000 0.60500  0.76080  0.11500  Biso   1.000  C
  H81      1.0000 0.45380  0.26430  0.87740  Biso   1.000  H
  H82      1.0000 0.54620  0.73570  0.12260  Biso   1.000  H
  C93      1.0000 0.11250  0.28720  0.64910  Biso   1.000  C
  C94      1.0000 0.88750  0.71280  0.35090  Biso   1.000  C
  H83      1.0000 0.15390  0.25120  0.67680  Biso   1.000  H
  H84      1.0000 0.84610  0.74880  0.32320  Biso   1.000  H
  H85      1.0000 0.08300  0.31310  0.68680  Biso   1.000  H
  H86      1.0000 0.91700  0.68690  0.31320  Biso   1.000  H
  C95      1.0000 0.17400  0.35270  0.61790  Biso   1.000  C
  C96      1.0000 0.82600  0.64730  0.38210  Biso   1.000  C
  H87      1.0000 0.13210  0.38760  0.58870  Biso   1.000  H
  H88      1.0000 0.86790  0.61240  0.41130  Biso   1.000  H
  H89      1.0000 0.22460  0.38700  0.66280  Biso   1.000  H
  H90      1.0000 0.77540  0.61300  0.33720  Biso   1.000  H
  C97      1.0000 0.22170  0.30920  0.56210  Biso   1.000  C
  C98      1.0000 0.77830  0.69080  0.43790  Biso   1.000  C
  H91      1.0000 0.26750  0.27840  0.59340  Biso   1.000  H
  H92      1.0000 0.73250  0.72160  0.40660  Biso   1.000  H
  H93      1.0000 0.17070  0.27010  0.52150  Biso   1.000  H
  H94      1.0000 0.82930  0.72990  0.47850  Biso   1.000  H
  C99      1.0000 0.23370  0.39580  0.45130  Biso   1.000  C
  C100     1.0000 0.76630  0.60420  0.54870  Biso   1.000  C
  H95      1.0000 0.16620  0.39090  0.42650  Biso   1.000  H
  H96      1.0000 0.83380  0.60910  0.57350  Biso   1.000  H
  C101     1.0000 0.30380  0.43270  0.42510  Biso   1.000  C
  C102     1.0000 0.69620  0.56730  0.57490  Biso   1.000  C
  H97      1.0000 0.29470  0.45970  0.37960  Biso   1.000  H
  H98      1.0000 0.70530  0.54030  0.62040  Biso   1.000  H
  C103     1.0000 0.37570  0.38650  0.53740  Biso   1.000  C
  C104     1.0000 0.62430  0.61350  0.46260  Biso   1.000  C
  C105     1.0000 0.45350  0.37410  0.60440  Biso   1.000  C
  C106     1.0000 0.54650  0.62590  0.39560  Biso   1.000  C
  C107     1.0000 0.44870  0.36080  0.68060  Biso   1.000  C
  C108     1.0000 0.55130  0.63920  0.31940  Biso   1.000  C
  H99      1.0000 0.38710  0.35420  0.69000  Biso   1.000  H
  H100     1.0000 0.61290  0.64580  0.31000  Biso   1.000  H
  C109     1.0000 0.53040  0.35690  0.74360  Biso   1.000  C
  C110     1.0000 0.46960  0.64310  0.25640  Biso   1.000  C
  H101     1.0000 0.52550  0.34770  0.79450  Biso   1.000  H
  H102     1.0000 0.47450  0.65230  0.20550  Biso   1.000  H
  C111     1.0000 0.61800  0.36730  0.72710  Biso   1.000  C
  C112     1.0000 0.38200  0.63270  0.27290  Biso   1.000  C
  H103     1.0000 0.67530  0.36370  0.76710  Biso   1.000  H
  H104     1.0000 0.32470  0.63630  0.23290  Biso   1.000  H
  C113     1.0000 0.62380  0.38360  0.64920  Biso   1.000  C
  C114     1.0000 0.37620  0.61640  0.35080  Biso   1.000  C
  H105     1.0000 0.68510  0.39170  0.63930  Biso   1.000  H
  H106     1.0000 0.31490  0.60830  0.36070  Biso   1.000  H
  C115     1.0000 0.89450  0.16210  0.44090  Biso   1.000  C
  C116     1.0000 0.10550  0.83790  0.55910  Biso   1.000  C
  H107     1.0000 0.88110  0.21790  0.45020  Biso   1.000  H
  H108     1.0000 0.11890  0.78210  0.54980  Biso   1.000  H
  C117     1.0000 0.80000  0.10950  0.37650  Biso   1.000  C
  C118     1.0000 0.20000  0.89050  0.62350  Biso   1.000  C
  C119     1.0000 0.70560  0.12760  0.36500  Biso   1.000  C
  C120     1.0000 0.29440  0.87240  0.63500  Biso   1.000  C
  H109     1.0000 0.69710  0.17630  0.39110  Biso   1.000  H
  H110     1.0000 0.30290  0.82370  0.60890  Biso   1.000  H
  C121     1.0000 0.62400  0.07290  0.31430  Biso   1.000  C
  C122     1.0000 0.37600  0.92710  0.68570  Biso   1.000  C
  H111     1.0000 0.56080  0.08500  0.30660  Biso   1.000  H
  H112     1.0000 0.43920  0.91500  0.69340  Biso   1.000  H
  C123     1.0000 0.63670  0.00010  0.27520  Biso   1.000  C
  C124     1.0000 0.36330  0.99990  0.72480  Biso   1.000  C
  H113     1.0000 0.58210  0.96350  0.24140  Biso   1.000  H
  H114     1.0000 0.41790  0.03650  0.75860  Biso   1.000  H
  C125     1.0000 0.73110  0.98210  0.28680  Biso   1.000  C
  C126     1.0000 0.26890  0.01790  0.71320  Biso   1.000  C
  H115     1.0000 0.73970  0.93340  0.26060  Biso   1.000  H
  H116     1.0000 0.26030  0.06660  0.73940  Biso   1.000  H
  C127     1.0000 0.81280  0.03680  0.33740  Biso   1.000  C
  C128     1.0000 0.18720  0.96320  0.66260  Biso   1.000  C
  H117     1.0000 0.87590  0.02470  0.34510  Biso   1.000  H
  H118     1.0000 0.12410  0.97530  0.65490  Biso   1.000  H
  C129     1.0000 0.71060  0.91590  0.55090  Biso   1.000  C
  C130     1.0000 0.28940  0.08410  0.44910  Biso   1.000  C
  C131     1.0000 0.62360  0.92330  0.56600  Biso   1.000  C
  C132     1.0000 0.37640  0.07670  0.43400  Biso   1.000  C
  H119     1.0000 0.62550  0.94590  0.61760  Biso   1.000  H
  H120     1.0000 0.37450  0.05410  0.38240  Biso   1.000  H
  C133     1.0000 0.53100  0.89900  0.50800  Biso   1.000  C
  C134     1.0000 0.46900  0.10100  0.49200  Biso   1.000  C
  H121     1.0000 0.47380  0.90610  0.52060  Biso   1.000  H
  H122     1.0000 0.52620  0.09390  0.47940  Biso   1.000  H
  C135     1.0000 0.52700  0.86300  0.43000  Biso   1.000  C
  C136     1.0000 0.47300  0.13700  0.57000  Biso   1.000  C
  H123     1.0000 0.46520  0.84400  0.39220  Biso   1.000  H
  H124     1.0000 0.53480  0.15600  0.60780  Biso   1.000  H
  C137     1.0000 0.60800  0.85570  0.40870  Biso   1.000  C
  C138     1.0000 0.39200  0.14430  0.59130  Biso   1.000  C
  H125     1.0000 0.60530  0.83550  0.35620  Biso   1.000  H
  H126     1.0000 0.39470  0.16450  0.64380  Biso   1.000  H
  C139     1.0000 0.70490  0.88140  0.47390  Biso   1.000  C
  C140     1.0000 0.29510  0.11860  0.52610  Biso   1.000  C
  H127     1.0000 0.76300  0.87390  0.46210  Biso   1.000  H
  H128     1.0000 0.23700  0.12610  0.53790  Biso   1.000  H
  N3       1.0000 0.29290  0.58790  0.67230  Biso   1.000  N
  N4       1.0000 0.70710  0.41210  0.32770  Biso   1.000  N
  N5       1.0000 0.41080  0.59050  0.61380  Biso   1.000  N
  N6       1.0000 0.58920  0.40950  0.38620  Biso   1.000  N
  N7       1.0000 0.61480  0.80840  0.86650  Biso   1.000  N
  N8       1.0000 0.38520  0.19160  0.13350  Biso   1.000  N
  N9       1.0000 0.50350  0.87240  0.89620  Biso   1.000  N
  N10      1.0000 0.49650  0.12760  0.10380  Biso   1.000  N
  N11      1.0000 0.57820  0.02100  0.87860  Biso   1.000  N
  N12      1.0000 0.42180  0.97900  0.12140  Biso   1.000  N
  N13      1.0000 0.18460  0.99910  0.93950  Biso   1.000  N
  N14      1.0000 0.81540  0.00090  0.06050  Biso   1.000  N
  N15      1.0000 0.32640  0.98040  0.92470  Biso   1.000  N
  N16      1.0000 0.67360  0.01960  0.07530  Biso   1.000  N
  N17      1.0000 0.38300  0.14990  0.90500  Biso   1.000  N
  N18      1.0000 0.61700  0.85010  0.09500  Biso   1.000  N
  N19      1.0000 0.27520  0.36560  0.52120  Biso   1.000  N
  N20      1.0000 0.72480  0.63440  0.47880  Biso   1.000  N
  N21      1.0000 0.39350  0.42480  0.47620  Biso   1.000  N
  N22      1.0000 0.60650  0.57520  0.52380  Biso   1.000  N
  N23      1.0000 0.54370  0.38740  0.59080  Biso   1.000  N
  N24      1.0000 0.45630  0.61260  0.40920  Biso   1.000  N
  O45      1.0000 0.03710  0.24130  0.58090  Biso   1.000  O
  O46      1.0000 0.96290  0.75870  0.41910  Biso   1.000  O
  O47      1.0000 0.94000  0.04090  0.74330  Biso   1.000  O
  O48      1.0000 0.06000  0.95910  0.25670  Biso   1.000  O
  O49      1.0000 0.80470  0.82560  0.71690  Biso   1.000  O
  O50      1.0000 0.19530  0.17440  0.28310  Biso   1.000  O
  O51      1.0000 0.09140  0.73260  0.66770  Biso   1.000  O
  O52      1.0000 0.90860  0.26740  0.33230  Biso   1.000  O
