data_image0
_cell_length_a       4.892
_cell_length_b       14.915
_cell_length_c       4.972
_cell_angle_alpha    90
_cell_angle_beta     108.706
_cell_angle_gamma    90

_symmetry_space_group_name_H-M    "P 1"
_symmetry_int_tables_number       1

loop_
  _symmetry_equiv_pos_as_xyz
  'x, y, z'

loop_
  _atom_site_label
  _atom_site_occupancy
  _atom_site_fract_x
  _atom_site_fract_y
  _atom_site_fract_z
  _atom_site_thermal_displace_type
  _atom_site_B_iso_or_equiv
  _atom_site_type_symbol
  N1       1.0000 0.32650  0.44473  0.67740  Biso   1.000  N
  N2       1.0000 0.67350  0.94473  0.82260  Biso   1.000  N
  N3       1.0000 0.67350  0.55527  0.32260  Biso   1.000  N
  N4       1.0000 0.32650  0.05527  0.17740  Biso   1.000  N
  N5       1.0000 0.20310  0.40746  0.42170  Biso   1.000  N
  N6       1.0000 0.79690  0.90746  0.07830  Biso   1.000  N
  N7       1.0000 0.79690  0.59254  0.57830  Biso   1.000  N
  N8       1.0000 0.20310  0.09254  0.92170  Biso   1.000  N
  Cu1      1.0000 0.16557  0.54950  0.83269  Biso   1.000  Cu
  Cu2      1.0000 0.83443  0.04950  0.66731  Biso   1.000  Cu
  Cu3      1.0000 0.83443  0.45050  0.16731  Biso   1.000  Cu
  Cu4      1.0000 0.16557  0.95050  0.33269  Biso   1.000  Cu
  N9       1.0000 0.58590  0.40707  0.80110  Biso   1.000  N
  N10      1.0000 0.41410  0.90707  0.69890  Biso   1.000  N
  N11      1.0000 0.41410  0.59293  0.19890  Biso   1.000  N
  N12      1.0000 0.58590  0.09293  0.30110  Biso   1.000  N
  C1       1.0000 0.62710  0.34477  0.62210  Biso   1.000  C
  C2       1.0000 0.37290  0.84477  0.87790  Biso   1.000  C
  C3       1.0000 0.37290  0.65523  0.37790  Biso   1.000  C
  C4       1.0000 0.62710  0.15523  0.12210  Biso   1.000  C
  C5       1.0000 0.38590  0.34514  0.38170  Biso   1.000  C
  C6       1.0000 0.61410  0.84514  0.11830  Biso   1.000  C
  C7       1.0000 0.61410  0.65486  0.61830  Biso   1.000  C
  C8       1.0000 0.38590  0.15486  0.88170  Biso   1.000  C
  H1       1.0000 0.79400  0.31300  0.66900  Biso   1.000  H
  H2       1.0000 0.20600  0.81300  0.83100  Biso   1.000  H
  H3       1.0000 0.20600  0.68700  0.33100  Biso   1.000  H
  H4       1.0000 0.79400  0.18700  0.16900  Biso   1.000  H
  H5       1.0000 0.34100  0.31400  0.21000  Biso   1.000  H
  H6       1.0000 0.65900  0.81400  0.29000  Biso   1.000  H
  H7       1.0000 0.65900  0.68600  0.79000  Biso   1.000  H
  H8       1.0000 0.34100  0.18600  0.71000  Biso   1.000  H
