data_image0
_cell_length_a       6.0644
_cell_length_b       18.367
_cell_length_c       7.0319
_cell_angle_alpha    90
_cell_angle_beta     93.466
_cell_angle_gamma    90

_symmetry_space_group_name_H-M    "P 1"
_symmetry_int_tables_number       1

loop_
  _symmetry_equiv_pos_as_xyz
  'x, y, z'

loop_
  _atom_site_label
  _atom_site_occupancy
  _atom_site_fract_x
  _atom_site_fract_y
  _atom_site_fract_z
  _atom_site_thermal_displace_type
  _atom_site_B_iso_or_equiv
  _atom_site_type_symbol
  N1       1.0000 0.73980  0.99289  0.64830  Biso   1.000  N
  N2       1.0000 0.26020  0.49289  0.85170  Biso   1.000  N
  N3       1.0000 0.26020  0.00711  0.35170  Biso   1.000  N
  N4       1.0000 0.73980  0.50711  0.14830  Biso   1.000  N
  H1       1.0000 0.60150  0.99420  0.68800  Biso   1.000  H
  H2       1.0000 0.39850  0.49420  0.81200  Biso   1.000  H
  H3       1.0000 0.39850  0.00580  0.31200  Biso   1.000  H
  H4       1.0000 0.60150  0.50580  0.18800  Biso   1.000  H
  H5       1.0000 0.73790  0.01310  0.53170  Biso   1.000  H
  H6       1.0000 0.26210  0.51310  0.96830  Biso   1.000  H
  H7       1.0000 0.26210  0.98690  0.46830  Biso   1.000  H
  H8       1.0000 0.73790  0.48690  0.03170  Biso   1.000  H
  N5       1.0000 0.81130  0.92014  0.63860  Biso   1.000  N
  N6       1.0000 0.18870  0.42014  0.86140  Biso   1.000  N
  N7       1.0000 0.18870  0.07986  0.36140  Biso   1.000  N
  N8       1.0000 0.81130  0.57986  0.13860  Biso   1.000  N
  H9       1.0000 0.94160  0.90960  0.68540  Biso   1.000  H
  H10      1.0000 0.05840  0.40960  0.81460  Biso   1.000  H
  H11      1.0000 0.05840  0.09040  0.31460  Biso   1.000  H
  H12      1.0000 0.94160  0.59040  0.18540  Biso   1.000  H
  C1       1.0000 0.68610  0.86633  0.55980  Biso   1.000  C
  C2       1.0000 0.31390  0.36633  0.94020  Biso   1.000  C
  C3       1.0000 0.31390  0.13367  0.44020  Biso   1.000  C
  C4       1.0000 0.68610  0.63367  0.05980  Biso   1.000  C
  C5       1.0000 0.78510  0.79139  0.58440  Biso   1.000  C
  C6       1.0000 0.21490  0.29139  0.91560  Biso   1.000  C
  C7       1.0000 0.21490  0.20861  0.41560  Biso   1.000  C
  C8       1.0000 0.78510  0.70861  0.08440  Biso   1.000  C
  C9       1.0000 0.64880  0.73239  0.54520  Biso   1.000  C
  C10      1.0000 0.35120  0.23239  0.95480  Biso   1.000  C
  C11      1.0000 0.35120  0.26761  0.45480  Biso   1.000  C
  C12      1.0000 0.64880  0.76761  0.04520  Biso   1.000  C
  H13      1.0000 0.50360  0.73960  0.49850  Biso   1.000  H
  H14      1.0000 0.49640  0.23960  0.00150  Biso   1.000  H
  H15      1.0000 0.49640  0.26040  0.50150  Biso   1.000  H
  H16      1.0000 0.50360  0.76040  0.99850  Biso   1.000  H
  C13      1.0000 0.00230  0.77753  0.64880  Biso   1.000  C
  C14      1.0000 0.99770  0.27753  0.85120  Biso   1.000  C
  C15      1.0000 0.99770  0.22247  0.35120  Biso   1.000  C
  C16      1.0000 0.00230  0.72247  0.14880  Biso   1.000  C
  H17      1.0000 0.10060  0.81570  0.67330  Biso   1.000  H
  H18      1.0000 0.89940  0.31570  0.82670  Biso   1.000  H
  H19      1.0000 0.89940  0.18430  0.32670  Biso   1.000  H
  H20      1.0000 0.10060  0.68430  0.17330  Biso   1.000  H
  Cu1      1.0000 0.05652  0.55040  0.66959  Biso   1.000  Cu
  Cu2      1.0000 0.94348  0.05040  0.83041  Biso   1.000  Cu
  Cu3      1.0000 0.94348  0.44960  0.33041  Biso   1.000  Cu
  Cu4      1.0000 0.05652  0.94960  0.16959  Biso   1.000  Cu
  Cl1      1.0000 0.25260  0.53794  0.36112  Biso   1.000  Cl
  Cl2      1.0000 0.74740  0.03794  0.13888  Biso   1.000  Cl
  Cl3      1.0000 0.74740  0.46206  0.63888  Biso   1.000  Cl
  Cl4      1.0000 0.25260  0.96206  0.86112  Biso   1.000  Cl
  N9       1.0000 0.93740  0.64921  0.64130  Biso   1.000  N
  N10      1.0000 0.06260  0.14921  0.85870  Biso   1.000  N
  N11      1.0000 0.06260  0.35079  0.35870  Biso   1.000  N
  N12      1.0000 0.93740  0.85079  0.14130  Biso   1.000  N
  C17      1.0000 0.07020  0.70654  0.67570  Biso   1.000  C
  C18      1.0000 0.92980  0.20654  0.82430  Biso   1.000  C
  C19      1.0000 0.92980  0.29346  0.32430  Biso   1.000  C
  C20      1.0000 0.07020  0.79346  0.17570  Biso   1.000  C
  H21      1.0000 0.21550  0.69800  0.72000  Biso   1.000  H
  H22      1.0000 0.78450  0.19800  0.78000  Biso   1.000  H
  H23      1.0000 0.78450  0.30200  0.28000  Biso   1.000  H
  H24      1.0000 0.21550  0.80200  0.22000  Biso   1.000  H
  C21      1.0000 0.72840  0.66277  0.57540  Biso   1.000  C
  C22      1.0000 0.27160  0.16277  0.92460  Biso   1.000  C
  C23      1.0000 0.27160  0.33723  0.42460  Biso   1.000  C
  C24      1.0000 0.72840  0.83723  0.07540  Biso   1.000  C
  H25      1.0000 0.63400  0.62370  0.54930  Biso   1.000  H
  H26      1.0000 0.36600  0.12370  0.95070  Biso   1.000  H
  H27      1.0000 0.36600  0.37630  0.45070  Biso   1.000  H
  H28      1.0000 0.63400  0.87630  0.04930  Biso   1.000  H
  O1       1.0000 0.50600  0.87634  0.47790  Biso   1.000  O
  O2       1.0000 0.49400  0.37634  0.02210  Biso   1.000  O
  O3       1.0000 0.49400  0.12366  0.52210  Biso   1.000  O
  O4       1.0000 0.50600  0.62366  0.97790  Biso   1.000  O
