data_image0
_cell_length_a       15.017
_cell_length_b       17.685
_cell_length_c       27.129
_cell_angle_alpha    90
_cell_angle_beta     90
_cell_angle_gamma    90

_symmetry_space_group_name_H-M    "P 1"
_symmetry_int_tables_number       1

loop_
  _symmetry_equiv_pos_as_xyz
  'x, y, z'

loop_
  _atom_site_label
  _atom_site_occupancy
  _atom_site_fract_x
  _atom_site_fract_y
  _atom_site_fract_z
  _atom_site_thermal_displace_type
  _atom_site_B_iso_or_equiv
  _atom_site_type_symbol
  Cu1      1.0000 0.97792  0.25000  0.91904  Biso   1.000  Cu
  Cu2      1.0000 0.52208  0.75000  0.41904  Biso   1.000  Cu
  Cu3      1.0000 0.02208  0.75000  0.08096  Biso   1.000  Cu
  Cu4      1.0000 0.47792  0.25000  0.58096  Biso   1.000  Cu
  Cu5      1.0000 0.88065  0.13117  0.90426  Biso   1.000  Cu
  Cu6      1.0000 0.61935  0.86883  0.40426  Biso   1.000  Cu
  Cu7      1.0000 0.11935  0.63117  0.09574  Biso   1.000  Cu
  Cu8      1.0000 0.38065  0.36883  0.59574  Biso   1.000  Cu
  Cu9      1.0000 0.11935  0.86883  0.09574  Biso   1.000  Cu
  Cu10     1.0000 0.38065  0.13117  0.59574  Biso   1.000  Cu
  Cu11     1.0000 0.88065  0.36883  0.90426  Biso   1.000  Cu
  Cu12     1.0000 0.61935  0.63117  0.40426  Biso   1.000  Cu
  Cu13     1.0000 0.06021  0.13489  0.85437  Biso   1.000  Cu
  Cu14     1.0000 0.43979  0.86511  0.35437  Biso   1.000  Cu
  Cu15     1.0000 0.93979  0.63489  0.14563  Biso   1.000  Cu
  Cu16     1.0000 0.56021  0.36511  0.64563  Biso   1.000  Cu
  Cu17     1.0000 0.93979  0.86511  0.14563  Biso   1.000  Cu
  Cu18     1.0000 0.56021  0.13489  0.64563  Biso   1.000  Cu
  Cu19     1.0000 0.06021  0.36511  0.85437  Biso   1.000  Cu
  Cu20     1.0000 0.43979  0.63489  0.35437  Biso   1.000  Cu
  Cu21     1.0000 0.99387  0.25000  0.78814  Biso   1.000  Cu
  Cu22     1.0000 0.50613  0.75000  0.28814  Biso   1.000  Cu
  Cu23     1.0000 0.00613  0.75000  0.21186  Biso   1.000  Cu
  Cu24     1.0000 0.49387  0.25000  0.71186  Biso   1.000  Cu
  Cu25     1.0000 0.41445  0.75000  0.73768  Biso   1.000  Cu
  Cu26     1.0000 0.08555  0.25000  0.23768  Biso   1.000  Cu
  Cu27     1.0000 0.58555  0.25000  0.26232  Biso   1.000  Cu
  Cu28     1.0000 0.91445  0.75000  0.76232  Biso   1.000  Cu
  Cu29     1.0000 0.32646  0.83004  0.80649  Biso   1.000  Cu
  Cu30     1.0000 0.17354  0.16996  0.30649  Biso   1.000  Cu
  Cu31     1.0000 0.67354  0.33004  0.19351  Biso   1.000  Cu
  Cu32     1.0000 0.82646  0.66996  0.69351  Biso   1.000  Cu
  Cu33     1.0000 0.67354  0.16996  0.19351  Biso   1.000  Cu
  Cu34     1.0000 0.82646  0.83004  0.69351  Biso   1.000  Cu
  Cu35     1.0000 0.32646  0.66996  0.80649  Biso   1.000  Cu
  Cu36     1.0000 0.17354  0.33004  0.30649  Biso   1.000  Cu
  Cu37     1.0000 0.46875  0.75000  0.83107  Biso   1.000  Cu
  Cu38     1.0000 0.03125  0.25000  0.33107  Biso   1.000  Cu
  Cu39     1.0000 0.53125  0.25000  0.16893  Biso   1.000  Cu
  Cu40     1.0000 0.96875  0.75000  0.66893  Biso   1.000  Cu
  Cu41     1.0000 0.47585  0.75000  0.94409  Biso   1.000  Cu
  Cu42     1.0000 0.02415  0.25000  0.44409  Biso   1.000  Cu
  Cu43     1.0000 0.52415  0.25000  0.05591  Biso   1.000  Cu
  Cu44     1.0000 0.97585  0.75000  0.55591  Biso   1.000  Cu
  Cu45     1.0000 0.62648  0.82814  0.96593  Biso   1.000  Cu
  Cu46     1.0000 0.87352  0.17186  0.46593  Biso   1.000  Cu
  Cu47     1.0000 0.37352  0.32814  0.03407  Biso   1.000  Cu
  Cu48     1.0000 0.12648  0.67186  0.53407  Biso   1.000  Cu
  Cu49     1.0000 0.37352  0.17186  0.03407  Biso   1.000  Cu
  Cu50     1.0000 0.12648  0.82814  0.53407  Biso   1.000  Cu
  Cu51     1.0000 0.62648  0.67186  0.96593  Biso   1.000  Cu
  Cu52     1.0000 0.87352  0.32814  0.46593  Biso   1.000  Cu
  Cu53     1.0000 0.54180  0.75000  0.03607  Biso   1.000  Cu
  Cu54     1.0000 0.95820  0.25000  0.53607  Biso   1.000  Cu
  Cu55     1.0000 0.45820  0.25000  0.96393  Biso   1.000  Cu
  Cu56     1.0000 0.04180  0.75000  0.46393  Biso   1.000  Cu
  I1       1.0000 0.79374  0.25000  0.93530  Biso   1.000  I
  I2       1.0000 0.70626  0.75000  0.43530  Biso   1.000  I
  I3       1.0000 0.20626  0.75000  0.06470  Biso   1.000  I
  I4       1.0000 0.29374  0.25000  0.56470  Biso   1.000  I
  I5       1.0000 0.03621  0.12134  0.95218  Biso   1.000  I
  I6       1.0000 0.46379  0.87866  0.45218  Biso   1.000  I
  I7       1.0000 0.96379  0.62134  0.04782  Biso   1.000  I
  I8       1.0000 0.53621  0.37866  0.54782  Biso   1.000  I
  I9       1.0000 0.96379  0.87866  0.04782  Biso   1.000  I
  I10      1.0000 0.53621  0.12134  0.54782  Biso   1.000  I
  I11      1.0000 0.03621  0.37866  0.95218  Biso   1.000  I
  I12      1.0000 0.46379  0.62134  0.45218  Biso   1.000  I
  I13      1.0000 0.90574  0.12119  0.80803  Biso   1.000  I
  I14      1.0000 0.59426  0.87881  0.30803  Biso   1.000  I
  I15      1.0000 0.09426  0.62119  0.19197  Biso   1.000  I
  I16      1.0000 0.40574  0.37881  0.69197  Biso   1.000  I
  I17      1.0000 0.09426  0.87881  0.19197  Biso   1.000  I
  I18      1.0000 0.40574  0.12119  0.69197  Biso   1.000  I
  I19      1.0000 0.90574  0.37881  0.80803  Biso   1.000  I
  I20      1.0000 0.59426  0.62119  0.30803  Biso   1.000  I
  I21      1.0000 0.15623  0.25000  0.82423  Biso   1.000  I
  I22      1.0000 0.34377  0.75000  0.32423  Biso   1.000  I
  I23      1.0000 0.84377  0.75000  0.17577  Biso   1.000  I
  I24      1.0000 0.65623  0.25000  0.67577  Biso   1.000  I
  I25      1.0000 0.23529  0.75000  0.74153  Biso   1.000  I
  I26      1.0000 0.26471  0.25000  0.24153  Biso   1.000  I
  I27      1.0000 0.76471  0.25000  0.25847  Biso   1.000  I
  I28      1.0000 0.73529  0.75000  0.75847  Biso   1.000  I
  I29      1.0000 0.48327  0.88037  0.77800  Biso   1.000  I
  I30      1.0000 0.01673  0.11963  0.27800  Biso   1.000  I
  I31      1.0000 0.51673  0.38037  0.22200  Biso   1.000  I
  I32      1.0000 0.98327  0.61963  0.72200  Biso   1.000  I
  I33      1.0000 0.51673  0.11963  0.22200  Biso   1.000  I
  I34      1.0000 0.98327  0.88037  0.72200  Biso   1.000  I
  I35      1.0000 0.48327  0.61963  0.77800  Biso   1.000  I
  I36      1.0000 0.01673  0.38037  0.27800  Biso   1.000  I
  I37      1.0000 0.32461  0.75000  0.89345  Biso   1.000  I
  I38      1.0000 0.17539  0.25000  0.39345  Biso   1.000  I
  I39      1.0000 0.67539  0.25000  0.10655  Biso   1.000  I
  I40      1.0000 0.82461  0.75000  0.60655  Biso   1.000  I
  I41      1.0000 0.61658  0.75000  0.88120  Biso   1.000  I
  I42      1.0000 0.88342  0.25000  0.38120  Biso   1.000  I
  I43      1.0000 0.38342  0.25000  0.11880  Biso   1.000  I
  I44      1.0000 0.11658  0.75000  0.61880  Biso   1.000  I
  I45      1.0000 0.47142  0.87748  0.99838  Biso   1.000  I
  I46      1.0000 0.02858  0.12252  0.49838  Biso   1.000  I
  I47      1.0000 0.52858  0.37748  0.00162  Biso   1.000  I
  I48      1.0000 0.97142  0.62252  0.50162  Biso   1.000  I
  I49      1.0000 0.52858  0.12252  0.00162  Biso   1.000  I
  I50      1.0000 0.97142  0.87748  0.50162  Biso   1.000  I
  I51      1.0000 0.47142  0.62252  0.99838  Biso   1.000  I
  I52      1.0000 0.02858  0.37748  0.49838  Biso   1.000  I
  I53      1.0000 0.72647  0.75000  0.02833  Biso   1.000  I
  I54      1.0000 0.77353  0.25000  0.52833  Biso   1.000  I
  I55      1.0000 0.27353  0.25000  0.97167  Biso   1.000  I
  I56      1.0000 0.22647  0.75000  0.47167  Biso   1.000  I
  N1       1.0000 0.70400  0.92190  0.94580  Biso   1.000  N
  N2       1.0000 0.79600  0.07810  0.44580  Biso   1.000  N
  N3       1.0000 0.29600  0.42190  0.05420  Biso   1.000  N
  N4       1.0000 0.20400  0.57810  0.55420  Biso   1.000  N
  N5       1.0000 0.29600  0.07810  0.05420  Biso   1.000  N
  N6       1.0000 0.20400  0.92190  0.55420  Biso   1.000  N
  N7       1.0000 0.70400  0.57810  0.94580  Biso   1.000  N
  N8       1.0000 0.79600  0.42190  0.44580  Biso   1.000  N
  N9       1.0000 0.80090  0.03810  0.92310  Biso   1.000  N
  N10      1.0000 0.69910  0.96190  0.42310  Biso   1.000  N
  N11      1.0000 0.19910  0.53810  0.07690  Biso   1.000  N
  N12      1.0000 0.30090  0.46190  0.57690  Biso   1.000  N
  N13      1.0000 0.19910  0.96190  0.07690  Biso   1.000  N
  N14      1.0000 0.30090  0.03810  0.57690  Biso   1.000  N
  N15      1.0000 0.80090  0.46190  0.92310  Biso   1.000  N
  N16      1.0000 0.69910  0.53810  0.42310  Biso   1.000  N
  N17      1.0000 0.14700  0.04330  0.83770  Biso   1.000  N
  N18      1.0000 0.35300  0.95670  0.33770  Biso   1.000  N
  N19      1.0000 0.85300  0.54330  0.16230  Biso   1.000  N
  N20      1.0000 0.64700  0.45670  0.66230  Biso   1.000  N
  N21      1.0000 0.85300  0.95670  0.16230  Biso   1.000  N
  N22      1.0000 0.64700  0.04330  0.66230  Biso   1.000  N
  N23      1.0000 0.14700  0.45670  0.83770  Biso   1.000  N
  N24      1.0000 0.35300  0.54330  0.33770  Biso   1.000  N
  N25      1.0000 0.24820  0.92660  0.82040  Biso   1.000  N
  N26      1.0000 0.25180  0.07340  0.32040  Biso   1.000  N
  N27      1.0000 0.75180  0.42660  0.17960  Biso   1.000  N
  N28      1.0000 0.74820  0.57340  0.67960  Biso   1.000  N
  N29      1.0000 0.75180  0.07340  0.17960  Biso   1.000  N
  N30      1.0000 0.74820  0.92660  0.67960  Biso   1.000  N
  N31      1.0000 0.24820  0.57340  0.82040  Biso   1.000  N
  N32      1.0000 0.25180  0.42660  0.32040  Biso   1.000  N
  N33      1.0000 0.45840  0.75000  0.66070  Biso   1.000  N
  N34      1.0000 0.04160  0.25000  0.16070  Biso   1.000  N
  N35      1.0000 0.54160  0.25000  0.33930  Biso   1.000  N
  N36      1.0000 0.95840  0.75000  0.83930  Biso   1.000  N
  N37      1.0000 0.52040  0.75000  0.11210  Biso   1.000  N
  N38      1.0000 0.97960  0.25000  0.61210  Biso   1.000  N
  N39      1.0000 0.47960  0.25000  0.88790  Biso   1.000  N
  N40      1.0000 0.02040  0.75000  0.38790  Biso   1.000  N
  N41      1.0000 0.99240  0.25000  0.70900  Biso   1.000  N
  N42      1.0000 0.50760  0.75000  0.20900  Biso   1.000  N
  N43      1.0000 0.00760  0.75000  0.29100  Biso   1.000  N
  N44      1.0000 0.49240  0.25000  0.79100  Biso   1.000  N
  C1       1.0000 0.65690  0.97110  0.90990  Biso   1.000  C
  C2       1.0000 0.84310  0.02890  0.40990  Biso   1.000  C
  C3       1.0000 0.34310  0.47110  0.09010  Biso   1.000  C
  C4       1.0000 0.15690  0.52890  0.59010  Biso   1.000  C
  C5       1.0000 0.34310  0.02890  0.09010  Biso   1.000  C
  C6       1.0000 0.15690  0.97110  0.59010  Biso   1.000  C
  C7       1.0000 0.65690  0.52890  0.90990  Biso   1.000  C
  C8       1.0000 0.84310  0.47110  0.40990  Biso   1.000  C
  H1       1.0000 0.60100  0.98820  0.92400  Biso   1.000  H
  H2       1.0000 0.89900  0.01180  0.42400  Biso   1.000  H
  H3       1.0000 0.39900  0.48820  0.07600  Biso   1.000  H
  H4       1.0000 0.10100  0.51180  0.57600  Biso   1.000  H
  H5       1.0000 0.39900  0.01180  0.07600  Biso   1.000  H
  H6       1.0000 0.10100  0.98820  0.57600  Biso   1.000  H
  H7       1.0000 0.60100  0.51180  0.92400  Biso   1.000  H
  H8       1.0000 0.89900  0.48820  0.42400  Biso   1.000  H
  H9       1.0000 0.64370  0.94260  0.88020  Biso   1.000  H
  H10      1.0000 0.85630  0.05740  0.38020  Biso   1.000  H
  H11      1.0000 0.35630  0.44260  0.11980  Biso   1.000  H
  H12      1.0000 0.14370  0.55740  0.61980  Biso   1.000  H
  H13      1.0000 0.35630  0.05740  0.11980  Biso   1.000  H
  H14      1.0000 0.14370  0.94260  0.61980  Biso   1.000  H
  H15      1.0000 0.64370  0.55740  0.88020  Biso   1.000  H
  H16      1.0000 0.85630  0.44260  0.38020  Biso   1.000  H
  C9       1.0000 0.71510  0.03960  0.89690  Biso   1.000  C
  C10      1.0000 0.78490  0.96040  0.39690  Biso   1.000  C
  C11      1.0000 0.28490  0.53960  0.10310  Biso   1.000  C
  C12      1.0000 0.21510  0.46040  0.60310  Biso   1.000  C
  C13      1.0000 0.28490  0.96040  0.10310  Biso   1.000  C
  C14      1.0000 0.21510  0.03960  0.60310  Biso   1.000  C
  C15      1.0000 0.71510  0.46040  0.89690  Biso   1.000  C
  C16      1.0000 0.78490  0.53960  0.39690  Biso   1.000  C
  H17      1.0000 0.72590  0.04020  0.86170  Biso   1.000  H
  H18      1.0000 0.77410  0.95980  0.36170  Biso   1.000  H
  H19      1.0000 0.27410  0.54020  0.13830  Biso   1.000  H
  H20      1.0000 0.22590  0.45980  0.63830  Biso   1.000  H
  H21      1.0000 0.27410  0.95980  0.13830  Biso   1.000  H
  H22      1.0000 0.22590  0.04020  0.63830  Biso   1.000  H
  H23      1.0000 0.72590  0.45980  0.86170  Biso   1.000  H
  H24      1.0000 0.77410  0.54020  0.36170  Biso   1.000  H
  H25      1.0000 0.68340  0.08560  0.90540  Biso   1.000  H
  H26      1.0000 0.81660  0.91440  0.40540  Biso   1.000  H
  H27      1.0000 0.31660  0.58560  0.09460  Biso   1.000  H
  H28      1.0000 0.18340  0.41440  0.59460  Biso   1.000  H
  H29      1.0000 0.31660  0.91440  0.09460  Biso   1.000  H
  H30      1.0000 0.18340  0.08560  0.59460  Biso   1.000  H
  H31      1.0000 0.68340  0.41440  0.90540  Biso   1.000  H
  H32      1.0000 0.81660  0.58560  0.40540  Biso   1.000  H
  C17      1.0000 0.78930  0.89740  0.92370  Biso   1.000  C
  C18      1.0000 0.71070  0.10260  0.42370  Biso   1.000  C
  C19      1.0000 0.21070  0.39740  0.07630  Biso   1.000  C
  C20      1.0000 0.28930  0.60260  0.57630  Biso   1.000  C
  C21      1.0000 0.21070  0.10260  0.07630  Biso   1.000  C
  C22      1.0000 0.28930  0.89740  0.57630  Biso   1.000  C
  C23      1.0000 0.78930  0.60260  0.92370  Biso   1.000  C
  C24      1.0000 0.71070  0.39740  0.42370  Biso   1.000  C
  H33      1.0000 0.77800  0.86760  0.89440  Biso   1.000  H
  H34      1.0000 0.72200  0.13240  0.39440  Biso   1.000  H
  H35      1.0000 0.22200  0.36760  0.10560  Biso   1.000  H
  H36      1.0000 0.27800  0.63240  0.60560  Biso   1.000  H
  H37      1.0000 0.22200  0.13240  0.10560  Biso   1.000  H
  H38      1.0000 0.27800  0.86760  0.60560  Biso   1.000  H
  H39      1.0000 0.77800  0.63240  0.89440  Biso   1.000  H
  H40      1.0000 0.72200  0.36760  0.39440  Biso   1.000  H
  H41      1.0000 0.82180  0.86620  0.94700  Biso   1.000  H
  H42      1.0000 0.67820  0.13380  0.44700  Biso   1.000  H
  H43      1.0000 0.17820  0.36620  0.05300  Biso   1.000  H
  H44      1.0000 0.32180  0.63380  0.55300  Biso   1.000  H
  H45      1.0000 0.17820  0.13380  0.05300  Biso   1.000  H
  H46      1.0000 0.32180  0.86620  0.55300  Biso   1.000  H
  H47      1.0000 0.82180  0.63380  0.94700  Biso   1.000  H
  H48      1.0000 0.67820  0.36620  0.44700  Biso   1.000  H
  C25      1.0000 0.84530  0.96760  0.91030  Biso   1.000  C
  C26      1.0000 0.65470  0.03240  0.41030  Biso   1.000  C
  C27      1.0000 0.15470  0.46760  0.08970  Biso   1.000  C
  C28      1.0000 0.34530  0.53240  0.58970  Biso   1.000  C
  C29      1.0000 0.15470  0.03240  0.08970  Biso   1.000  C
  C30      1.0000 0.34530  0.96760  0.58970  Biso   1.000  C
  C31      1.0000 0.84530  0.53240  0.91030  Biso   1.000  C
  C32      1.0000 0.65470  0.46760  0.41030  Biso   1.000  C
  H49      1.0000 0.90200  0.96500  0.92730  Biso   1.000  H
  H50      1.0000 0.59800  0.03500  0.42730  Biso   1.000  H
  H51      1.0000 0.09800  0.46500  0.07270  Biso   1.000  H
  H52      1.0000 0.40200  0.53500  0.57270  Biso   1.000  H
  H53      1.0000 0.09800  0.03500  0.07270  Biso   1.000  H
  H54      1.0000 0.40200  0.96500  0.57270  Biso   1.000  H
  H55      1.0000 0.90200  0.53500  0.92730  Biso   1.000  H
  H56      1.0000 0.59800  0.46500  0.42730  Biso   1.000  H
  H57      1.0000 0.85720  0.96720  0.87510  Biso   1.000  H
  H58      1.0000 0.64280  0.03280  0.37510  Biso   1.000  H
  H59      1.0000 0.14280  0.46720  0.12490  Biso   1.000  H
  H60      1.0000 0.35720  0.53280  0.62490  Biso   1.000  H
  H61      1.0000 0.14280  0.03280  0.12490  Biso   1.000  H
  H62      1.0000 0.35720  0.96720  0.62490  Biso   1.000  H
  H63      1.0000 0.85720  0.53280  0.87510  Biso   1.000  H
  H64      1.0000 0.64280  0.46720  0.37510  Biso   1.000  H
  C33      1.0000 0.72420  0.96750  0.99070  Biso   1.000  C
  C34      1.0000 0.77580  0.03250  0.49070  Biso   1.000  C
  C35      1.0000 0.27580  0.46750  0.00930  Biso   1.000  C
  C36      1.0000 0.22420  0.53250  0.50930  Biso   1.000  C
  C37      1.0000 0.27580  0.03250  0.00930  Biso   1.000  C
  C38      1.0000 0.22420  0.96750  0.50930  Biso   1.000  C
  C39      1.0000 0.72420  0.53250  0.99070  Biso   1.000  C
  C40      1.0000 0.77580  0.46750  0.49070  Biso   1.000  C
  H65      1.0000 0.75560  0.93640  0.01440  Biso   1.000  H
  H66      1.0000 0.74440  0.06360  0.51440  Biso   1.000  H
  H67      1.0000 0.24440  0.43640  0.98560  Biso   1.000  H
  H68      1.0000 0.25560  0.56360  0.48560  Biso   1.000  H
  H69      1.0000 0.24440  0.06360  0.98560  Biso   1.000  H
  H70      1.0000 0.25560  0.93640  0.48560  Biso   1.000  H
  H71      1.0000 0.75560  0.56360  0.01440  Biso   1.000  H
  H72      1.0000 0.74440  0.43640  0.51440  Biso   1.000  H
  H73      1.0000 0.66900  0.98430  0.00570  Biso   1.000  H
  H74      1.0000 0.83100  0.01570  0.50570  Biso   1.000  H
  H75      1.0000 0.33100  0.48430  0.99430  Biso   1.000  H
  H76      1.0000 0.16900  0.51570  0.49430  Biso   1.000  H
  H77      1.0000 0.33100  0.01570  0.99430  Biso   1.000  H
  H78      1.0000 0.16900  0.98430  0.49430  Biso   1.000  H
  H79      1.0000 0.66900  0.51570  0.00570  Biso   1.000  H
  H80      1.0000 0.83100  0.48430  0.50570  Biso   1.000  H
  C41      1.0000 0.78130  0.03620  0.97710  Biso   1.000  C
  C42      1.0000 0.71870  0.96380  0.47710  Biso   1.000  C
  C43      1.0000 0.21870  0.53620  0.02290  Biso   1.000  C
  C44      1.0000 0.28130  0.46380  0.52290  Biso   1.000  C
  C45      1.0000 0.21870  0.96380  0.02290  Biso   1.000  C
  C46      1.0000 0.28130  0.03620  0.52290  Biso   1.000  C
  C47      1.0000 0.78130  0.46380  0.97710  Biso   1.000  C
  C48      1.0000 0.71870  0.53620  0.47710  Biso   1.000  C
  H81      1.0000 0.75020  0.08210  0.98640  Biso   1.000  H
  H82      1.0000 0.74980  0.91790  0.48640  Biso   1.000  H
  H83      1.0000 0.24980  0.58210  0.01360  Biso   1.000  H
  H84      1.0000 0.25020  0.41790  0.51360  Biso   1.000  H
  H85      1.0000 0.24980  0.91790  0.01360  Biso   1.000  H
  H86      1.0000 0.25020  0.08210  0.51360  Biso   1.000  H
  H87      1.0000 0.75020  0.41790  0.98640  Biso   1.000  H
  H88      1.0000 0.74980  0.58210  0.48640  Biso   1.000  H
  H89      1.0000 0.83680  0.03440  0.99530  Biso   1.000  H
  H90      1.0000 0.66320  0.96560  0.49530  Biso   1.000  H
  H91      1.0000 0.16320  0.53440  0.00470  Biso   1.000  H
  H92      1.0000 0.33680  0.46560  0.50470  Biso   1.000  H
  H93      1.0000 0.16320  0.96560  0.00470  Biso   1.000  H
  H94      1.0000 0.33680  0.03440  0.50470  Biso   1.000  H
  H95      1.0000 0.83680  0.46560  0.99530  Biso   1.000  H
  H96      1.0000 0.66320  0.53440  0.49530  Biso   1.000  H
  C49      1.0000 0.23090  0.04810  0.86510  Biso   1.000  C
  C50      1.0000 0.26910  0.95190  0.36510  Biso   1.000  C
  C51      1.0000 0.76910  0.54810  0.13490  Biso   1.000  C
  C52      1.0000 0.73090  0.45190  0.63490  Biso   1.000  C
  C53      1.0000 0.76910  0.95190  0.13490  Biso   1.000  C
  C54      1.0000 0.73090  0.04810  0.63490  Biso   1.000  C
  C55      1.0000 0.23090  0.45190  0.86510  Biso   1.000  C
  C56      1.0000 0.26910  0.54810  0.36510  Biso   1.000  C
  H97      1.0000 0.21820  0.05200  0.90010  Biso   1.000  H
  H98      1.0000 0.28180  0.94800  0.40010  Biso   1.000  H
  H99      1.0000 0.78180  0.55200  0.09990  Biso   1.000  H
  H100     1.0000 0.71820  0.44800  0.59990  Biso   1.000  H
  H101     1.0000 0.78180  0.94800  0.09990  Biso   1.000  H
  H102     1.0000 0.71820  0.05200  0.59990  Biso   1.000  H
  H103     1.0000 0.21820  0.44800  0.90010  Biso   1.000  H
  H104     1.0000 0.28180  0.55200  0.40010  Biso   1.000  H
  H105     1.0000 0.26270  0.09340  0.85520  Biso   1.000  H
  H106     1.0000 0.23730  0.90660  0.35520  Biso   1.000  H
  H107     1.0000 0.73730  0.59340  0.14480  Biso   1.000  H
  H108     1.0000 0.76270  0.40660  0.64480  Biso   1.000  H
  H109     1.0000 0.73730  0.90660  0.14480  Biso   1.000  H
  H110     1.0000 0.76270  0.09340  0.64480  Biso   1.000  H
  H111     1.0000 0.26270  0.40660  0.85520  Biso   1.000  H
  H112     1.0000 0.23730  0.59340  0.35520  Biso   1.000  H
  C57      1.0000 0.29030  0.97800  0.85570  Biso   1.000  C
  C58      1.0000 0.20970  0.02200  0.35570  Biso   1.000  C
  C59      1.0000 0.70970  0.47800  0.14430  Biso   1.000  C
  C60      1.0000 0.79030  0.52200  0.64430  Biso   1.000  C
  C61      1.0000 0.70970  0.02200  0.14430  Biso   1.000  C
  C62      1.0000 0.79030  0.97800  0.64430  Biso   1.000  C
  C63      1.0000 0.29030  0.52200  0.85570  Biso   1.000  C
  C64      1.0000 0.20970  0.47800  0.35570  Biso   1.000  C
  H113     1.0000 0.34750  0.99410  0.84290  Biso   1.000  H
  H114     1.0000 0.15250  0.00590  0.34290  Biso   1.000  H
  H115     1.0000 0.65250  0.49410  0.15710  Biso   1.000  H
  H116     1.0000 0.84750  0.50590  0.65710  Biso   1.000  H
  H117     1.0000 0.65250  0.00590  0.15710  Biso   1.000  H
  H118     1.0000 0.84750  0.99410  0.65710  Biso   1.000  H
  H119     1.0000 0.34750  0.50590  0.84290  Biso   1.000  H
  H120     1.0000 0.15250  0.49410  0.34290  Biso   1.000  H
  H121     1.0000 0.30040  0.95160  0.88650  Biso   1.000  H
  H122     1.0000 0.19960  0.04840  0.38650  Biso   1.000  H
  H123     1.0000 0.69960  0.45160  0.11350  Biso   1.000  H
  H124     1.0000 0.80040  0.54840  0.61350  Biso   1.000  H
  H125     1.0000 0.69960  0.04840  0.11350  Biso   1.000  H
  H126     1.0000 0.80040  0.95160  0.61350  Biso   1.000  H
  H127     1.0000 0.30040  0.54840  0.88650  Biso   1.000  H
  H128     1.0000 0.19960  0.45160  0.38650  Biso   1.000  H
  C65      1.0000 0.17030  0.03710  0.78420  Biso   1.000  C
  C66      1.0000 0.32970  0.96290  0.28420  Biso   1.000  C
  C67      1.0000 0.82970  0.53710  0.21580  Biso   1.000  C
  C68      1.0000 0.67030  0.46290  0.71580  Biso   1.000  C
  C69      1.0000 0.82970  0.96290  0.21580  Biso   1.000  C
  C70      1.0000 0.67030  0.03710  0.71580  Biso   1.000  C
  C71      1.0000 0.17030  0.46290  0.78420  Biso   1.000  C
  C72      1.0000 0.32970  0.53710  0.28420  Biso   1.000  C
  H129     1.0000 0.19970  0.08320  0.77360  Biso   1.000  H
  H130     1.0000 0.30030  0.91680  0.27360  Biso   1.000  H
  H131     1.0000 0.80030  0.58320  0.22640  Biso   1.000  H
  H132     1.0000 0.69970  0.41680  0.72640  Biso   1.000  H
  H133     1.0000 0.80030  0.91680  0.22640  Biso   1.000  H
  H134     1.0000 0.69970  0.08320  0.72640  Biso   1.000  H
  H135     1.0000 0.19970  0.41680  0.77360  Biso   1.000  H
  H136     1.0000 0.30030  0.58320  0.27360  Biso   1.000  H
  H137     1.0000 0.11630  0.03130  0.76500  Biso   1.000  H
  H138     1.0000 0.38370  0.96870  0.26500  Biso   1.000  H
  H139     1.0000 0.88370  0.53130  0.23500  Biso   1.000  H
  H140     1.0000 0.61630  0.46870  0.73500  Biso   1.000  H
  H141     1.0000 0.88370  0.96870  0.23500  Biso   1.000  H
  H142     1.0000 0.61630  0.03130  0.73500  Biso   1.000  H
  H143     1.0000 0.11630  0.46870  0.76500  Biso   1.000  H
  H144     1.0000 0.38370  0.53130  0.26500  Biso   1.000  H
  C73      1.0000 0.23140  0.97010  0.77490  Biso   1.000  C
  C74      1.0000 0.26860  0.02990  0.27490  Biso   1.000  C
  C75      1.0000 0.76860  0.47010  0.22510  Biso   1.000  C
  C76      1.0000 0.73140  0.52990  0.72510  Biso   1.000  C
  C77      1.0000 0.76860  0.02990  0.22510  Biso   1.000  C
  C78      1.0000 0.73140  0.97010  0.72510  Biso   1.000  C
  C79      1.0000 0.23140  0.52990  0.77490  Biso   1.000  C
  C80      1.0000 0.26860  0.47010  0.27490  Biso   1.000  C
  H145     1.0000 0.20450  0.93710  0.75050  Biso   1.000  H
  H146     1.0000 0.29550  0.06290  0.25050  Biso   1.000  H
  H147     1.0000 0.79550  0.43710  0.24950  Biso   1.000  H
  H148     1.0000 0.70450  0.56290  0.74950  Biso   1.000  H
  H149     1.0000 0.79550  0.06290  0.24950  Biso   1.000  H
  H150     1.0000 0.70450  0.93710  0.74950  Biso   1.000  H
  H151     1.0000 0.20450  0.56290  0.75050  Biso   1.000  H
  H152     1.0000 0.29550  0.43710  0.25050  Biso   1.000  H
  H153     1.0000 0.28760  0.98800  0.76180  Biso   1.000  H
  H154     1.0000 0.21240  0.01200  0.26180  Biso   1.000  H
  H155     1.0000 0.71240  0.48800  0.23820  Biso   1.000  H
  H156     1.0000 0.78760  0.51200  0.73820  Biso   1.000  H
  H157     1.0000 0.71240  0.01200  0.23820  Biso   1.000  H
  H158     1.0000 0.78760  0.98800  0.73820  Biso   1.000  H
  H159     1.0000 0.28760  0.51200  0.76180  Biso   1.000  H
  H160     1.0000 0.21240  0.48800  0.26180  Biso   1.000  H
  C81      1.0000 0.10190  0.97120  0.85080  Biso   1.000  C
  C82      1.0000 0.39810  0.02880  0.35080  Biso   1.000  C
  C83      1.0000 0.89810  0.47120  0.14920  Biso   1.000  C
  C84      1.0000 0.60190  0.52880  0.64920  Biso   1.000  C
  C85      1.0000 0.89810  0.02880  0.14920  Biso   1.000  C
  C86      1.0000 0.60190  0.97120  0.64920  Biso   1.000  C
  C87      1.0000 0.10190  0.52880  0.85080  Biso   1.000  C
  C88      1.0000 0.39810  0.47120  0.35080  Biso   1.000  C
  H161     1.0000 0.04730  0.96660  0.83190  Biso   1.000  H
  H162     1.0000 0.45270  0.03340  0.33190  Biso   1.000  H
  H163     1.0000 0.95270  0.46660  0.16810  Biso   1.000  H
  H164     1.0000 0.54730  0.53340  0.66810  Biso   1.000  H
  H165     1.0000 0.95270  0.03340  0.16810  Biso   1.000  H
  H166     1.0000 0.54730  0.96660  0.66810  Biso   1.000  H
  H167     1.0000 0.04730  0.53340  0.83190  Biso   1.000  H
  H168     1.0000 0.45270  0.46660  0.33190  Biso   1.000  H
  H169     1.0000 0.08610  0.97210  0.88540  Biso   1.000  H
  H170     1.0000 0.41390  0.02790  0.38540  Biso   1.000  H
  H171     1.0000 0.91390  0.47210  0.11460  Biso   1.000  H
  H172     1.0000 0.58610  0.52790  0.61460  Biso   1.000  H
  H173     1.0000 0.91390  0.02790  0.11460  Biso   1.000  H
  H174     1.0000 0.58610  0.97210  0.61460  Biso   1.000  H
  H175     1.0000 0.08610  0.52790  0.88540  Biso   1.000  H
  H176     1.0000 0.41390  0.47210  0.38540  Biso   1.000  H
  C89      1.0000 0.16130  0.90220  0.84060  Biso   1.000  C
  C90      1.0000 0.33870  0.09780  0.34060  Biso   1.000  C
  C91      1.0000 0.83870  0.40220  0.15940  Biso   1.000  C
  C92      1.0000 0.66130  0.59780  0.65940  Biso   1.000  C
  C93      1.0000 0.83870  0.09780  0.15940  Biso   1.000  C
  C94      1.0000 0.66130  0.90220  0.65940  Biso   1.000  C
  C95      1.0000 0.16130  0.59780  0.84060  Biso   1.000  C
  C96      1.0000 0.33870  0.40220  0.34060  Biso   1.000  C
  H177     1.0000 0.17060  0.87430  0.87100  Biso   1.000  H
  H178     1.0000 0.32940  0.12570  0.37100  Biso   1.000  H
  H179     1.0000 0.82940  0.37430  0.12900  Biso   1.000  H
  H180     1.0000 0.67060  0.62570  0.62900  Biso   1.000  H
  H181     1.0000 0.82940  0.12570  0.12900  Biso   1.000  H
  H182     1.0000 0.67060  0.87430  0.62900  Biso   1.000  H
  H183     1.0000 0.17060  0.62570  0.87100  Biso   1.000  H
  H184     1.0000 0.32940  0.37430  0.37100  Biso   1.000  H
  H185     1.0000 0.13200  0.86900  0.81730  Biso   1.000  H
  H186     1.0000 0.36800  0.13100  0.31730  Biso   1.000  H
  H187     1.0000 0.86800  0.36900  0.18270  Biso   1.000  H
  H188     1.0000 0.63200  0.63100  0.68270  Biso   1.000  H
  H189     1.0000 0.86800  0.13100  0.18270  Biso   1.000  H
  H190     1.0000 0.63200  0.86900  0.68270  Biso   1.000  H
  H191     1.0000 0.13200  0.63100  0.81730  Biso   1.000  H
  H192     1.0000 0.36800  0.36900  0.31730  Biso   1.000  H
  C97      1.0000 0.46770  0.81280  0.64190  Biso   1.000  C
  C98      1.0000 0.03230  0.18720  0.14190  Biso   1.000  C
  C99      1.0000 0.53230  0.31280  0.35810  Biso   1.000  C
  C100     1.0000 0.96770  0.68720  0.85810  Biso   1.000  C
  C101     1.0000 0.53230  0.18720  0.35810  Biso   1.000  C
  C102     1.0000 0.96770  0.81280  0.85810  Biso   1.000  C
  C103     1.0000 0.46770  0.68720  0.64190  Biso   1.000  C
  C104     1.0000 0.03230  0.31280  0.14190  Biso   1.000  C
  H193     1.0000 0.45490  0.85650  0.65950  Biso   1.000  H
  H194     1.0000 0.04510  0.14350  0.15950  Biso   1.000  H
  H195     1.0000 0.54510  0.35650  0.34050  Biso   1.000  H
  H196     1.0000 0.95490  0.64350  0.84050  Biso   1.000  H
  H197     1.0000 0.54510  0.14350  0.34050  Biso   1.000  H
  H198     1.0000 0.95490  0.85650  0.84050  Biso   1.000  H
  H199     1.0000 0.45490  0.64350  0.65950  Biso   1.000  H
  H200     1.0000 0.04510  0.35650  0.15950  Biso   1.000  H
  C105     1.0000 0.49800  0.81680  0.59330  Biso   1.000  C
  C106     1.0000 0.00200  0.18320  0.09330  Biso   1.000  C
  C107     1.0000 0.50200  0.31680  0.40670  Biso   1.000  C
  C108     1.0000 0.99800  0.68320  0.90670  Biso   1.000  C
  C109     1.0000 0.50200  0.18320  0.40670  Biso   1.000  C
  C110     1.0000 0.99800  0.81680  0.90670  Biso   1.000  C
  C111     1.0000 0.49800  0.68320  0.59330  Biso   1.000  C
  C112     1.0000 0.00200  0.31680  0.09330  Biso   1.000  C
  H201     1.0000 0.50610  0.86330  0.57790  Biso   1.000  H
  H202     1.0000 0.99390  0.13670  0.07790  Biso   1.000  H
  H203     1.0000 0.49390  0.36330  0.42210  Biso   1.000  H
  H204     1.0000 0.00610  0.63670  0.92210  Biso   1.000  H
  H205     1.0000 0.49390  0.13670  0.42210  Biso   1.000  H
  H206     1.0000 0.00610  0.86330  0.92210  Biso   1.000  H
  H207     1.0000 0.50610  0.63670  0.57790  Biso   1.000  H
  H208     1.0000 0.99390  0.36330  0.07790  Biso   1.000  H
  C113     1.0000 0.51550  0.75000  0.56870  Biso   1.000  C
  C114     1.0000 0.98450  0.25000  0.06870  Biso   1.000  C
  C115     1.0000 0.48450  0.25000  0.43130  Biso   1.000  C
  C116     1.0000 0.01550  0.75000  0.93130  Biso   1.000  C
  H209     1.0000 0.53830  0.75000  0.53680  Biso   1.000  H
  H210     1.0000 0.96170  0.25000  0.03680  Biso   1.000  H
  H211     1.0000 0.46170  0.25000  0.46320  Biso   1.000  H
  H212     1.0000 0.03830  0.75000  0.96320  Biso   1.000  H
  C117     1.0000 0.60850  0.75000  0.14220  Biso   1.000  C
  C118     1.0000 0.89150  0.25000  0.64220  Biso   1.000  C
  C119     1.0000 0.39150  0.25000  0.85780  Biso   1.000  C
  C120     1.0000 0.10850  0.75000  0.35780  Biso   1.000  C
  C121     1.0000 0.90170  0.25000  0.69690  Biso   1.000  C
  C122     1.0000 0.59830  0.75000  0.19690  Biso   1.000  C
  C123     1.0000 0.09830  0.75000  0.30310  Biso   1.000  C
  C124     1.0000 0.40170  0.25000  0.80310  Biso   1.000  C
  C125     1.0000 0.46830  0.81690  0.13200  Biso   1.000  C
  C126     1.0000 0.03170  0.18310  0.63200  Biso   1.000  C
  C127     1.0000 0.53170  0.31690  0.86800  Biso   1.000  C
  C128     1.0000 0.96830  0.68310  0.36800  Biso   1.000  C
  C129     1.0000 0.53170  0.18310  0.86800  Biso   1.000  C
  C130     1.0000 0.96830  0.81690  0.36800  Biso   1.000  C
  C131     1.0000 0.46830  0.68310  0.13200  Biso   1.000  C
  C132     1.0000 0.03170  0.31690  0.63200  Biso   1.000  C
  C133     1.0000 0.03990  0.18230  0.69030  Biso   1.000  C
  C134     1.0000 0.46010  0.81770  0.19030  Biso   1.000  C
  C135     1.0000 0.96010  0.68230  0.30970  Biso   1.000  C
  C136     1.0000 0.53990  0.31770  0.80970  Biso   1.000  C
  C137     1.0000 0.96010  0.81770  0.30970  Biso   1.000  C
  C138     1.0000 0.53990  0.18230  0.80970  Biso   1.000  C
  C139     1.0000 0.03990  0.31770  0.69030  Biso   1.000  C
  C140     1.0000 0.46010  0.68230  0.19030  Biso   1.000  C
  C141     1.0000 0.56440  0.82050  0.13050  Biso   1.000  C
  C142     1.0000 0.93560  0.17950  0.63050  Biso   1.000  C
  C143     1.0000 0.43560  0.32050  0.86950  Biso   1.000  C
  C144     1.0000 0.06440  0.67950  0.36950  Biso   1.000  C
  C145     1.0000 0.43560  0.17950  0.86950  Biso   1.000  C
  C146     1.0000 0.06440  0.82050  0.36950  Biso   1.000  C
  C147     1.0000 0.56440  0.67950  0.13050  Biso   1.000  C
  C148     1.0000 0.93560  0.32050  0.63050  Biso   1.000  C
  C149     1.0000 0.93700  0.18010  0.68860  Biso   1.000  C
  C150     1.0000 0.56300  0.81990  0.18860  Biso   1.000  C
  C151     1.0000 0.06300  0.68010  0.31140  Biso   1.000  C
  C152     1.0000 0.43700  0.31990  0.81140  Biso   1.000  C
  C153     1.0000 0.06300  0.81990  0.31140  Biso   1.000  C
  C154     1.0000 0.43700  0.18010  0.81140  Biso   1.000  C
  C155     1.0000 0.93700  0.31990  0.68860  Biso   1.000  C
  C156     1.0000 0.56300  0.68010  0.18860  Biso   1.000  C
  C157     1.0000 0.07700  0.25000  0.68100  Biso   1.000  C
  C158     1.0000 0.42300  0.75000  0.18100  Biso   1.000  C
  C159     1.0000 0.92300  0.75000  0.31900  Biso   1.000  C
  C160     1.0000 0.57700  0.25000  0.81900  Biso   1.000  C
  C161     1.0000 0.43000  0.75000  0.12630  Biso   1.000  C
  C162     1.0000 0.07000  0.25000  0.62630  Biso   1.000  C
  C163     1.0000 0.57000  0.25000  0.87370  Biso   1.000  C
  C164     1.0000 0.93000  0.75000  0.37370  Biso   1.000  C
  Cu57     1.0000 0.07660  0.25000  0.91630  Biso   1.000  Cu
  Cu58     1.0000 0.42340  0.75000  0.41630  Biso   1.000  Cu
  Cu59     1.0000 0.92340  0.75000  0.08370  Biso   1.000  Cu
  Cu60     1.0000 0.57660  0.25000  0.58370  Biso   1.000  Cu
  Cu61     1.0000 0.89890  0.25000  0.85160  Biso   1.000  Cu
  Cu62     1.0000 0.60110  0.75000  0.35160  Biso   1.000  Cu
  Cu63     1.0000 0.10110  0.75000  0.14840  Biso   1.000  Cu
  Cu64     1.0000 0.39890  0.25000  0.64840  Biso   1.000  Cu
