data_image0
_cell_length_a       17.1338
_cell_length_b       17.1338
_cell_length_c       19.6083
_cell_angle_alpha    90
_cell_angle_beta     90
_cell_angle_gamma    90

_symmetry_space_group_name_H-M    "P 1"
_symmetry_int_tables_number       1

loop_
  _symmetry_equiv_pos_as_xyz
  'x, y, z'

loop_
  _atom_site_label
  _atom_site_occupancy
  _atom_site_fract_x
  _atom_site_fract_y
  _atom_site_fract_z
  _atom_site_thermal_displace_type
  _atom_site_B_iso_or_equiv
  _atom_site_type_symbol
  I1       1.0000 0.12885  0.79446  0.95033  Biso   1.000  I
  I2       1.0000 0.37115  0.20554  0.45033  Biso   1.000  I
  I3       1.0000 0.95554  0.37885  0.20033  Biso   1.000  I
  I4       1.0000 0.54446  0.62115  0.70033  Biso   1.000  I
  I5       1.0000 0.62885  0.29446  0.45033  Biso   1.000  I
  I6       1.0000 0.87115  0.70554  0.95033  Biso   1.000  I
  I7       1.0000 0.45554  0.87885  0.70033  Biso   1.000  I
  I8       1.0000 0.04446  0.12115  0.20033  Biso   1.000  I
  I9       1.0000 0.87115  0.20554  0.04967  Biso   1.000  I
  I10      1.0000 0.62885  0.79446  0.54967  Biso   1.000  I
  I11      1.0000 0.54446  0.12115  0.29967  Biso   1.000  I
  I12      1.0000 0.95554  0.87885  0.79967  Biso   1.000  I
  I13      1.0000 0.37115  0.70554  0.54967  Biso   1.000  I
  I14      1.0000 0.12885  0.29446  0.04967  Biso   1.000  I
  I15      1.0000 0.04446  0.62115  0.79967  Biso   1.000  I
  I16      1.0000 0.45554  0.37885  0.29967  Biso   1.000  I
  Cu1      1.0000 0.01748  0.67400  0.92858  Biso   1.000  Cu
  Cu2      1.0000 0.48252  0.32600  0.42858  Biso   1.000  Cu
  Cu3      1.0000 0.07600  0.26748  0.17858  Biso   1.000  Cu
  Cu4      1.0000 0.42400  0.73252  0.67858  Biso   1.000  Cu
  Cu5      1.0000 0.51748  0.17400  0.42858  Biso   1.000  Cu
  Cu6      1.0000 0.98252  0.82600  0.92858  Biso   1.000  Cu
  Cu7      1.0000 0.57600  0.76748  0.67858  Biso   1.000  Cu
  Cu8      1.0000 0.92400  0.23252  0.17858  Biso   1.000  Cu
  Cu9      1.0000 0.98252  0.32600  0.07142  Biso   1.000  Cu
  Cu10     1.0000 0.51748  0.67400  0.57142  Biso   1.000  Cu
  Cu11     1.0000 0.42400  0.23252  0.32142  Biso   1.000  Cu
  Cu12     1.0000 0.07600  0.76748  0.82142  Biso   1.000  Cu
  Cu13     1.0000 0.48252  0.82600  0.57142  Biso   1.000  Cu
  Cu14     1.0000 0.01748  0.17400  0.07142  Biso   1.000  Cu
  Cu15     1.0000 0.92400  0.73252  0.82142  Biso   1.000  Cu
  Cu16     1.0000 0.57600  0.26748  0.32142  Biso   1.000  Cu
  Cu17     1.0000 0.19806  0.61558  0.89070  Biso   1.000  Cu
  Cu18     1.0000 0.30194  0.38442  0.39070  Biso   1.000  Cu
  Cu19     1.0000 0.13442  0.44806  0.14070  Biso   1.000  Cu
  Cu20     1.0000 0.36558  0.55194  0.64070  Biso   1.000  Cu
  Cu21     1.0000 0.69806  0.11558  0.39070  Biso   1.000  Cu
  Cu22     1.0000 0.80194  0.88442  0.89070  Biso   1.000  Cu
  Cu23     1.0000 0.63442  0.94806  0.64070  Biso   1.000  Cu
  Cu24     1.0000 0.86558  0.05194  0.14070  Biso   1.000  Cu
  Cu25     1.0000 0.80194  0.38442  0.10930  Biso   1.000  Cu
  Cu26     1.0000 0.69806  0.61558  0.60930  Biso   1.000  Cu
  Cu27     1.0000 0.36558  0.05194  0.35930  Biso   1.000  Cu
  Cu28     1.0000 0.13442  0.94806  0.85930  Biso   1.000  Cu
  Cu29     1.0000 0.30194  0.88442  0.60930  Biso   1.000  Cu
  Cu30     1.0000 0.19806  0.11558  0.10930  Biso   1.000  Cu
  Cu31     1.0000 0.86558  0.55194  0.85930  Biso   1.000  Cu
  Cu32     1.0000 0.63442  0.44806  0.35930  Biso   1.000  Cu
  N1       1.0000 0.07460  0.59930  0.98950  Biso   1.000  N
  N2       1.0000 0.42540  0.40070  0.48950  Biso   1.000  N
  N3       1.0000 0.15070  0.32460  0.23950  Biso   1.000  N
  N4       1.0000 0.34930  0.67540  0.73950  Biso   1.000  N
  N5       1.0000 0.57460  0.09930  0.48950  Biso   1.000  N
  N6       1.0000 0.92540  0.90070  0.98950  Biso   1.000  N
  N7       1.0000 0.65070  0.82460  0.73950  Biso   1.000  N
  N8       1.0000 0.84930  0.17540  0.23950  Biso   1.000  N
  N9       1.0000 0.92540  0.40070  0.01050  Biso   1.000  N
  N10      1.0000 0.57460  0.59930  0.51050  Biso   1.000  N
  N11      1.0000 0.34930  0.17540  0.26050  Biso   1.000  N
  N12      1.0000 0.15070  0.82460  0.76050  Biso   1.000  N
  N13      1.0000 0.42540  0.90070  0.51050  Biso   1.000  N
  N14      1.0000 0.07460  0.09930  0.01050  Biso   1.000  N
  N15      1.0000 0.84930  0.67540  0.76050  Biso   1.000  N
  N16      1.0000 0.65070  0.32460  0.26050  Biso   1.000  N
  N17      1.0000 0.14830  0.57720  0.97020  Biso   1.000  N
  N18      1.0000 0.35170  0.42280  0.47020  Biso   1.000  N
  N19      1.0000 0.17280  0.39830  0.22020  Biso   1.000  N
  N20      1.0000 0.32720  0.60170  0.72020  Biso   1.000  N
  N21      1.0000 0.64830  0.07720  0.47020  Biso   1.000  N
  N22      1.0000 0.85170  0.92280  0.97020  Biso   1.000  N
  N23      1.0000 0.67280  0.89830  0.72020  Biso   1.000  N
  N24      1.0000 0.82720  0.10170  0.22020  Biso   1.000  N
  N25      1.0000 0.85170  0.42280  0.02980  Biso   1.000  N
  N26      1.0000 0.64830  0.57720  0.52980  Biso   1.000  N
  N27      1.0000 0.32720  0.10170  0.27980  Biso   1.000  N
  N28      1.0000 0.17280  0.89830  0.77980  Biso   1.000  N
  N29      1.0000 0.35170  0.92280  0.52980  Biso   1.000  N
  N30      1.0000 0.14830  0.07720  0.02980  Biso   1.000  N
  N31      1.0000 0.82720  0.60170  0.77980  Biso   1.000  N
  N32      1.0000 0.67280  0.39830  0.27980  Biso   1.000  N
  N33      1.0000 0.12190  0.51880  0.06710  Biso   1.000  N
  N34      1.0000 0.37810  0.48120  0.56710  Biso   1.000  N
  N35      1.0000 0.23120  0.37190  0.31710  Biso   1.000  N
  N36      1.0000 0.26880  0.62810  0.81710  Biso   1.000  N
  N37      1.0000 0.62190  0.01880  0.56710  Biso   1.000  N
  N38      1.0000 0.87810  0.98120  0.06710  Biso   1.000  N
  N39      1.0000 0.73120  0.87190  0.81710  Biso   1.000  N
  N40      1.0000 0.76880  0.12810  0.31710  Biso   1.000  N
  N41      1.0000 0.87810  0.48120  0.93290  Biso   1.000  N
  N42      1.0000 0.62190  0.51880  0.43290  Biso   1.000  N
  N43      1.0000 0.26880  0.12810  0.18290  Biso   1.000  N
  N44      1.0000 0.23120  0.87190  0.68290  Biso   1.000  N
  N45      1.0000 0.37810  0.98120  0.43290  Biso   1.000  N
  N46      1.0000 0.12190  0.01880  0.93290  Biso   1.000  N
  N47      1.0000 0.76880  0.62810  0.68290  Biso   1.000  N
  N48      1.0000 0.73120  0.37190  0.18290  Biso   1.000  N
  C1       1.0000 0.05990  0.56320  0.04790  Biso   1.000  C
  C2       1.0000 0.44010  0.43680  0.54790  Biso   1.000  C
  C3       1.0000 0.18680  0.30990  0.29790  Biso   1.000  C
  C4       1.0000 0.31320  0.69010  0.79790  Biso   1.000  C
  C5       1.0000 0.55990  0.06320  0.54790  Biso   1.000  C
  C6       1.0000 0.94010  0.93680  0.04790  Biso   1.000  C
  C7       1.0000 0.68680  0.80990  0.79790  Biso   1.000  C
  C8       1.0000 0.81320  0.19010  0.29790  Biso   1.000  C
  C9       1.0000 0.94010  0.43680  0.95210  Biso   1.000  C
  C10      1.0000 0.55990  0.56320  0.45210  Biso   1.000  C
  C11      1.0000 0.31320  0.19010  0.20210  Biso   1.000  C
  C12      1.0000 0.18680  0.80990  0.70210  Biso   1.000  C
  C13      1.0000 0.44010  0.93680  0.45210  Biso   1.000  C
  C14      1.0000 0.05990  0.06320  0.95210  Biso   1.000  C
  C15      1.0000 0.81320  0.69010  0.70210  Biso   1.000  C
  C16      1.0000 0.68680  0.30990  0.20210  Biso   1.000  C
  C17      1.0000 0.98820  0.57290  0.08830  Biso   1.000  C
  C18      1.0000 0.51180  0.42710  0.58830  Biso   1.000  C
  C19      1.0000 0.17710  0.23820  0.33830  Biso   1.000  C
  C20      1.0000 0.32290  0.76180  0.83830  Biso   1.000  C
  C21      1.0000 0.48820  0.07290  0.58830  Biso   1.000  C
  C22      1.0000 0.01180  0.92710  0.08830  Biso   1.000  C
  C23      1.0000 0.67710  0.73820  0.83830  Biso   1.000  C
  C24      1.0000 0.82290  0.26180  0.33830  Biso   1.000  C
  C25      1.0000 0.01180  0.42710  0.91170  Biso   1.000  C
  C26      1.0000 0.48820  0.57290  0.41170  Biso   1.000  C
  C27      1.0000 0.32290  0.26180  0.16170  Biso   1.000  C
  C28      1.0000 0.17710  0.73820  0.66170  Biso   1.000  C
  C29      1.0000 0.51180  0.92710  0.41170  Biso   1.000  C
  C30      1.0000 0.98820  0.07290  0.91170  Biso   1.000  C
  C31      1.0000 0.82290  0.76180  0.66170  Biso   1.000  C
  C32      1.0000 0.67710  0.23820  0.16170  Biso   1.000  C
  H1       1.0000 0.96220  0.52290  0.09310  Biso   1.000  H
  H2       1.0000 0.53780  0.47710  0.59310  Biso   1.000  H
  H3       1.0000 0.22710  0.21220  0.34310  Biso   1.000  H
  H4       1.0000 0.27290  0.78780  0.84310  Biso   1.000  H
  H5       1.0000 0.46220  0.02290  0.59310  Biso   1.000  H
  H6       1.0000 0.03780  0.97710  0.09310  Biso   1.000  H
  H7       1.0000 0.72710  0.71220  0.84310  Biso   1.000  H
  H8       1.0000 0.77290  0.28780  0.34310  Biso   1.000  H
  H9       1.0000 0.03780  0.47710  0.90690  Biso   1.000  H
  H10      1.0000 0.46220  0.52290  0.40690  Biso   1.000  H
  H11      1.0000 0.27290  0.28780  0.15690  Biso   1.000  H
  H12      1.0000 0.22710  0.71220  0.65690  Biso   1.000  H
  H13      1.0000 0.53780  0.97710  0.40690  Biso   1.000  H
  H14      1.0000 0.96220  0.02290  0.90690  Biso   1.000  H
  H15      1.0000 0.77290  0.78780  0.65690  Biso   1.000  H
  H16      1.0000 0.72710  0.21220  0.15690  Biso   1.000  H
  H17      1.0000 0.95290  0.60820  0.06480  Biso   1.000  H
  H18      1.0000 0.54710  0.39180  0.56480  Biso   1.000  H
  H19      1.0000 0.14180  0.20290  0.31480  Biso   1.000  H
  H20      1.0000 0.35820  0.79710  0.81480  Biso   1.000  H
  H21      1.0000 0.45290  0.10820  0.56480  Biso   1.000  H
  H22      1.0000 0.04710  0.89180  0.06480  Biso   1.000  H
  H23      1.0000 0.64180  0.70290  0.81480  Biso   1.000  H
  H24      1.0000 0.85820  0.29710  0.31480  Biso   1.000  H
  H25      1.0000 0.04710  0.39180  0.93520  Biso   1.000  H
  H26      1.0000 0.45290  0.60820  0.43520  Biso   1.000  H
  H27      1.0000 0.35820  0.29710  0.18520  Biso   1.000  H
  H28      1.0000 0.14180  0.70290  0.68520  Biso   1.000  H
  H29      1.0000 0.54710  0.89180  0.43520  Biso   1.000  H
  H30      1.0000 0.95290  0.10820  0.93520  Biso   1.000  H
  H31      1.0000 0.85820  0.79710  0.68520  Biso   1.000  H
  H32      1.0000 0.64180  0.20290  0.18520  Biso   1.000  H
  C33      1.0000 0.00780  0.60590  0.15930  Biso   1.000  C
  C34      1.0000 0.49220  0.39410  0.65930  Biso   1.000  C
  C35      1.0000 0.14410  0.25780  0.40930  Biso   1.000  C
  C36      1.0000 0.35590  0.74220  0.90930  Biso   1.000  C
  C37      1.0000 0.50780  0.10590  0.65930  Biso   1.000  C
  C38      1.0000 0.99220  0.89410  0.15930  Biso   1.000  C
  C39      1.0000 0.64410  0.75780  0.90930  Biso   1.000  C
  C40      1.0000 0.85590  0.24220  0.40930  Biso   1.000  C
  C41      1.0000 0.99220  0.39410  0.84070  Biso   1.000  C
  C42      1.0000 0.50780  0.60590  0.34070  Biso   1.000  C
  C43      1.0000 0.35590  0.24220  0.09070  Biso   1.000  C
  C44      1.0000 0.14410  0.75780  0.59070  Biso   1.000  C
  C45      1.0000 0.49220  0.89410  0.34070  Biso   1.000  C
  C46      1.0000 0.00780  0.10590  0.84070  Biso   1.000  C
  C47      1.0000 0.85590  0.74220  0.59070  Biso   1.000  C
  C48      1.0000 0.64410  0.25780  0.09070  Biso   1.000  C
  H33      1.0000 0.05850  0.58780  0.17300  Biso   1.000  H
  H34      1.0000 0.44150  0.41220  0.67300  Biso   1.000  H
  H35      1.0000 0.16220  0.30850  0.42300  Biso   1.000  H
  H36      1.0000 0.33780  0.69150  0.92300  Biso   1.000  H
  H37      1.0000 0.55850  0.08780  0.67300  Biso   1.000  H
  H38      1.0000 0.94150  0.91220  0.17300  Biso   1.000  H
  H39      1.0000 0.66220  0.80850  0.92300  Biso   1.000  H
  H40      1.0000 0.83780  0.19150  0.42300  Biso   1.000  H
  H41      1.0000 0.94150  0.41220  0.82700  Biso   1.000  H
  H42      1.0000 0.55850  0.58780  0.32700  Biso   1.000  H
  H43      1.0000 0.33780  0.19150  0.07700  Biso   1.000  H
  H44      1.0000 0.16220  0.80850  0.57700  Biso   1.000  H
  H45      1.0000 0.44150  0.91220  0.32700  Biso   1.000  H
  H46      1.0000 0.05850  0.08780  0.82700  Biso   1.000  H
  H47      1.0000 0.83780  0.69150  0.57700  Biso   1.000  H
  H48      1.0000 0.66220  0.30850  0.07700  Biso   1.000  H
  H49      1.0000 0.96950  0.58850  0.19160  Biso   1.000  H
  H50      1.0000 0.53050  0.41150  0.69160  Biso   1.000  H
  H51      1.0000 0.16150  0.21950  0.44160  Biso   1.000  H
  H52      1.0000 0.33850  0.78050  0.94160  Biso   1.000  H
  H53      1.0000 0.46950  0.08850  0.69160  Biso   1.000  H
  H54      1.0000 0.03050  0.91150  0.19160  Biso   1.000  H
  H55      1.0000 0.66150  0.71950  0.94160  Biso   1.000  H
  H56      1.0000 0.83850  0.28050  0.44160  Biso   1.000  H
  H57      1.0000 0.03050  0.41150  0.80840  Biso   1.000  H
  H58      1.0000 0.46950  0.58850  0.30840  Biso   1.000  H
  H59      1.0000 0.33850  0.28050  0.05840  Biso   1.000  H
  H60      1.0000 0.16150  0.71950  0.55840  Biso   1.000  H
  H61      1.0000 0.53050  0.91150  0.30840  Biso   1.000  H
  H62      1.0000 0.96950  0.08850  0.80840  Biso   1.000  H
  H63      1.0000 0.83850  0.78050  0.55840  Biso   1.000  H
  H64      1.0000 0.66150  0.21950  0.05840  Biso   1.000  H
  H65      1.0000 0.00780  0.66190  0.15750  Biso   1.000  H
  H66      1.0000 0.49220  0.33810  0.65750  Biso   1.000  H
  H67      1.0000 0.08810  0.25780  0.40750  Biso   1.000  H
  H68      1.0000 0.41190  0.74220  0.90750  Biso   1.000  H
  H69      1.0000 0.50780  0.16190  0.65750  Biso   1.000  H
  H70      1.0000 0.99220  0.83810  0.15750  Biso   1.000  H
  H71      1.0000 0.58810  0.75780  0.90750  Biso   1.000  H
  H72      1.0000 0.91190  0.24220  0.40750  Biso   1.000  H
  H73      1.0000 0.99220  0.33810  0.84250  Biso   1.000  H
  H74      1.0000 0.50780  0.66190  0.34250  Biso   1.000  H
  H75      1.0000 0.41190  0.24220  0.09250  Biso   1.000  H
  H76      1.0000 0.08810  0.75780  0.59250  Biso   1.000  H
  H77      1.0000 0.49220  0.83810  0.34250  Biso   1.000  H
  H78      1.0000 0.00780  0.16190  0.84250  Biso   1.000  H
  H79      1.0000 0.91190  0.74220  0.59250  Biso   1.000  H
  H80      1.0000 0.58810  0.25780  0.09250  Biso   1.000  H
  C49      1.0000 0.17470  0.52980  0.01780  Biso   1.000  C
  C50      1.0000 0.32530  0.47020  0.51780  Biso   1.000  C
  C51      1.0000 0.22020  0.42470  0.26780  Biso   1.000  C
  C52      1.0000 0.27980  0.57530  0.76780  Biso   1.000  C
  C53      1.0000 0.67470  0.02980  0.51780  Biso   1.000  C
  C54      1.0000 0.82530  0.97020  0.01780  Biso   1.000  C
  C55      1.0000 0.72020  0.92470  0.76780  Biso   1.000  C
  C56      1.0000 0.77980  0.07530  0.26780  Biso   1.000  C
  C57      1.0000 0.82530  0.47020  0.98220  Biso   1.000  C
  C58      1.0000 0.67470  0.52980  0.48220  Biso   1.000  C
  C59      1.0000 0.27980  0.07530  0.23220  Biso   1.000  C
  C60      1.0000 0.22020  0.92470  0.73220  Biso   1.000  C
  C61      1.0000 0.32530  0.97020  0.48220  Biso   1.000  C
  C62      1.0000 0.17470  0.02980  0.98220  Biso   1.000  C
  C63      1.0000 0.77980  0.57530  0.73220  Biso   1.000  C
  C64      1.0000 0.72020  0.42470  0.23220  Biso   1.000  C
  C65      1.0000 0.25330  0.49340  0.01570  Biso   1.000  C
  C66      1.0000 0.24670  0.50660  0.51570  Biso   1.000  C
  C67      1.0000 0.25660  0.50330  0.26570  Biso   1.000  C
  C68      1.0000 0.24340  0.49670  0.76570  Biso   1.000  C
  C69      1.0000 0.75330  0.99340  0.51570  Biso   1.000  C
  C70      1.0000 0.74670  0.00660  0.01570  Biso   1.000  C
  C71      1.0000 0.75660  0.00330  0.76570  Biso   1.000  C
  C72      1.0000 0.74340  0.99670  0.26570  Biso   1.000  C
  C73      1.0000 0.74670  0.50660  0.98430  Biso   1.000  C
  C74      1.0000 0.75330  0.49340  0.48430  Biso   1.000  C
  C75      1.0000 0.24340  0.99670  0.23430  Biso   1.000  C
  C76      1.0000 0.25660  0.00330  0.73430  Biso   1.000  C
  C77      1.0000 0.24670  0.00660  0.48430  Biso   1.000  C
  C78      1.0000 0.25330  0.99340  0.98430  Biso   1.000  C
  C79      1.0000 0.74340  0.49670  0.73430  Biso   1.000  C
  C80      1.0000 0.75660  0.50330  0.23430  Biso   1.000  C
  H81      1.0000 0.24670  0.43760  0.01000  Biso   1.000  H
  H82      1.0000 0.25330  0.56240  0.51000  Biso   1.000  H
  H83      1.0000 0.31240  0.49670  0.26000  Biso   1.000  H
  H84      1.0000 0.18760  0.50330  0.76000  Biso   1.000  H
  H85      1.0000 0.74670  0.93760  0.51000  Biso   1.000  H
  H86      1.0000 0.75330  0.06240  0.01000  Biso   1.000  H
  H87      1.0000 0.81240  0.99670  0.76000  Biso   1.000  H
  H88      1.0000 0.68760  0.00330  0.26000  Biso   1.000  H
  H89      1.0000 0.75330  0.56240  0.99000  Biso   1.000  H
  H90      1.0000 0.74670  0.43760  0.49000  Biso   1.000  H
  H91      1.0000 0.18760  0.00330  0.24000  Biso   1.000  H
  H92      1.0000 0.31240  0.99670  0.74000  Biso   1.000  H
  H93      1.0000 0.25330  0.06240  0.49000  Biso   1.000  H
  H94      1.0000 0.24670  0.93760  0.99000  Biso   1.000  H
  H95      1.0000 0.68760  0.50330  0.74000  Biso   1.000  H
  H96      1.0000 0.81240  0.49670  0.24000  Biso   1.000  H
  H97      1.0000 0.28030  0.51260  0.97560  Biso   1.000  H
  H98      1.0000 0.21970  0.48740  0.47560  Biso   1.000  H
  H99      1.0000 0.23740  0.53030  0.22560  Biso   1.000  H
  H100     1.0000 0.26260  0.46970  0.72560  Biso   1.000  H
  H101     1.0000 0.78030  0.01260  0.47560  Biso   1.000  H
  H102     1.0000 0.71970  0.98740  0.97560  Biso   1.000  H
  H103     1.0000 0.73740  0.03030  0.72560  Biso   1.000  H
  H104     1.0000 0.76260  0.96970  0.22560  Biso   1.000  H
  H105     1.0000 0.71970  0.48740  0.02440  Biso   1.000  H
  H106     1.0000 0.78030  0.51260  0.52440  Biso   1.000  H
  H107     1.0000 0.26260  0.96970  0.27440  Biso   1.000  H
  H108     1.0000 0.23740  0.03030  0.77440  Biso   1.000  H
  H109     1.0000 0.21970  0.98740  0.52440  Biso   1.000  H
  H110     1.0000 0.28030  0.01260  0.02440  Biso   1.000  H
  H111     1.0000 0.76260  0.46970  0.77440  Biso   1.000  H
  H112     1.0000 0.73740  0.53030  0.27440  Biso   1.000  H
  C81      1.0000 0.30230  0.50600  0.07350  Biso   1.000  C
  C82      1.0000 0.19770  0.49400  0.57350  Biso   1.000  C
  C83      1.0000 0.24400  0.55230  0.32350  Biso   1.000  C
  C84      1.0000 0.25600  0.44770  0.82350  Biso   1.000  C
  C85      1.0000 0.80230  0.00600  0.57350  Biso   1.000  C
  C86      1.0000 0.69770  0.99400  0.07350  Biso   1.000  C
  C87      1.0000 0.74400  0.05230  0.82350  Biso   1.000  C
  C88      1.0000 0.75600  0.94770  0.32350  Biso   1.000  C
  C89      1.0000 0.69770  0.49400  0.92650  Biso   1.000  C
  C90      1.0000 0.80230  0.50600  0.42650  Biso   1.000  C
  C91      1.0000 0.25600  0.94770  0.17650  Biso   1.000  C
  C92      1.0000 0.24400  0.05230  0.67650  Biso   1.000  C
  C93      1.0000 0.19770  0.99400  0.42650  Biso   1.000  C
  C94      1.0000 0.30230  0.00600  0.92650  Biso   1.000  C
  C95      1.0000 0.75600  0.44770  0.67650  Biso   1.000  C
  C96      1.0000 0.74400  0.55230  0.17650  Biso   1.000  C
  H113     1.0000 0.31740  0.45700  0.09270  Biso   1.000  H
  H114     1.0000 0.18260  0.54300  0.59270  Biso   1.000  H
  H115     1.0000 0.29300  0.56740  0.34270  Biso   1.000  H
  H116     1.0000 0.20700  0.43260  0.84270  Biso   1.000  H
  H117     1.0000 0.81740  0.95700  0.59270  Biso   1.000  H
  H118     1.0000 0.68260  0.04300  0.09270  Biso   1.000  H
  H119     1.0000 0.79300  0.06740  0.84270  Biso   1.000  H
  H120     1.0000 0.70700  0.93260  0.34270  Biso   1.000  H
  H121     1.0000 0.68260  0.54300  0.90730  Biso   1.000  H
  H122     1.0000 0.81740  0.45700  0.40730  Biso   1.000  H
  H123     1.0000 0.20700  0.93260  0.15730  Biso   1.000  H
  H124     1.0000 0.29300  0.06740  0.65730  Biso   1.000  H
  H125     1.0000 0.18260  0.04300  0.40730  Biso   1.000  H
  H126     1.0000 0.31740  0.95700  0.90730  Biso   1.000  H
  H127     1.0000 0.70700  0.43260  0.65730  Biso   1.000  H
  H128     1.0000 0.79300  0.56740  0.15730  Biso   1.000  H
  H129     1.0000 0.27440  0.53600  0.10710  Biso   1.000  H
  H130     1.0000 0.22560  0.46400  0.60710  Biso   1.000  H
  H131     1.0000 0.21400  0.52440  0.35710  Biso   1.000  H
  H132     1.0000 0.28600  0.47560  0.85710  Biso   1.000  H
  H133     1.0000 0.77440  0.03600  0.60710  Biso   1.000  H
  H134     1.0000 0.72560  0.96400  0.10710  Biso   1.000  H
  H135     1.0000 0.71400  0.02440  0.85710  Biso   1.000  H
  H136     1.0000 0.78600  0.97560  0.35710  Biso   1.000  H
  H137     1.0000 0.72560  0.46400  0.89290  Biso   1.000  H
  H138     1.0000 0.77440  0.53600  0.39290  Biso   1.000  H
  H139     1.0000 0.28600  0.97560  0.14290  Biso   1.000  H
  H140     1.0000 0.21400  0.02440  0.64290  Biso   1.000  H
  H141     1.0000 0.22560  0.96400  0.39290  Biso   1.000  H
  H142     1.0000 0.27440  0.03600  0.89290  Biso   1.000  H
  H143     1.0000 0.78600  0.47560  0.64290  Biso   1.000  H
  H144     1.0000 0.71400  0.52440  0.14290  Biso   1.000  H
  H145     1.0000 0.34810  0.53450  0.05970  Biso   1.000  H
  H146     1.0000 0.15190  0.46550  0.55970  Biso   1.000  H
  H147     1.0000 0.21550  0.59810  0.30970  Biso   1.000  H
  H148     1.0000 0.28450  0.40190  0.80970  Biso   1.000  H
  H149     1.0000 0.84810  0.03450  0.55970  Biso   1.000  H
  H150     1.0000 0.65190  0.96550  0.05970  Biso   1.000  H
  H151     1.0000 0.71550  0.09810  0.80970  Biso   1.000  H
  H152     1.0000 0.78450  0.90190  0.30970  Biso   1.000  H
  H153     1.0000 0.65190  0.46550  0.94030  Biso   1.000  H
  H154     1.0000 0.84810  0.53450  0.44030  Biso   1.000  H
  H155     1.0000 0.28450  0.90190  0.19030  Biso   1.000  H
  H156     1.0000 0.21550  0.09810  0.69030  Biso   1.000  H
  H157     1.0000 0.15190  0.96550  0.44030  Biso   1.000  H
  H158     1.0000 0.34810  0.03450  0.94030  Biso   1.000  H
  H159     1.0000 0.78450  0.40190  0.69030  Biso   1.000  H
  H160     1.0000 0.71550  0.59810  0.19030  Biso   1.000  H
  C97      1.0000 0.99340  0.64060  0.13920  Biso   1.000  C
  C98      1.0000 0.50660  0.35940  0.63920  Biso   1.000  C
  C99      1.0000 0.10940  0.24340  0.38920  Biso   1.000  C
  C100     1.0000 0.39060  0.75660  0.88920  Biso   1.000  C
  C101     1.0000 0.49340  0.14060  0.63920  Biso   1.000  C
  C102     1.0000 0.00660  0.85940  0.13920  Biso   1.000  C
  C103     1.0000 0.60940  0.74340  0.88920  Biso   1.000  C
  C104     1.0000 0.89060  0.25660  0.38920  Biso   1.000  C
  C105     1.0000 0.00660  0.35940  0.86080  Biso   1.000  C
  C106     1.0000 0.49340  0.64060  0.36080  Biso   1.000  C
  C107     1.0000 0.39060  0.25660  0.11080  Biso   1.000  C
  C108     1.0000 0.10940  0.74340  0.61080  Biso   1.000  C
  C109     1.0000 0.50660  0.85940  0.36080  Biso   1.000  C
  C110     1.0000 0.99340  0.14060  0.86080  Biso   1.000  C
  C111     1.0000 0.89060  0.75660  0.61080  Biso   1.000  C
  C112     1.0000 0.60940  0.24340  0.11080  Biso   1.000  C
  C113     1.0000 0.30590  0.55210  0.03970  Biso   1.000  C
  C114     1.0000 0.19410  0.44790  0.53970  Biso   1.000  C
  C115     1.0000 0.19790  0.55590  0.28970  Biso   1.000  C
  C116     1.0000 0.30210  0.44410  0.78970  Biso   1.000  C
  C117     1.0000 0.80590  0.05210  0.53970  Biso   1.000  C
  C118     1.0000 0.69410  0.94790  0.03970  Biso   1.000  C
  C119     1.0000 0.69790  0.05590  0.78970  Biso   1.000  C
  C120     1.0000 0.80210  0.94410  0.28970  Biso   1.000  C
  C121     1.0000 0.69410  0.44790  0.96030  Biso   1.000  C
  C122     1.0000 0.80590  0.55210  0.46030  Biso   1.000  C
  C123     1.0000 0.30210  0.94410  0.21030  Biso   1.000  C
  C124     1.0000 0.19790  0.05590  0.71030  Biso   1.000  C
  C125     1.0000 0.19410  0.94790  0.46030  Biso   1.000  C
  C126     1.0000 0.30590  0.05210  0.96030  Biso   1.000  C
  C127     1.0000 0.80210  0.44410  0.71030  Biso   1.000  C
  C128     1.0000 0.69790  0.55590  0.21030  Biso   1.000  C
  H161     1.0000 0.97780  0.52500  0.11300  Biso   1.000  H
  H162     1.0000 0.52220  0.47500  0.61300  Biso   1.000  H
  H163     1.0000 0.22500  0.22780  0.36300  Biso   1.000  H
  H164     1.0000 0.27500  0.77220  0.86300  Biso   1.000  H
  H165     1.0000 0.47780  0.02500  0.61300  Biso   1.000  H
  H166     1.0000 0.02220  0.97500  0.11300  Biso   1.000  H
  H167     1.0000 0.72500  0.72780  0.86300  Biso   1.000  H
  H168     1.0000 0.77500  0.27220  0.36300  Biso   1.000  H
  H169     1.0000 0.02220  0.47500  0.88700  Biso   1.000  H
  H170     1.0000 0.47780  0.52500  0.38700  Biso   1.000  H
  H171     1.0000 0.27500  0.27220  0.13700  Biso   1.000  H
  H172     1.0000 0.22500  0.72780  0.63700  Biso   1.000  H
  H173     1.0000 0.52220  0.97500  0.38700  Biso   1.000  H
  H174     1.0000 0.97780  0.02500  0.88700  Biso   1.000  H
  H175     1.0000 0.77500  0.77220  0.63700  Biso   1.000  H
  H176     1.0000 0.72500  0.22780  0.13700  Biso   1.000  H
  H177     1.0000 0.94470  0.58210  0.05760  Biso   1.000  H
  H178     1.0000 0.55530  0.41790  0.55760  Biso   1.000  H
  H179     1.0000 0.16790  0.19470  0.30760  Biso   1.000  H
  H180     1.0000 0.33210  0.80530  0.80760  Biso   1.000  H
  H181     1.0000 0.44470  0.08210  0.55760  Biso   1.000  H
  H182     1.0000 0.05530  0.91790  0.05760  Biso   1.000  H
  H183     1.0000 0.66790  0.69470  0.80760  Biso   1.000  H
  H184     1.0000 0.83210  0.30530  0.30760  Biso   1.000  H
  H185     1.0000 0.05530  0.41790  0.94240  Biso   1.000  H
  H186     1.0000 0.44470  0.58210  0.44240  Biso   1.000  H
  H187     1.0000 0.33210  0.30530  0.19240  Biso   1.000  H
  H188     1.0000 0.16790  0.69470  0.69240  Biso   1.000  H
  H189     1.0000 0.55530  0.91790  0.44240  Biso   1.000  H
  H190     1.0000 0.94470  0.08210  0.94240  Biso   1.000  H
  H191     1.0000 0.83210  0.80530  0.69240  Biso   1.000  H
  H192     1.0000 0.66790  0.19470  0.19240  Biso   1.000  H
  H193     1.0000 0.95450  0.63410  0.17390  Biso   1.000  H
  H194     1.0000 0.54550  0.36590  0.67390  Biso   1.000  H
  H195     1.0000 0.11590  0.20450  0.42390  Biso   1.000  H
  H196     1.0000 0.38410  0.79550  0.92390  Biso   1.000  H
  H197     1.0000 0.45450  0.13410  0.67390  Biso   1.000  H
  H198     1.0000 0.04550  0.86590  0.17390  Biso   1.000  H
  H199     1.0000 0.61590  0.70450  0.92390  Biso   1.000  H
  H200     1.0000 0.88410  0.29550  0.42390  Biso   1.000  H
  H201     1.0000 0.04550  0.36590  0.82610  Biso   1.000  H
  H202     1.0000 0.45450  0.63410  0.32610  Biso   1.000  H
  H203     1.0000 0.38410  0.29550  0.07610  Biso   1.000  H
  H204     1.0000 0.11590  0.70450  0.57610  Biso   1.000  H
  H205     1.0000 0.54550  0.86590  0.32610  Biso   1.000  H
  H206     1.0000 0.95450  0.13410  0.82610  Biso   1.000  H
  H207     1.0000 0.88410  0.79550  0.57610  Biso   1.000  H
  H208     1.0000 0.61590  0.20450  0.07610  Biso   1.000  H
  H209     1.0000 0.98480  0.68900  0.11570  Biso   1.000  H
  H210     1.0000 0.51520  0.31100  0.61570  Biso   1.000  H
  H211     1.0000 0.06100  0.23480  0.36570  Biso   1.000  H
  H212     1.0000 0.43900  0.76520  0.86570  Biso   1.000  H
  H213     1.0000 0.48480  0.18900  0.61570  Biso   1.000  H
  H214     1.0000 0.01520  0.81100  0.11570  Biso   1.000  H
  H215     1.0000 0.56100  0.73480  0.86570  Biso   1.000  H
  H216     1.0000 0.93900  0.26520  0.36570  Biso   1.000  H
  H217     1.0000 0.01520  0.31100  0.88430  Biso   1.000  H
  H218     1.0000 0.48480  0.68900  0.38430  Biso   1.000  H
  H219     1.0000 0.43900  0.26520  0.13430  Biso   1.000  H
  H220     1.0000 0.06100  0.73480  0.63430  Biso   1.000  H
  H221     1.0000 0.51520  0.81100  0.38430  Biso   1.000  H
  H222     1.0000 0.98480  0.18900  0.88430  Biso   1.000  H
  H223     1.0000 0.93900  0.76520  0.63430  Biso   1.000  H
  H224     1.0000 0.56100  0.23480  0.13430  Biso   1.000  H
  H225     1.0000 0.04430  0.64110  0.15970  Biso   1.000  H
  H226     1.0000 0.45570  0.35890  0.65970  Biso   1.000  H
  H227     1.0000 0.10890  0.29430  0.40970  Biso   1.000  H
  H228     1.0000 0.39110  0.70570  0.90970  Biso   1.000  H
  H229     1.0000 0.54430  0.14110  0.65970  Biso   1.000  H
  H230     1.0000 0.95570  0.85890  0.15970  Biso   1.000  H
  H231     1.0000 0.60890  0.79430  0.90970  Biso   1.000  H
  H232     1.0000 0.89110  0.20570  0.40970  Biso   1.000  H
  H233     1.0000 0.95570  0.35890  0.84030  Biso   1.000  H
  H234     1.0000 0.54430  0.64110  0.34030  Biso   1.000  H
  H235     1.0000 0.39110  0.20570  0.09030  Biso   1.000  H
  H236     1.0000 0.10890  0.79430  0.59030  Biso   1.000  H
  H237     1.0000 0.45570  0.85890  0.34030  Biso   1.000  H
  H238     1.0000 0.04430  0.14110  0.84030  Biso   1.000  H
  H239     1.0000 0.89110  0.70570  0.59030  Biso   1.000  H
  H240     1.0000 0.60890  0.29430  0.09030  Biso   1.000  H
  H241     1.0000 0.25520  0.44770  0.04490  Biso   1.000  H
  H242     1.0000 0.24480  0.55230  0.54490  Biso   1.000  H
  H243     1.0000 0.30230  0.50520  0.29490  Biso   1.000  H
  H244     1.0000 0.19770  0.49480  0.79490  Biso   1.000  H
  H245     1.0000 0.75520  0.94770  0.54490  Biso   1.000  H
  H246     1.0000 0.74480  0.05230  0.04490  Biso   1.000  H
  H247     1.0000 0.80230  0.00520  0.79490  Biso   1.000  H
  H248     1.0000 0.69770  0.99480  0.29490  Biso   1.000  H
  H249     1.0000 0.74480  0.55230  0.95510  Biso   1.000  H
  H250     1.0000 0.75520  0.44770  0.45510  Biso   1.000  H
  H251     1.0000 0.19770  0.99480  0.20510  Biso   1.000  H
  H252     1.0000 0.30230  0.00520  0.70510  Biso   1.000  H
  H253     1.0000 0.24480  0.05230  0.45510  Biso   1.000  H
  H254     1.0000 0.25520  0.94770  0.95510  Biso   1.000  H
  H255     1.0000 0.69770  0.49480  0.70510  Biso   1.000  H
  H256     1.0000 0.80230  0.50520  0.20510  Biso   1.000  H
  H257     1.0000 0.26660  0.47790  0.96950  Biso   1.000  H
  H258     1.0000 0.23340  0.52210  0.46950  Biso   1.000  H
  H259     1.0000 0.27210  0.51660  0.21950  Biso   1.000  H
  H260     1.0000 0.22790  0.48340  0.71950  Biso   1.000  H
  H261     1.0000 0.76660  0.97790  0.46950  Biso   1.000  H
  H262     1.0000 0.73340  0.02210  0.96950  Biso   1.000  H
  H263     1.0000 0.77210  0.01660  0.71950  Biso   1.000  H
  H264     1.0000 0.72790  0.98340  0.21950  Biso   1.000  H
  H265     1.0000 0.73340  0.52210  0.03050  Biso   1.000  H
  H266     1.0000 0.76660  0.47790  0.53050  Biso   1.000  H
  H267     1.0000 0.22790  0.98340  0.28050  Biso   1.000  H
  H268     1.0000 0.27210  0.01660  0.78050  Biso   1.000  H
  H269     1.0000 0.23340  0.02210  0.53050  Biso   1.000  H
  H270     1.0000 0.26660  0.97790  0.03050  Biso   1.000  H
  H271     1.0000 0.72790  0.48340  0.78050  Biso   1.000  H
  H272     1.0000 0.77210  0.51660  0.28050  Biso   1.000  H
  H273     1.0000 0.34420  0.52860  0.06890  Biso   1.000  H
  H274     1.0000 0.15580  0.47140  0.56890  Biso   1.000  H
  H275     1.0000 0.22140  0.59420  0.31890  Biso   1.000  H
  H276     1.0000 0.27860  0.40580  0.81890  Biso   1.000  H
  H277     1.0000 0.84420  0.02860  0.56890  Biso   1.000  H
  H278     1.0000 0.65580  0.97140  0.06890  Biso   1.000  H
  H279     1.0000 0.72140  0.09420  0.81890  Biso   1.000  H
  H280     1.0000 0.77860  0.90580  0.31890  Biso   1.000  H
  H281     1.0000 0.65580  0.47140  0.93110  Biso   1.000  H
  H282     1.0000 0.84420  0.52860  0.43110  Biso   1.000  H
  H283     1.0000 0.27860  0.90580  0.18110  Biso   1.000  H
  H284     1.0000 0.22140  0.09420  0.68110  Biso   1.000  H
  H285     1.0000 0.15580  0.97140  0.43110  Biso   1.000  H
  H286     1.0000 0.34420  0.02860  0.93110  Biso   1.000  H
  H287     1.0000 0.77860  0.40580  0.68110  Biso   1.000  H
  H288     1.0000 0.72140  0.59420  0.18110  Biso   1.000  H
  H289     1.0000 0.27730  0.59080  0.06480  Biso   1.000  H
  H290     1.0000 0.22270  0.40920  0.56480  Biso   1.000  H
  H291     1.0000 0.15920  0.52730  0.31480  Biso   1.000  H
  H292     1.0000 0.34080  0.47270  0.81480  Biso   1.000  H
  H293     1.0000 0.77730  0.09080  0.56480  Biso   1.000  H
  H294     1.0000 0.72270  0.90920  0.06480  Biso   1.000  H
  H295     1.0000 0.65920  0.02730  0.81480  Biso   1.000  H
  H296     1.0000 0.84080  0.97270  0.31480  Biso   1.000  H
  H297     1.0000 0.72270  0.40920  0.93520  Biso   1.000  H
  H298     1.0000 0.77730  0.59080  0.43520  Biso   1.000  H
  H299     1.0000 0.34080  0.97270  0.18520  Biso   1.000  H
  H300     1.0000 0.15920  0.02730  0.68520  Biso   1.000  H
  H301     1.0000 0.22270  0.90920  0.43520  Biso   1.000  H
  H302     1.0000 0.27730  0.09080  0.93520  Biso   1.000  H
  H303     1.0000 0.84080  0.47270  0.68520  Biso   1.000  H
  H304     1.0000 0.65920  0.52730  0.18520  Biso   1.000  H
  H305     1.0000 0.33140  0.57620  0.00160  Biso   1.000  H
  H306     1.0000 0.16860  0.42380  0.50160  Biso   1.000  H
  H307     1.0000 0.17380  0.58140  0.25160  Biso   1.000  H
  H308     1.0000 0.32620  0.41860  0.75160  Biso   1.000  H
  H309     1.0000 0.83140  0.07620  0.50160  Biso   1.000  H
  H310     1.0000 0.66860  0.92380  0.00160  Biso   1.000  H
  H311     1.0000 0.67380  0.08140  0.75160  Biso   1.000  H
  H312     1.0000 0.82620  0.91860  0.25160  Biso   1.000  H
  H313     1.0000 0.66860  0.42380  0.99840  Biso   1.000  H
  H314     1.0000 0.83140  0.57620  0.49840  Biso   1.000  H
  H315     1.0000 0.32620  0.91860  0.24840  Biso   1.000  H
  H316     1.0000 0.17380  0.08140  0.74840  Biso   1.000  H
  H317     1.0000 0.16860  0.92380  0.49840  Biso   1.000  H
  H318     1.0000 0.33140  0.07620  0.99840  Biso   1.000  H
  H319     1.0000 0.82620  0.41860  0.74840  Biso   1.000  H
  H320     1.0000 0.67380  0.58140  0.24840  Biso   1.000  H
