data_image0
_cell_length_a       15.034
_cell_length_b       12.181
_cell_length_c       16.814
_cell_angle_alpha    90
_cell_angle_beta     102.133
_cell_angle_gamma    90

_symmetry_space_group_name_H-M    "P 1"
_symmetry_int_tables_number       1

loop_
  _symmetry_equiv_pos_as_xyz
  'x, y, z'

loop_
  _atom_site_label
  _atom_site_occupancy
  _atom_site_fract_x
  _atom_site_fract_y
  _atom_site_fract_z
  _atom_site_thermal_displace_type
  _atom_site_B_iso_or_equiv
  _atom_site_type_symbol
  I1       1.0000 0.82021  0.36211  0.37568  Biso   1.000  I
  I2       1.0000 0.17979  0.86211  0.12432  Biso   1.000  I
  I3       1.0000 0.17979  0.63789  0.62431  Biso   1.000  I
  I4       1.0000 0.82021  0.13789  0.87569  Biso   1.000  I
  I5       1.0000 0.62762  0.63767  0.38089  Biso   1.000  I
  I6       1.0000 0.37238  0.13767  0.11911  Biso   1.000  I
  I7       1.0000 0.37238  0.36233  0.61911  Biso   1.000  I
  I8       1.0000 0.62762  0.86233  0.88089  Biso   1.000  I
  I9       1.0000 0.68693  0.57657  0.13511  Biso   1.000  I
  I10      1.0000 0.31307  0.07657  0.36489  Biso   1.000  I
  I11      1.0000 0.31307  0.42343  0.86489  Biso   1.000  I
  I12      1.0000 0.68693  0.92343  0.63511  Biso   1.000  I
  I13      1.0000 0.87848  0.30850  0.12558  Biso   1.000  I
  I14      1.0000 0.12152  0.80850  0.37442  Biso   1.000  I
  I15      1.0000 0.12152  0.69150  0.87442  Biso   1.000  I
  I16      1.0000 0.87848  0.19150  0.62558  Biso   1.000  I
  Cu1      1.0000 0.92659  0.41071  0.26744  Biso   1.000  Cu
  Cu2      1.0000 0.07341  0.91071  0.23256  Biso   1.000  Cu
  Cu3      1.0000 0.07341  0.58929  0.73256  Biso   1.000  Cu
  Cu4      1.0000 0.92659  0.08929  0.76744  Biso   1.000  Cu
  Cu5      1.0000 0.75976  0.55482  0.32920  Biso   1.000  Cu
  Cu6      1.0000 0.24024  0.05482  0.17080  Biso   1.000  Cu
  Cu7      1.0000 0.24024  0.44518  0.67080  Biso   1.000  Cu
  Cu8      1.0000 0.75976  0.94518  0.82920  Biso   1.000  Cu
  Cu9      1.0000 0.57882  0.53124  0.24240  Biso   1.000  Cu
  Cu10     1.0000 0.42118  0.03124  0.25760  Biso   1.000  Cu
  Cu11     1.0000 0.42118  0.46876  0.75760  Biso   1.000  Cu
  Cu12     1.0000 0.57882  0.96876  0.74240  Biso   1.000  Cu
  Cu13     1.0000 0.75045  0.38372  0.18541  Biso   1.000  Cu
  Cu14     1.0000 0.24955  0.88372  0.31459  Biso   1.000  Cu
  Cu15     1.0000 0.24955  0.61628  0.81459  Biso   1.000  Cu
  Cu16     1.0000 0.75045  0.11628  0.68541  Biso   1.000  Cu
  N1       1.0000 0.92270  0.57800  0.26290  Biso   1.000  N
  N2       1.0000 0.07730  0.07800  0.23710  Biso   1.000  N
  N3       1.0000 0.07730  0.42200  0.73710  Biso   1.000  N
  N4       1.0000 0.92270  0.92200  0.76290  Biso   1.000  N
  N5       1.0000 0.86240  0.63850  0.29760  Biso   1.000  N
  N6       1.0000 0.13760  0.13850  0.20240  Biso   1.000  N
  N7       1.0000 0.13760  0.36150  0.70240  Biso   1.000  N
  N8       1.0000 0.86240  0.86150  0.79760  Biso   1.000  N
  N9       1.0000 0.92010  0.74570  0.21850  Biso   1.000  N
  N10      1.0000 0.07990  0.24570  0.28150  Biso   1.000  N
  N11      1.0000 0.07990  0.25430  0.78150  Biso   1.000  N
  N12      1.0000 0.92010  0.75430  0.71850  Biso   1.000  N
  N13      1.0000 0.94760  0.84200  0.18270  Biso   1.000  N
  N14      1.0000 0.05240  0.34200  0.31730  Biso   1.000  N
  N15      1.0000 0.05240  0.15800  0.81730  Biso   1.000  N
  N16      1.0000 0.94760  0.65800  0.68270  Biso   1.000  N
  N17      1.0000 0.81270  0.82000  0.08350  Biso   1.000  N
  N18      1.0000 0.18730  0.32000  0.41650  Biso   1.000  N
  N19      1.0000 0.18730  0.18000  0.91650  Biso   1.000  N
  N20      1.0000 0.81270  0.68000  0.58350  Biso   1.000  N
  H1       1.0000 0.79680  0.76200  0.10610  Biso   1.000  H
  H2       1.0000 0.20320  0.26200  0.39390  Biso   1.000  H
  H3       1.0000 0.20320  0.23800  0.89390  Biso   1.000  H
  H4       1.0000 0.79680  0.73800  0.60610  Biso   1.000  H
  H5       1.0000 0.77870  0.84500  0.03970  Biso   1.000  H
  H6       1.0000 0.22130  0.34500  0.46030  Biso   1.000  H
  H7       1.0000 0.22130  0.15500  0.96030  Biso   1.000  H
  H8       1.0000 0.77870  0.65500  0.53970  Biso   1.000  H
  N21      1.0000 0.58270  0.36520  0.24630  Biso   1.000  N
  N22      1.0000 0.41730  0.86520  0.25370  Biso   1.000  N
  N23      1.0000 0.41730  0.63480  0.75370  Biso   1.000  N
  N24      1.0000 0.58270  0.13480  0.74630  Biso   1.000  N
  N25      1.0000 0.64340  0.30470  0.21170  Biso   1.000  N
  N26      1.0000 0.35660  0.80470  0.28830  Biso   1.000  N
  N27      1.0000 0.35660  0.69530  0.78830  Biso   1.000  N
  N28      1.0000 0.64340  0.19530  0.71170  Biso   1.000  N
  N29      1.0000 0.57800  0.19450  0.28300  Biso   1.000  N
  N30      1.0000 0.42200  0.69450  0.21700  Biso   1.000  N
  N31      1.0000 0.42200  0.80550  0.71700  Biso   1.000  N
  N32      1.0000 0.57800  0.30550  0.78300  Biso   1.000  N
  N33      1.0000 0.54650  0.09640  0.31300  Biso   1.000  N
  N34      1.0000 0.45350  0.59640  0.18700  Biso   1.000  N
  N35      1.0000 0.45350  0.90360  0.68700  Biso   1.000  N
  N36      1.0000 0.54650  0.40360  0.81300  Biso   1.000  N
  N37      1.0000 0.67590  0.11360  0.42120  Biso   1.000  N
  N38      1.0000 0.32410  0.61360  0.07880  Biso   1.000  N
  N39      1.0000 0.32410  0.88640  0.57880  Biso   1.000  N
  N40      1.0000 0.67590  0.38640  0.92120  Biso   1.000  N
  H9       1.0000 0.69350  0.17340  0.40220  Biso   1.000  H
  H10      1.0000 0.30650  0.67340  0.09780  Biso   1.000  H
  H11      1.0000 0.30650  0.82660  0.59780  Biso   1.000  H
  H12      1.0000 0.69350  0.32660  0.90220  Biso   1.000  H
  H13      1.0000 0.70690  0.08610  0.46560  Biso   1.000  H
  H14      1.0000 0.29310  0.58610  0.03440  Biso   1.000  H
  H15      1.0000 0.29310  0.91390  0.53440  Biso   1.000  H
  H16      1.0000 0.70690  0.41390  0.96560  Biso   1.000  H
  C1       1.0000 0.95770  0.64390  0.21610  Biso   1.000  C
  C2       1.0000 0.04230  0.14390  0.28390  Biso   1.000  C
  C3       1.0000 0.04230  0.35610  0.78390  Biso   1.000  C
  C4       1.0000 0.95770  0.85610  0.71610  Biso   1.000  C
  C5       1.0000 0.86310  0.73960  0.27110  Biso   1.000  C
  C6       1.0000 0.13690  0.23960  0.22890  Biso   1.000  C
  C7       1.0000 0.13690  0.26040  0.72890  Biso   1.000  C
  C8       1.0000 0.86310  0.76040  0.77110  Biso   1.000  C
  C9       1.0000 0.02800  0.61420  0.16920  Biso   1.000  C
  C10      1.0000 0.97200  0.11420  0.33080  Biso   1.000  C
  C11      1.0000 0.97200  0.38580  0.83080  Biso   1.000  C
  C12      1.0000 0.02800  0.88580  0.66920  Biso   1.000  C
  H17      1.0000 0.05100  0.54150  0.18550  Biso   1.000  H
  H18      1.0000 0.94900  0.04150  0.31450  Biso   1.000  H
  H19      1.0000 0.94900  0.45850  0.81450  Biso   1.000  H
  H20      1.0000 0.05100  0.95850  0.68550  Biso   1.000  H
  H21      1.0000 0.07840  0.66530  0.18300  Biso   1.000  H
  H22      1.0000 0.92160  0.16530  0.31700  Biso   1.000  H
  H23      1.0000 0.92160  0.33470  0.81700  Biso   1.000  H
  H24      1.0000 0.07840  0.83470  0.68300  Biso   1.000  H
  C13      1.0000 0.99260  0.61550  0.07720  Biso   1.000  C
  C14      1.0000 0.00740  0.11550  0.42280  Biso   1.000  C
  C15      1.0000 0.00740  0.38450  0.92280  Biso   1.000  C
  C16      1.0000 0.99260  0.88450  0.57720  Biso   1.000  C
  H25      1.0000 0.04090  0.59560  0.05060  Biso   1.000  H
  H26      1.0000 0.95910  0.09560  0.44940  Biso   1.000  H
  H27      1.0000 0.95910  0.40440  0.94940  Biso   1.000  H
  H28      1.0000 0.04090  0.90440  0.55060  Biso   1.000  H
  H29      1.0000 0.97120  0.68780  0.06030  Biso   1.000  H
  H30      1.0000 0.02880  0.18780  0.43970  Biso   1.000  H
  H31      1.0000 0.02880  0.31220  0.93970  Biso   1.000  H
  H32      1.0000 0.97120  0.81220  0.56030  Biso   1.000  H
  H33      1.0000 0.94360  0.56400  0.06280  Biso   1.000  H
  H34      1.0000 0.05640  0.06400  0.43720  Biso   1.000  H
  H35      1.0000 0.05640  0.43600  0.93720  Biso   1.000  H
  H36      1.0000 0.94360  0.93600  0.56280  Biso   1.000  H
  C17      1.0000 0.80940  0.83390  0.29300  Biso   1.000  C
  C18      1.0000 0.19060  0.33390  0.20700  Biso   1.000  C
  C19      1.0000 0.19060  0.16610  0.70700  Biso   1.000  C
  C20      1.0000 0.80940  0.66610  0.79300  Biso   1.000  C
  H37      1.0000 0.74530  0.81500  0.28050  Biso   1.000  H
  H38      1.0000 0.25470  0.31500  0.21950  Biso   1.000  H
  H39      1.0000 0.25470  0.18500  0.71950  Biso   1.000  H
  H40      1.0000 0.74530  0.68500  0.78050  Biso   1.000  H
  H41      1.0000 0.81780  0.89700  0.26020  Biso   1.000  H
  H42      1.0000 0.18220  0.39700  0.23980  Biso   1.000  H
  H43      1.0000 0.18220  0.10300  0.73980  Biso   1.000  H
  H44      1.0000 0.81780  0.60300  0.76020  Biso   1.000  H
  C21      1.0000 0.83740  0.86430  0.38240  Biso   1.000  C
  C22      1.0000 0.16260  0.36430  0.11760  Biso   1.000  C
  C23      1.0000 0.16260  0.13570  0.61760  Biso   1.000  C
  C24      1.0000 0.83740  0.63570  0.88240  Biso   1.000  C
  H45      1.0000 0.80130  0.92500  0.39370  Biso   1.000  H
  H46      1.0000 0.19870  0.42500  0.10630  Biso   1.000  H
  H47      1.0000 0.19870  0.07500  0.60630  Biso   1.000  H
  H48      1.0000 0.80130  0.57500  0.89370  Biso   1.000  H
  H49      1.0000 0.90050  0.88440  0.39490  Biso   1.000  H
  H50      1.0000 0.09950  0.38440  0.10510  Biso   1.000  H
  H51      1.0000 0.09950  0.11560  0.60510  Biso   1.000  H
  H52      1.0000 0.90050  0.61560  0.89490  Biso   1.000  H
  H53      1.0000 0.82800  0.80250  0.41520  Biso   1.000  H
  H54      1.0000 0.17200  0.30250  0.08480  Biso   1.000  H
  H55      1.0000 0.17200  0.19750  0.58480  Biso   1.000  H
  H56      1.0000 0.82800  0.69750  0.91520  Biso   1.000  H
  C25      1.0000 0.89020  0.87130  0.11660  Biso   1.000  C
  C26      1.0000 0.10980  0.37130  0.38340  Biso   1.000  C
  C27      1.0000 0.10980  0.12870  0.88340  Biso   1.000  C
  C28      1.0000 0.89020  0.62870  0.61660  Biso   1.000  C
  C29      1.0000 0.91350  0.97120  0.07450  Biso   1.000  C
  C30      1.0000 0.08650  0.47120  0.42550  Biso   1.000  C
  C31      1.0000 0.08650  0.02880  0.92550  Biso   1.000  C
  C32      1.0000 0.91350  0.52880  0.57450  Biso   1.000  C
  H57      1.0000 0.97010  0.00070  0.10400  Biso   1.000  H
  H58      1.0000 0.02990  0.50070  0.39600  Biso   1.000  H
  H59      1.0000 0.02990  0.99930  0.89600  Biso   1.000  H
  H60      1.0000 0.97010  0.49930  0.60400  Biso   1.000  H
  H61      1.0000 0.86630  0.02500  0.07210  Biso   1.000  H
  H62      1.0000 0.13370  0.52500  0.42790  Biso   1.000  H
  H63      1.0000 0.13370  0.97500  0.92790  Biso   1.000  H
  H64      1.0000 0.86630  0.47500  0.57210  Biso   1.000  H
  H65      1.0000 0.91900  0.95250  0.02030  Biso   1.000  H
  H66      1.0000 0.08100  0.45250  0.47970  Biso   1.000  H
  H67      1.0000 0.08100  0.04750  0.97970  Biso   1.000  H
  H68      1.0000 0.91900  0.54750  0.52030  Biso   1.000  H
  C33      1.0000 0.54330  0.29710  0.28890  Biso   1.000  C
  C34      1.0000 0.45670  0.79710  0.21110  Biso   1.000  C
  C35      1.0000 0.45670  0.70290  0.71110  Biso   1.000  C
  C36      1.0000 0.54330  0.20290  0.78890  Biso   1.000  C
  C37      1.0000 0.63860  0.20210  0.23310  Biso   1.000  C
  C38      1.0000 0.36140  0.70210  0.26690  Biso   1.000  C
  C39      1.0000 0.36140  0.79790  0.76690  Biso   1.000  C
  C40      1.0000 0.63860  0.29790  0.73310  Biso   1.000  C
  C41      1.0000 0.47330  0.32710  0.33540  Biso   1.000  C
  C42      1.0000 0.52670  0.82710  0.16460  Biso   1.000  C
  C43      1.0000 0.52670  0.67290  0.66460  Biso   1.000  C
  C44      1.0000 0.47330  0.17290  0.83540  Biso   1.000  C
  H69      1.0000 0.42360  0.27500  0.32260  Biso   1.000  H
  H70      1.0000 0.57640  0.77500  0.17740  Biso   1.000  H
  H71      1.0000 0.57640  0.72500  0.67740  Biso   1.000  H
  H72      1.0000 0.42360  0.22500  0.82260  Biso   1.000  H
  H73      1.0000 0.44930  0.39900  0.31770  Biso   1.000  H
  H74      1.0000 0.55070  0.89900  0.18230  Biso   1.000  H
  H75      1.0000 0.55070  0.60100  0.68230  Biso   1.000  H
  H76      1.0000 0.44930  0.10100  0.81770  Biso   1.000  H
  C45      1.0000 0.50740  0.32940  0.42580  Biso   1.000  C
  C46      1.0000 0.49260  0.82940  0.07420  Biso   1.000  C
  C47      1.0000 0.49260  0.67060  0.57420  Biso   1.000  C
  C48      1.0000 0.50740  0.17060  0.92580  Biso   1.000  C
  H77      1.0000 0.45860  0.34950  0.45170  Biso   1.000  H
  H78      1.0000 0.54140  0.84950  0.04830  Biso   1.000  H
  H79      1.0000 0.54140  0.65050  0.54830  Biso   1.000  H
  H80      1.0000 0.45860  0.15050  0.95170  Biso   1.000  H
  H81      1.0000 0.55570  0.38220  0.43930  Biso   1.000  H
  H82      1.0000 0.44430  0.88220  0.06070  Biso   1.000  H
  H83      1.0000 0.44430  0.61780  0.56070  Biso   1.000  H
  H84      1.0000 0.55570  0.11780  0.93930  Biso   1.000  H
  H85      1.0000 0.52980  0.25810  0.44430  Biso   1.000  H
  H86      1.0000 0.47020  0.75810  0.05570  Biso   1.000  H
  H87      1.0000 0.47020  0.74190  0.55570  Biso   1.000  H
  H88      1.0000 0.52980  0.24190  0.94430  Biso   1.000  H
  C49      1.0000 0.69100  0.10840  0.20940  Biso   1.000  C
  C50      1.0000 0.30900  0.60840  0.29060  Biso   1.000  C
  C51      1.0000 0.30900  0.89160  0.79060  Biso   1.000  C
  C52      1.0000 0.69100  0.39160  0.70940  Biso   1.000  C
  H89      1.0000 0.68090  0.04380  0.24000  Biso   1.000  H
  H90      1.0000 0.31910  0.54380  0.26000  Biso   1.000  H
  H91      1.0000 0.31910  0.95620  0.76000  Biso   1.000  H
  H92      1.0000 0.68090  0.45620  0.74000  Biso   1.000  H
  H93      1.0000 0.75540  0.12550  0.22320  Biso   1.000  H
  H94      1.0000 0.24460  0.62550  0.27680  Biso   1.000  H
  H95      1.0000 0.24460  0.87450  0.77680  Biso   1.000  H
  H96      1.0000 0.75540  0.37450  0.72320  Biso   1.000  H
  C53      1.0000 0.66330  0.08380  0.11890  Biso   1.000  C
  C54      1.0000 0.33670  0.58380  0.38110  Biso   1.000  C
  C55      1.0000 0.33670  0.91620  0.88110  Biso   1.000  C
  C56      1.0000 0.66330  0.41620  0.61890  Biso   1.000  C
  H97      1.0000 0.69840  0.02320  0.10580  Biso   1.000  H
  H98      1.0000 0.30160  0.52320  0.39420  Biso   1.000  H
  H99      1.0000 0.30160  0.97680  0.89420  Biso   1.000  H
  H100     1.0000 0.69840  0.47680  0.60580  Biso   1.000  H
  H101     1.0000 0.67420  0.14730  0.08840  Biso   1.000  H
  H102     1.0000 0.32580  0.64730  0.41160  Biso   1.000  H
  H103     1.0000 0.32580  0.85270  0.91160  Biso   1.000  H
  H104     1.0000 0.67420  0.35270  0.58840  Biso   1.000  H
  H105     1.0000 0.59980  0.06550  0.10530  Biso   1.000  H
  H106     1.0000 0.40020  0.56550  0.39470  Biso   1.000  H
  H107     1.0000 0.40020  0.93450  0.89470  Biso   1.000  H
  H108     1.0000 0.59980  0.43450  0.60530  Biso   1.000  H
  C57      1.0000 0.59900  0.06230  0.38100  Biso   1.000  C
  C58      1.0000 0.40100  0.56230  0.11900  Biso   1.000  C
  C59      1.0000 0.40100  0.93770  0.61900  Biso   1.000  C
  C60      1.0000 0.59900  0.43770  0.88100  Biso   1.000  C
  C61      1.0000 0.57360  0.95980  0.41440  Biso   1.000  C
  C62      1.0000 0.42640  0.45980  0.08560  Biso   1.000  C
  C63      1.0000 0.42640  0.04020  0.58560  Biso   1.000  C
  C64      1.0000 0.57360  0.54020  0.91440  Biso   1.000  C
  H109     1.0000 0.51860  0.93230  0.38040  Biso   1.000  H
  H110     1.0000 0.48140  0.43230  0.11960  Biso   1.000  H
  H111     1.0000 0.48140  0.06770  0.61960  Biso   1.000  H
  H112     1.0000 0.51860  0.56770  0.88040  Biso   1.000  H
  H113     1.0000 0.56380  0.97230  0.46820  Biso   1.000  H
  H114     1.0000 0.43620  0.47230  0.03180  Biso   1.000  H
  H115     1.0000 0.43620  0.02770  0.53180  Biso   1.000  H
  H116     1.0000 0.56380  0.52770  0.96820  Biso   1.000  H
  H117     1.0000 0.62140  0.90700  0.41650  Biso   1.000  H
  H118     1.0000 0.37860  0.40700  0.08350  Biso   1.000  H
  H119     1.0000 0.37860  0.09300  0.58350  Biso   1.000  H
  H120     1.0000 0.62140  0.59300  0.91650  Biso   1.000  H
