data_image0
_cell_length_a       21.9382
_cell_length_b       18.2436
_cell_length_c       11.7748
_cell_angle_alpha    90
_cell_angle_beta     106.81
_cell_angle_gamma    90

_symmetry_space_group_name_H-M    "P 1"
_symmetry_int_tables_number       1

loop_
  _symmetry_equiv_pos_as_xyz
  'x, y, z'

loop_
  _atom_site_label
  _atom_site_occupancy
  _atom_site_fract_x
  _atom_site_fract_y
  _atom_site_fract_z
  _atom_site_thermal_displace_type
  _atom_site_B_iso_or_equiv
  _atom_site_type_symbol
  C1       1.0000 0.76100  0.50000  0.78050  Biso   1.000  C
  C2       1.0000 0.23900  0.50000  0.21950  Biso   1.000  C
  C3       1.0000 0.26100  0.00000  0.78050  Biso   1.000  C
  C4       1.0000 0.73900  0.00000  0.21950  Biso   1.000  C
  O1       1.0000 0.80310  0.50000  0.70300  Biso   1.000  O
  O2       1.0000 0.19690  0.50000  0.29700  Biso   1.000  O
  O3       1.0000 0.30310  0.00000  0.70300  Biso   1.000  O
  O4       1.0000 0.69690  0.00000  0.29700  Biso   1.000  O
  Cu1      1.0000 0.06763  0.25232  0.52002  Biso   1.000  Cu
  Cu2      1.0000 0.93237  0.25232  0.47998  Biso   1.000  Cu
  Cu3      1.0000 0.56763  0.75232  0.52002  Biso   1.000  Cu
  Cu4      1.0000 0.43237  0.75232  0.47998  Biso   1.000  Cu
  Cu5      1.0000 0.93237  0.74768  0.47998  Biso   1.000  Cu
  Cu6      1.0000 0.06763  0.74768  0.52002  Biso   1.000  Cu
  Cu7      1.0000 0.43237  0.24768  0.47998  Biso   1.000  Cu
  Cu8      1.0000 0.56763  0.24768  0.52002  Biso   1.000  Cu
  S1       1.0000 0.13614  0.35010  0.54489  Biso   1.000  S
  S2       1.0000 0.86386  0.35010  0.45511  Biso   1.000  S
  S3       1.0000 0.63614  0.85010  0.54489  Biso   1.000  S
  S4       1.0000 0.36386  0.85010  0.45511  Biso   1.000  S
  S5       1.0000 0.86386  0.64990  0.45511  Biso   1.000  S
  S6       1.0000 0.13614  0.64990  0.54489  Biso   1.000  S
  S7       1.0000 0.36386  0.14990  0.45511  Biso   1.000  S
  S8       1.0000 0.63614  0.14990  0.54489  Biso   1.000  S
  S9       1.0000 0.37770  0.35050  0.50543  Biso   1.000  S
  S10      1.0000 0.62230  0.35050  0.49457  Biso   1.000  S
  S11      1.0000 0.87770  0.85050  0.50543  Biso   1.000  S
  S12      1.0000 0.12230  0.85050  0.49457  Biso   1.000  S
  S13      1.0000 0.62230  0.64950  0.49457  Biso   1.000  S
  S14      1.0000 0.37770  0.64950  0.50543  Biso   1.000  S
  S15      1.0000 0.12230  0.14950  0.49457  Biso   1.000  S
  S16      1.0000 0.87770  0.14950  0.50543  Biso   1.000  S
  Cl1      1.0000 0.01474  0.25156  0.66353  Biso   1.000  Cl
  Cl2      1.0000 0.98526  0.25156  0.33647  Biso   1.000  Cl
  Cl3      1.0000 0.51474  0.75156  0.66353  Biso   1.000  Cl
  Cl4      1.0000 0.48526  0.75156  0.33647  Biso   1.000  Cl
  Cl5      1.0000 0.98526  0.74844  0.33647  Biso   1.000  Cl
  Cl6      1.0000 0.01474  0.74844  0.66353  Biso   1.000  Cl
  Cl7      1.0000 0.48526  0.24844  0.33647  Biso   1.000  Cl
  Cl8      1.0000 0.51474  0.24844  0.66353  Biso   1.000  Cl
  O5       1.0000 0.18800  0.50000  0.61010  Biso   1.000  O
  O6       1.0000 0.81200  0.50000  0.38990  Biso   1.000  O
  O7       1.0000 0.68800  0.00000  0.61010  Biso   1.000  O
  O8       1.0000 0.31200  0.00000  0.38990  Biso   1.000  O
  O9       1.0000 0.27348  0.38300  0.61310  Biso   1.000  O
  O10      1.0000 0.72652  0.38300  0.38690  Biso   1.000  O
  O11      1.0000 0.77348  0.88300  0.61310  Biso   1.000  O
  O12      1.0000 0.22652  0.88300  0.38690  Biso   1.000  O
  O13      1.0000 0.72652  0.61700  0.38690  Biso   1.000  O
  O14      1.0000 0.27348  0.61700  0.61310  Biso   1.000  O
  O15      1.0000 0.22652  0.11700  0.38690  Biso   1.000  O
  O16      1.0000 0.77348  0.11700  0.61310  Biso   1.000  O
  H1       1.0000 0.29550  0.42020  0.61060  Biso   1.000  H
  H2       1.0000 0.70450  0.42020  0.38940  Biso   1.000  H
  H3       1.0000 0.79550  0.92020  0.61060  Biso   1.000  H
  H4       1.0000 0.20450  0.92020  0.38940  Biso   1.000  H
  H5       1.0000 0.70450  0.57980  0.38940  Biso   1.000  H
  H6       1.0000 0.29550  0.57980  0.61060  Biso   1.000  H
  H7       1.0000 0.20450  0.07980  0.38940  Biso   1.000  H
  H8       1.0000 0.79550  0.07980  0.61060  Biso   1.000  H
  O17      1.0000 0.34190  0.50000  0.56180  Biso   1.000  O
  O18      1.0000 0.65810  0.50000  0.43820  Biso   1.000  O
  O19      1.0000 0.84190  0.00000  0.56180  Biso   1.000  O
  O20      1.0000 0.15810  0.00000  0.43820  Biso   1.000  O
  C5       1.0000 0.13030  0.50000  0.52860  Biso   1.000  C
  C6       1.0000 0.86970  0.50000  0.47140  Biso   1.000  C
  C7       1.0000 0.63030  0.00000  0.52860  Biso   1.000  C
  C8       1.0000 0.36970  0.00000  0.47140  Biso   1.000  C
  C9       1.0000 0.09950  0.43430  0.48480  Biso   1.000  C
  C10      1.0000 0.90050  0.43430  0.51520  Biso   1.000  C
  C11      1.0000 0.59950  0.93430  0.48480  Biso   1.000  C
  C12      1.0000 0.40050  0.93430  0.51520  Biso   1.000  C
  C13      1.0000 0.90050  0.56570  0.51520  Biso   1.000  C
  C14      1.0000 0.09950  0.56570  0.48480  Biso   1.000  C
  C15      1.0000 0.40050  0.06570  0.51520  Biso   1.000  C
  C16      1.0000 0.59950  0.06570  0.48480  Biso   1.000  C
  C17      1.0000 0.04030  0.43480  0.39970  Biso   1.000  C
  C18      1.0000 0.95970  0.43480  0.60030  Biso   1.000  C
  C19      1.0000 0.54030  0.93480  0.39970  Biso   1.000  C
  C20      1.0000 0.45970  0.93480  0.60030  Biso   1.000  C
  C21      1.0000 0.95970  0.56520  0.60030  Biso   1.000  C
  C22      1.0000 0.04030  0.56520  0.39970  Biso   1.000  C
  C23      1.0000 0.45970  0.06520  0.60030  Biso   1.000  C
  C24      1.0000 0.54030  0.06520  0.39970  Biso   1.000  C
  H9       1.0000 0.02030  0.38940  0.37150  Biso   1.000  H
  H10      1.0000 0.97970  0.38940  0.62850  Biso   1.000  H
  H11      1.0000 0.52030  0.88940  0.37150  Biso   1.000  H
  H12      1.0000 0.47970  0.88940  0.62850  Biso   1.000  H
  H13      1.0000 0.97970  0.61060  0.62850  Biso   1.000  H
  H14      1.0000 0.02030  0.61060  0.37150  Biso   1.000  H
  H15      1.0000 0.47970  0.11060  0.62850  Biso   1.000  H
  H16      1.0000 0.52030  0.11060  0.37150  Biso   1.000  H
  C25      1.0000 0.00970  0.50000  0.35490  Biso   1.000  C
  C26      1.0000 0.99030  0.50000  0.64510  Biso   1.000  C
  C27      1.0000 0.50970  0.00000  0.35490  Biso   1.000  C
  C28      1.0000 0.49030  0.00000  0.64510  Biso   1.000  C
  C29      1.0000 0.94610  0.50000  0.26520  Biso   1.000  C
  C30      1.0000 0.05390  0.50000  0.73480  Biso   1.000  C
  C31      1.0000 0.44610  0.00000  0.26520  Biso   1.000  C
  C32      1.0000 0.55390  0.00000  0.73480  Biso   1.000  C
  C33      1.0000 0.91490  0.56570  0.22090  Biso   1.000  C
  C34      1.0000 0.08510  0.56570  0.77910  Biso   1.000  C
  C35      1.0000 0.41490  0.06570  0.22090  Biso   1.000  C
  C36      1.0000 0.58510  0.06570  0.77910  Biso   1.000  C
  C37      1.0000 0.08510  0.43430  0.77910  Biso   1.000  C
  C38      1.0000 0.91490  0.43430  0.22090  Biso   1.000  C
  C39      1.0000 0.58510  0.93430  0.77910  Biso   1.000  C
  C40      1.0000 0.41490  0.93430  0.22090  Biso   1.000  C
  H17      1.0000 0.93430  0.61130  0.24950  Biso   1.000  H
  H18      1.0000 0.06570  0.61130  0.75050  Biso   1.000  H
  H19      1.0000 0.43430  0.11130  0.24950  Biso   1.000  H
  H20      1.0000 0.56570  0.11130  0.75050  Biso   1.000  H
  H21      1.0000 0.06570  0.38870  0.75050  Biso   1.000  H
  H22      1.0000 0.93430  0.38870  0.24950  Biso   1.000  H
  H23      1.0000 0.56570  0.88870  0.75050  Biso   1.000  H
  H24      1.0000 0.43430  0.88870  0.24950  Biso   1.000  H
  C41      1.0000 0.85640  0.56450  0.13630  Biso   1.000  C
  C42      1.0000 0.14360  0.56450  0.86370  Biso   1.000  C
  C43      1.0000 0.35640  0.06450  0.13630  Biso   1.000  C
  C44      1.0000 0.64360  0.06450  0.86370  Biso   1.000  C
  C45      1.0000 0.14360  0.43550  0.86370  Biso   1.000  C
  C46      1.0000 0.85640  0.43550  0.13630  Biso   1.000  C
  C47      1.0000 0.64360  0.93550  0.86370  Biso   1.000  C
  C48      1.0000 0.35640  0.93550  0.13630  Biso   1.000  C
  H25      1.0000 0.83620  0.60960  0.10710  Biso   1.000  H
  H26      1.0000 0.16380  0.60960  0.89290  Biso   1.000  H
  H27      1.0000 0.33620  0.10960  0.10710  Biso   1.000  H
  H28      1.0000 0.66380  0.10960  0.89290  Biso   1.000  H
  H29      1.0000 0.16380  0.39040  0.89290  Biso   1.000  H
  H30      1.0000 0.83620  0.39040  0.10710  Biso   1.000  H
  H31      1.0000 0.66380  0.89040  0.89290  Biso   1.000  H
  H32      1.0000 0.33620  0.89040  0.10710  Biso   1.000  H
  C49      1.0000 0.82670  0.50000  0.09340  Biso   1.000  C
  C50      1.0000 0.17330  0.50000  0.90660  Biso   1.000  C
  C51      1.0000 0.32670  0.00000  0.09340  Biso   1.000  C
  C52      1.0000 0.67330  0.00000  0.90660  Biso   1.000  C
  H33      1.0000 0.78640  0.50000  0.03500  Biso   1.000  H
  H34      1.0000 0.21360  0.50000  0.96500  Biso   1.000  H
  H35      1.0000 0.28640  0.00000  0.03500  Biso   1.000  H
  H36      1.0000 0.71360  0.00000  0.96500  Biso   1.000  H
  C53      1.0000 0.25250  0.35300  0.50330  Biso   1.000  C
  C54      1.0000 0.74750  0.35300  0.49670  Biso   1.000  C
  C55      1.0000 0.75250  0.85300  0.50330  Biso   1.000  C
  C56      1.0000 0.24750  0.85300  0.49670  Biso   1.000  C
  C57      1.0000 0.74750  0.64700  0.49670  Biso   1.000  C
  C58      1.0000 0.25250  0.64700  0.50330  Biso   1.000  C
  C59      1.0000 0.24750  0.14700  0.49670  Biso   1.000  C
  C60      1.0000 0.75250  0.14700  0.50330  Biso   1.000  C
  C61      1.0000 0.29460  0.33700  0.43720  Biso   1.000  C
  C62      1.0000 0.70540  0.33700  0.56280  Biso   1.000  C
  C63      1.0000 0.79460  0.83700  0.43720  Biso   1.000  C
  C64      1.0000 0.20540  0.83700  0.56280  Biso   1.000  C
  C65      1.0000 0.70540  0.66300  0.56280  Biso   1.000  C
  C66      1.0000 0.29460  0.66300  0.43720  Biso   1.000  C
  C67      1.0000 0.20540  0.16300  0.56280  Biso   1.000  C
  C68      1.0000 0.79460  0.16300  0.43720  Biso   1.000  C
  C69      1.0000 0.27240  0.30530  0.32580  Biso   1.000  C
  C70      1.0000 0.72760  0.30530  0.67420  Biso   1.000  C
  C71      1.0000 0.77240  0.80530  0.32580  Biso   1.000  C
  C72      1.0000 0.22760  0.80530  0.67420  Biso   1.000  C
  C73      1.0000 0.72760  0.69470  0.67420  Biso   1.000  C
  C74      1.0000 0.27240  0.69470  0.32580  Biso   1.000  C
  C75      1.0000 0.22760  0.19470  0.67420  Biso   1.000  C
  C76      1.0000 0.77240  0.19470  0.32580  Biso   1.000  C
  H37      1.0000 0.30160  0.29490  0.28200  Biso   1.000  H
  H38      1.0000 0.69840  0.29490  0.71800  Biso   1.000  H
  H39      1.0000 0.80160  0.79490  0.28200  Biso   1.000  H
  H40      1.0000 0.19840  0.79490  0.71800  Biso   1.000  H
  H41      1.0000 0.69840  0.70510  0.71800  Biso   1.000  H
  H42      1.0000 0.30160  0.70510  0.28200  Biso   1.000  H
  H43      1.0000 0.19840  0.20510  0.71800  Biso   1.000  H
  H44      1.0000 0.80160  0.20510  0.28200  Biso   1.000  H
  C77      1.0000 0.20770  0.28840  0.27630  Biso   1.000  C
  C78      1.0000 0.79230  0.28840  0.72370  Biso   1.000  C
  C79      1.0000 0.70770  0.78840  0.27630  Biso   1.000  C
  C80      1.0000 0.29230  0.78840  0.72370  Biso   1.000  C
  C81      1.0000 0.79230  0.71160  0.72370  Biso   1.000  C
  C82      1.0000 0.20770  0.71160  0.27630  Biso   1.000  C
  C83      1.0000 0.29230  0.21160  0.72370  Biso   1.000  C
  C84      1.0000 0.70770  0.21160  0.27630  Biso   1.000  C
  C85      1.0000 0.16610  0.30360  0.34480  Biso   1.000  C
  C86      1.0000 0.83390  0.30360  0.65520  Biso   1.000  C
  C87      1.0000 0.66610  0.80360  0.34480  Biso   1.000  C
  C88      1.0000 0.33390  0.80360  0.65520  Biso   1.000  C
  C89      1.0000 0.83390  0.69640  0.65520  Biso   1.000  C
  C90      1.0000 0.16610  0.69640  0.34480  Biso   1.000  C
  C91      1.0000 0.33390  0.19640  0.65520  Biso   1.000  C
  C92      1.0000 0.66610  0.19640  0.34480  Biso   1.000  C
  H45      1.0000 0.12220  0.29190  0.31430  Biso   1.000  H
  H46      1.0000 0.87780  0.29190  0.68570  Biso   1.000  H
  H47      1.0000 0.62220  0.79190  0.31430  Biso   1.000  H
  H48      1.0000 0.37780  0.79190  0.68570  Biso   1.000  H
  H49      1.0000 0.87780  0.70810  0.68570  Biso   1.000  H
  H50      1.0000 0.12220  0.70810  0.31430  Biso   1.000  H
  H51      1.0000 0.37780  0.20810  0.68570  Biso   1.000  H
  H52      1.0000 0.62220  0.20810  0.31430  Biso   1.000  H
  C93      1.0000 0.18840  0.33530  0.45560  Biso   1.000  C
  C94      1.0000 0.81160  0.33530  0.54440  Biso   1.000  C
  C95      1.0000 0.68840  0.83530  0.45560  Biso   1.000  C
  C96      1.0000 0.31160  0.83530  0.54440  Biso   1.000  C
  C97      1.0000 0.81160  0.66470  0.54440  Biso   1.000  C
  C98      1.0000 0.18840  0.66470  0.45560  Biso   1.000  C
  C99      1.0000 0.31160  0.16470  0.54440  Biso   1.000  C
  C100     1.0000 0.68840  0.16470  0.45560  Biso   1.000  C
  C101     1.0000 0.18320  0.25370  0.15890  Biso   1.000  C
  C102     1.0000 0.81680  0.25370  0.84110  Biso   1.000  C
  C103     1.0000 0.68320  0.75370  0.15890  Biso   1.000  C
  C104     1.0000 0.31680  0.75370  0.84110  Biso   1.000  C
  C105     1.0000 0.81680  0.74630  0.84110  Biso   1.000  C
  C106     1.0000 0.18320  0.74630  0.15890  Biso   1.000  C
  C107     1.0000 0.31680  0.24630  0.84110  Biso   1.000  C
  C108     1.0000 0.68320  0.24630  0.15890  Biso   1.000  C
  C109     1.0000 0.21820  0.19930  0.12140  Biso   1.000  C
  C110     1.0000 0.78180  0.19930  0.87860  Biso   1.000  C
  C111     1.0000 0.71820  0.69930  0.12140  Biso   1.000  C
  C112     1.0000 0.28180  0.69930  0.87860  Biso   1.000  C
  C113     1.0000 0.78180  0.80070  0.87860  Biso   1.000  C
  C114     1.0000 0.21820  0.80070  0.12140  Biso   1.000  C
  C115     1.0000 0.28180  0.30070  0.87860  Biso   1.000  C
  C116     1.0000 0.71820  0.30070  0.12140  Biso   1.000  C
  H53      1.0000 0.25860  0.18500  0.17180  Biso   1.000  H
  H54      1.0000 0.74140  0.18500  0.82820  Biso   1.000  H
  H55      1.0000 0.75860  0.68500  0.17180  Biso   1.000  H
  H56      1.0000 0.24140  0.68500  0.82820  Biso   1.000  H
  H57      1.0000 0.74140  0.81500  0.82820  Biso   1.000  H
  H58      1.0000 0.25860  0.81500  0.17180  Biso   1.000  H
  H59      1.0000 0.24140  0.31500  0.82820  Biso   1.000  H
  H60      1.0000 0.75860  0.31500  0.17180  Biso   1.000  H
  C117     1.0000 0.19450  0.16630  0.01210  Biso   1.000  C
  C118     1.0000 0.80550  0.16630  0.98790  Biso   1.000  C
  C119     1.0000 0.69450  0.66630  0.01210  Biso   1.000  C
  C120     1.0000 0.30550  0.66630  0.98790  Biso   1.000  C
  C121     1.0000 0.80550  0.83370  0.98790  Biso   1.000  C
  C122     1.0000 0.19450  0.83370  0.01210  Biso   1.000  C
  C123     1.0000 0.30550  0.33370  0.98790  Biso   1.000  C
  C124     1.0000 0.69450  0.33370  0.01210  Biso   1.000  C
  H61      1.0000 0.21880  0.12960  0.98770  Biso   1.000  H
  H62      1.0000 0.78120  0.12960  0.01230  Biso   1.000  H
  H63      1.0000 0.71880  0.62960  0.98770  Biso   1.000  H
  H64      1.0000 0.28120  0.62960  0.01230  Biso   1.000  H
  H65      1.0000 0.78120  0.87040  0.01230  Biso   1.000  H
  H66      1.0000 0.21880  0.87040  0.98770  Biso   1.000  H
  H67      1.0000 0.28120  0.37040  0.01230  Biso   1.000  H
  H68      1.0000 0.71880  0.37040  0.98770  Biso   1.000  H
  C125     1.0000 0.13630  0.18610  0.93860  Biso   1.000  C
  C126     1.0000 0.86370  0.18610  0.06140  Biso   1.000  C
  C127     1.0000 0.63630  0.68610  0.93860  Biso   1.000  C
  C128     1.0000 0.36370  0.68610  0.06140  Biso   1.000  C
  C129     1.0000 0.86370  0.81390  0.06140  Biso   1.000  C
  C130     1.0000 0.13630  0.81390  0.93860  Biso   1.000  C
  C131     1.0000 0.36370  0.31390  0.06140  Biso   1.000  C
  C132     1.0000 0.63630  0.31390  0.93860  Biso   1.000  C
  H69      1.0000 0.12070  0.16390  0.86270  Biso   1.000  H
  H70      1.0000 0.87930  0.16390  0.13730  Biso   1.000  H
  H71      1.0000 0.62070  0.66390  0.86270  Biso   1.000  H
  H72      1.0000 0.37930  0.66390  0.13730  Biso   1.000  H
  H73      1.0000 0.87930  0.83610  0.13730  Biso   1.000  H
  H74      1.0000 0.12070  0.83610  0.86270  Biso   1.000  H
  H75      1.0000 0.37930  0.33610  0.13730  Biso   1.000  H
  H76      1.0000 0.62070  0.33610  0.86270  Biso   1.000  H
  C133     1.0000 0.10010  0.23850  0.97480  Biso   1.000  C
  C134     1.0000 0.89990  0.23850  0.02520  Biso   1.000  C
  C135     1.0000 0.60010  0.73850  0.97480  Biso   1.000  C
  C136     1.0000 0.39990  0.73850  0.02520  Biso   1.000  C
  C137     1.0000 0.89990  0.76150  0.02520  Biso   1.000  C
  C138     1.0000 0.10010  0.76150  0.97480  Biso   1.000  C
  C139     1.0000 0.39990  0.26150  0.02520  Biso   1.000  C
  C140     1.0000 0.60010  0.26150  0.97480  Biso   1.000  C
  H77      1.0000 0.05890  0.25120  0.92570  Biso   1.000  H
  H78      1.0000 0.94110  0.25120  0.07430  Biso   1.000  H
  H79      1.0000 0.55890  0.75120  0.92570  Biso   1.000  H
  H80      1.0000 0.44110  0.75120  0.07430  Biso   1.000  H
  H81      1.0000 0.94110  0.74880  0.07430  Biso   1.000  H
  H82      1.0000 0.05890  0.74880  0.92570  Biso   1.000  H
  H83      1.0000 0.44110  0.24880  0.07430  Biso   1.000  H
  H84      1.0000 0.55890  0.24880  0.92570  Biso   1.000  H
  C141     1.0000 0.12500  0.27140  0.08290  Biso   1.000  C
  C142     1.0000 0.87500  0.27140  0.91710  Biso   1.000  C
  C143     1.0000 0.62500  0.77140  0.08290  Biso   1.000  C
  C144     1.0000 0.37500  0.77140  0.91710  Biso   1.000  C
  C145     1.0000 0.87500  0.72860  0.91710  Biso   1.000  C
  C146     1.0000 0.12500  0.72860  0.08290  Biso   1.000  C
  C147     1.0000 0.37500  0.22860  0.91710  Biso   1.000  C
  C148     1.0000 0.62500  0.22860  0.08290  Biso   1.000  C
  H85      1.0000 0.10060  0.30840  0.10640  Biso   1.000  H
  H86      1.0000 0.89940  0.30840  0.89360  Biso   1.000  H
  H87      1.0000 0.60060  0.80840  0.10640  Biso   1.000  H
  H88      1.0000 0.39940  0.80840  0.89360  Biso   1.000  H
  H89      1.0000 0.89940  0.69160  0.89360  Biso   1.000  H
  H90      1.0000 0.10060  0.69160  0.10640  Biso   1.000  H
  H91      1.0000 0.39940  0.19160  0.89360  Biso   1.000  H
  H92      1.0000 0.60060  0.19160  0.10640  Biso   1.000  H
  C149     1.0000 0.37740  0.50000  0.48490  Biso   1.000  C
  C150     1.0000 0.62260  0.50000  0.51510  Biso   1.000  C
  C151     1.0000 0.87740  0.00000  0.48490  Biso   1.000  C
  C152     1.0000 0.12260  0.00000  0.51510  Biso   1.000  C
  C153     1.0000 0.39610  0.43470  0.44500  Biso   1.000  C
  C154     1.0000 0.60390  0.43470  0.55500  Biso   1.000  C
  C155     1.0000 0.89610  0.93470  0.44500  Biso   1.000  C
  C156     1.0000 0.10390  0.93470  0.55500  Biso   1.000  C
  C157     1.0000 0.60390  0.56530  0.55500  Biso   1.000  C
  C158     1.0000 0.39610  0.56530  0.44500  Biso   1.000  C
  C159     1.0000 0.10390  0.06530  0.55500  Biso   1.000  C
  C160     1.0000 0.89610  0.06530  0.44500  Biso   1.000  C
  C161     1.0000 0.43510  0.43470  0.37050  Biso   1.000  C
  C162     1.0000 0.56490  0.43470  0.62950  Biso   1.000  C
  C163     1.0000 0.93510  0.93470  0.37050  Biso   1.000  C
  C164     1.0000 0.06490  0.93470  0.62950  Biso   1.000  C
  C165     1.0000 0.56490  0.56530  0.62950  Biso   1.000  C
  C166     1.0000 0.43510  0.56530  0.37050  Biso   1.000  C
  C167     1.0000 0.06490  0.06530  0.62950  Biso   1.000  C
  C168     1.0000 0.93510  0.06530  0.37050  Biso   1.000  C
  H93      1.0000 0.44830  0.38930  0.34580  Biso   1.000  H
  H94      1.0000 0.55170  0.38930  0.65420  Biso   1.000  H
  H95      1.0000 0.94830  0.88930  0.34580  Biso   1.000  H
  H96      1.0000 0.05170  0.88930  0.65420  Biso   1.000  H
  H97      1.0000 0.55170  0.61070  0.65420  Biso   1.000  H
  H98      1.0000 0.44830  0.61070  0.34580  Biso   1.000  H
  H99      1.0000 0.05170  0.11070  0.65420  Biso   1.000  H
  H100     1.0000 0.94830  0.11070  0.34580  Biso   1.000  H
  C169     1.0000 0.45520  0.50000  0.33140  Biso   1.000  C
  C170     1.0000 0.54480  0.50000  0.66860  Biso   1.000  C
  C171     1.0000 0.95520  0.00000  0.33140  Biso   1.000  C
  C172     1.0000 0.04480  0.00000  0.66860  Biso   1.000  C
  C173     1.0000 0.49950  0.50000  0.25470  Biso   1.000  C
  C174     1.0000 0.50050  0.50000  0.74530  Biso   1.000  C
  C175     1.0000 0.99950  0.00000  0.25470  Biso   1.000  C
  C176     1.0000 0.00050  0.00000  0.74530  Biso   1.000  C
  C177     1.0000 0.52170  0.56510  0.22040  Biso   1.000  C
  C178     1.0000 0.47830  0.56510  0.77960  Biso   1.000  C
  C179     1.0000 0.02170  0.06510  0.22040  Biso   1.000  C
  C180     1.0000 0.97830  0.06510  0.77960  Biso   1.000  C
  C181     1.0000 0.47830  0.43490  0.77960  Biso   1.000  C
  C182     1.0000 0.52170  0.43490  0.22040  Biso   1.000  C
  C183     1.0000 0.97830  0.93490  0.77960  Biso   1.000  C
  C184     1.0000 0.02170  0.93490  0.22040  Biso   1.000  C
  H101     1.0000 0.50770  0.61050  0.24360  Biso   1.000  H
  H102     1.0000 0.49230  0.61050  0.75640  Biso   1.000  H
  H103     1.0000 0.00770  0.11050  0.24360  Biso   1.000  H
  H104     1.0000 0.99230  0.11050  0.75640  Biso   1.000  H
  H105     1.0000 0.49230  0.38950  0.75640  Biso   1.000  H
  H106     1.0000 0.50770  0.38950  0.24360  Biso   1.000  H
  H107     1.0000 0.99230  0.88950  0.75640  Biso   1.000  H
  H108     1.0000 0.00770  0.88950  0.24360  Biso   1.000  H
  C185     1.0000 0.56410  0.56490  0.15230  Biso   1.000  C
  C186     1.0000 0.43590  0.56490  0.84770  Biso   1.000  C
  C187     1.0000 0.06410  0.06490  0.15230  Biso   1.000  C
  C188     1.0000 0.93590  0.06490  0.84770  Biso   1.000  C
  C189     1.0000 0.43590  0.43510  0.84770  Biso   1.000  C
  C190     1.0000 0.56410  0.43510  0.15230  Biso   1.000  C
  C191     1.0000 0.93590  0.93510  0.84770  Biso   1.000  C
  C192     1.0000 0.06410  0.93510  0.15230  Biso   1.000  C
  H109     1.0000 0.57830  0.60990  0.12840  Biso   1.000  H
  H110     1.0000 0.42170  0.60990  0.87160  Biso   1.000  H
  H111     1.0000 0.07830  0.10990  0.12840  Biso   1.000  H
  H112     1.0000 0.92170  0.10990  0.87160  Biso   1.000  H
  H113     1.0000 0.42170  0.39010  0.87160  Biso   1.000  H
  H114     1.0000 0.57830  0.39010  0.12840  Biso   1.000  H
  H115     1.0000 0.92170  0.89010  0.87160  Biso   1.000  H
  H116     1.0000 0.07830  0.89010  0.12840  Biso   1.000  H
  C193     1.0000 0.58540  0.50000  0.11970  Biso   1.000  C
  C194     1.0000 0.41460  0.50000  0.88030  Biso   1.000  C
  C195     1.0000 0.08540  0.00000  0.11970  Biso   1.000  C
  C196     1.0000 0.91460  0.00000  0.88030  Biso   1.000  C
  H117     1.0000 0.61490  0.50000  0.07450  Biso   1.000  H
  H118     1.0000 0.38510  0.50000  0.92550  Biso   1.000  H
  H119     1.0000 0.11490  0.00000  0.07450  Biso   1.000  H
  H120     1.0000 0.88510  0.00000  0.92550  Biso   1.000  H
  H121     1.0000 0.20830  0.53750  0.60120  Biso   1.000  H
  H122     1.0000 0.79170  0.53750  0.39880  Biso   1.000  H
  H123     1.0000 0.70830  0.03750  0.60120  Biso   1.000  H
  H124     1.0000 0.29170  0.03750  0.39880  Biso   1.000  H
  H125     1.0000 0.79170  0.46250  0.39880  Biso   1.000  H
  H126     1.0000 0.20830  0.46250  0.60120  Biso   1.000  H
  H127     1.0000 0.29170  0.96250  0.39880  Biso   1.000  H
  H128     1.0000 0.70830  0.96250  0.60120  Biso   1.000  H
  H129     1.0000 0.32600  0.45820  0.56320  Biso   1.000  H
  H130     1.0000 0.67400  0.45820  0.43680  Biso   1.000  H
  H131     1.0000 0.82600  0.95820  0.56320  Biso   1.000  H
  H132     1.0000 0.17400  0.95820  0.43680  Biso   1.000  H
  H133     1.0000 0.67400  0.54180  0.43680  Biso   1.000  H
  H134     1.0000 0.32600  0.54180  0.56320  Biso   1.000  H
  H135     1.0000 0.17400  0.04180  0.43680  Biso   1.000  H
  H136     1.0000 0.82600  0.04180  0.56320  Biso   1.000  H
  C197     1.0000 0.95500  0.50000  0.96600  Biso   1.000  C
  C198     1.0000 0.04500  0.50000  0.03400  Biso   1.000  C
  C199     1.0000 0.45500  0.00000  0.96600  Biso   1.000  C
  C200     1.0000 0.54500  0.00000  0.03400  Biso   1.000  C
  Cl9      1.0000 0.99120  0.57830  0.96890  Biso   1.000  Cl
  Cl10     1.0000 0.00880  0.57830  0.03110  Biso   1.000  Cl
  Cl11     1.0000 0.49120  0.07830  0.96890  Biso   1.000  Cl
  Cl12     1.0000 0.50880  0.07830  0.03110  Biso   1.000  Cl
  Cl13     1.0000 0.00880  0.42170  0.03110  Biso   1.000  Cl
  Cl14     1.0000 0.99120  0.42170  0.96890  Biso   1.000  Cl
  Cl15     1.0000 0.50880  0.92170  0.03110  Biso   1.000  Cl
  Cl16     1.0000 0.49120  0.92170  0.96890  Biso   1.000  Cl
  Cl17     1.0000 0.89860  0.50000  0.83430  Biso   1.000  Cl
  Cl18     1.0000 0.10140  0.50000  0.16570  Biso   1.000  Cl
  Cl19     1.0000 0.39860  0.00000  0.83430  Biso   1.000  Cl
  Cl20     1.0000 0.60140  0.00000  0.16570  Biso   1.000  Cl
  O21      1.0000 0.71490  0.50000  0.81900  Biso   1.000  O
  O22      1.0000 0.28510  0.50000  0.18100  Biso   1.000  O
  O23      1.0000 0.21490  0.00000  0.81900  Biso   1.000  O
  O24      1.0000 0.78510  0.00000  0.18100  Biso   1.000  O
