data_image0
_cell_length_a       21.5395
_cell_length_b       18.351
_cell_length_c       12.1941
_cell_angle_alpha    90
_cell_angle_beta     116.455
_cell_angle_gamma    90

_symmetry_space_group_name_H-M    "P 1"
_symmetry_int_tables_number       1

loop_
  _symmetry_equiv_pos_as_xyz
  'x, y, z'

loop_
  _atom_site_label
  _atom_site_occupancy
  _atom_site_fract_x
  _atom_site_fract_y
  _atom_site_fract_z
  _atom_site_thermal_displace_type
  _atom_site_B_iso_or_equiv
  _atom_site_type_symbol
  Cu1      1.0000 0.06404  0.25053  0.01046  Biso   1.000  Cu
  Cu2      1.0000 0.93596  0.25053  0.98954  Biso   1.000  Cu
  Cu3      1.0000 0.56404  0.75053  0.01046  Biso   1.000  Cu
  Cu4      1.0000 0.43596  0.75053  0.98954  Biso   1.000  Cu
  Cu5      1.0000 0.93596  0.74947  0.98954  Biso   1.000  Cu
  Cu6      1.0000 0.06404  0.74947  0.01046  Biso   1.000  Cu
  Cu7      1.0000 0.43596  0.24947  0.98954  Biso   1.000  Cu
  Cu8      1.0000 0.56404  0.24947  0.01046  Biso   1.000  Cu
  Cl1      1.0000 0.03881  0.24856  0.17678  Biso   1.000  Cl
  Cl2      1.0000 0.96119  0.24856  0.82322  Biso   1.000  Cl
  Cl3      1.0000 0.53881  0.74856  0.17678  Biso   1.000  Cl
  Cl4      1.0000 0.46119  0.74856  0.82322  Biso   1.000  Cl
  Cl5      1.0000 0.96119  0.75144  0.82322  Biso   1.000  Cl
  Cl6      1.0000 0.03881  0.75144  0.17678  Biso   1.000  Cl
  Cl7      1.0000 0.46119  0.25144  0.82322  Biso   1.000  Cl
  Cl8      1.0000 0.53881  0.25144  0.17678  Biso   1.000  Cl
  S1       1.0000 0.12044  0.14866  0.98809  Biso   1.000  S
  S2       1.0000 0.87956  0.14866  0.01191  Biso   1.000  S
  S3       1.0000 0.62044  0.64866  0.98809  Biso   1.000  S
  S4       1.0000 0.37956  0.64866  0.01191  Biso   1.000  S
  S5       1.0000 0.87956  0.85134  0.01191  Biso   1.000  S
  S6       1.0000 0.12044  0.85134  0.98809  Biso   1.000  S
  S7       1.0000 0.37956  0.35134  0.01191  Biso   1.000  S
  S8       1.0000 0.62044  0.35134  0.98809  Biso   1.000  S
  S9       1.0000 0.36740  0.14895  0.96785  Biso   1.000  S
  S10      1.0000 0.63260  0.14895  0.03215  Biso   1.000  S
  S11      1.0000 0.86740  0.64895  0.96785  Biso   1.000  S
  S12      1.0000 0.13260  0.64895  0.03215  Biso   1.000  S
  S13      1.0000 0.63260  0.85105  0.03215  Biso   1.000  S
  S14      1.0000 0.36740  0.85105  0.96785  Biso   1.000  S
  S15      1.0000 0.13260  0.35105  0.03215  Biso   1.000  S
  S16      1.0000 0.86740  0.35105  0.96785  Biso   1.000  S
  O1       1.0000 0.22167  0.10925  0.89360  Biso   1.000  O
  O2       1.0000 0.77833  0.10925  0.10640  Biso   1.000  O
  O3       1.0000 0.72167  0.60925  0.89360  Biso   1.000  O
  O4       1.0000 0.27833  0.60925  0.10640  Biso   1.000  O
  O5       1.0000 0.77833  0.89075  0.10640  Biso   1.000  O
  O6       1.0000 0.22167  0.89075  0.89360  Biso   1.000  O
  O7       1.0000 0.27833  0.39075  0.10640  Biso   1.000  O
  O8       1.0000 0.72167  0.39075  0.89360  Biso   1.000  O
  H1       1.0000 0.19580  0.07590  0.89680  Biso   1.000  H
  H2       1.0000 0.80420  0.07590  0.10320  Biso   1.000  H
  H3       1.0000 0.69580  0.57590  0.89680  Biso   1.000  H
  H4       1.0000 0.30420  0.57590  0.10320  Biso   1.000  H
  H5       1.0000 0.80420  0.92410  0.10320  Biso   1.000  H
  H6       1.0000 0.19580  0.92410  0.89680  Biso   1.000  H
  H7       1.0000 0.30420  0.42410  0.10320  Biso   1.000  H
  H8       1.0000 0.69580  0.42410  0.89680  Biso   1.000  H
  O9       1.0000 0.31047  0.00000  0.89040  Biso   1.000  O
  O10      1.0000 0.68953  0.00000  0.10960  Biso   1.000  O
  O11      1.0000 0.81047  0.50000  0.89040  Biso   1.000  O
  O12      1.0000 0.18953  0.50000  0.10960  Biso   1.000  O
  O13      1.0000 0.13627  0.00000  0.90930  Biso   1.000  O
  O14      1.0000 0.86373  0.00000  0.09070  Biso   1.000  O
  O15      1.0000 0.63627  0.50000  0.90930  Biso   1.000  O
  O16      1.0000 0.36373  0.50000  0.09070  Biso   1.000  O
  C1       1.0000 0.25058  0.14541  0.00260  Biso   1.000  C
  C2       1.0000 0.74942  0.14541  0.99740  Biso   1.000  C
  C3       1.0000 0.75058  0.64541  0.00260  Biso   1.000  C
  C4       1.0000 0.24942  0.64541  0.99740  Biso   1.000  C
  C5       1.0000 0.74942  0.85459  0.99740  Biso   1.000  C
  C6       1.0000 0.25058  0.85459  0.00260  Biso   1.000  C
  C7       1.0000 0.24942  0.35459  0.99740  Biso   1.000  C
  C8       1.0000 0.75058  0.35459  0.00260  Biso   1.000  C
  C9       1.0000 0.21198  0.16443  0.06430  Biso   1.000  C
  C10      1.0000 0.78802  0.16443  0.93570  Biso   1.000  C
  C11      1.0000 0.71198  0.66443  0.06430  Biso   1.000  C
  C12      1.0000 0.28802  0.66443  0.93570  Biso   1.000  C
  C13      1.0000 0.78802  0.83557  0.93570  Biso   1.000  C
  C14      1.0000 0.21198  0.83557  0.06430  Biso   1.000  C
  C15      1.0000 0.28802  0.33557  0.93570  Biso   1.000  C
  C16      1.0000 0.71198  0.33557  0.06430  Biso   1.000  C
  C17      1.0000 0.24324  0.19871  0.17710  Biso   1.000  C
  C18      1.0000 0.75676  0.19871  0.82290  Biso   1.000  C
  C19      1.0000 0.74324  0.69871  0.17710  Biso   1.000  C
  C20      1.0000 0.25676  0.69871  0.82290  Biso   1.000  C
  C21      1.0000 0.75676  0.80129  0.82290  Biso   1.000  C
  C22      1.0000 0.24324  0.80129  0.17710  Biso   1.000  C
  C23      1.0000 0.25676  0.30129  0.82290  Biso   1.000  C
  C24      1.0000 0.74324  0.30129  0.17710  Biso   1.000  C
  H9       1.0000 0.21590  0.21090  0.21770  Biso   1.000  H
  H10      1.0000 0.78410  0.21090  0.78230  Biso   1.000  H
  H11      1.0000 0.71590  0.71090  0.21770  Biso   1.000  H
  H12      1.0000 0.28410  0.71090  0.78230  Biso   1.000  H
  H13      1.0000 0.78410  0.78910  0.78230  Biso   1.000  H
  H14      1.0000 0.21590  0.78910  0.21770  Biso   1.000  H
  H15      1.0000 0.28410  0.28910  0.78230  Biso   1.000  H
  H16      1.0000 0.71590  0.28910  0.21770  Biso   1.000  H
  C25      1.0000 0.31353  0.21580  0.23300  Biso   1.000  C
  C26      1.0000 0.68647  0.21580  0.76700  Biso   1.000  C
  C27      1.0000 0.81353  0.71580  0.23300  Biso   1.000  C
  C28      1.0000 0.18647  0.71580  0.76700  Biso   1.000  C
  C29      1.0000 0.68647  0.78420  0.76700  Biso   1.000  C
  C30      1.0000 0.31353  0.78420  0.23300  Biso   1.000  C
  C31      1.0000 0.18647  0.28420  0.76700  Biso   1.000  C
  C32      1.0000 0.81353  0.28420  0.23300  Biso   1.000  C
  C33      1.0000 0.35074  0.19981  0.16760  Biso   1.000  C
  C34      1.0000 0.64926  0.19981  0.83240  Biso   1.000  C
  C35      1.0000 0.85074  0.69981  0.16760  Biso   1.000  C
  C36      1.0000 0.14926  0.69981  0.83240  Biso   1.000  C
  C37      1.0000 0.64926  0.80019  0.83240  Biso   1.000  C
  C38      1.0000 0.35074  0.80019  0.16760  Biso   1.000  C
  C39      1.0000 0.14926  0.30019  0.83240  Biso   1.000  C
  C40      1.0000 0.85074  0.30019  0.16760  Biso   1.000  C
  H17      1.0000 0.39830  0.21290  0.20130  Biso   1.000  H
  H18      1.0000 0.60170  0.21290  0.79870  Biso   1.000  H
  H19      1.0000 0.89830  0.71290  0.20130  Biso   1.000  H
  H20      1.0000 0.10170  0.71290  0.79870  Biso   1.000  H
  H21      1.0000 0.60170  0.78710  0.79870  Biso   1.000  H
  H22      1.0000 0.39830  0.78710  0.20130  Biso   1.000  H
  H23      1.0000 0.10170  0.28710  0.79870  Biso   1.000  H
  H24      1.0000 0.89830  0.28710  0.20130  Biso   1.000  H
  C41      1.0000 0.32043  0.16529  0.05480  Biso   1.000  C
  C42      1.0000 0.67957  0.16529  0.94520  Biso   1.000  C
  C43      1.0000 0.82043  0.66529  0.05480  Biso   1.000  C
  C44      1.0000 0.17957  0.66529  0.94520  Biso   1.000  C
  C45      1.0000 0.67957  0.83471  0.94520  Biso   1.000  C
  C46      1.0000 0.32043  0.83471  0.05480  Biso   1.000  C
  C47      1.0000 0.17957  0.33471  0.94520  Biso   1.000  C
  C48      1.0000 0.82043  0.33471  0.05480  Biso   1.000  C
  C49      1.0000 0.37600  0.00000  0.98410  Biso   1.000  C
  C50      1.0000 0.62400  0.00000  0.01590  Biso   1.000  C
  C51      1.0000 0.87600  0.50000  0.98410  Biso   1.000  C
  C52      1.0000 0.12400  0.50000  0.01590  Biso   1.000  C
  C53      1.0000 0.41061  0.06528  0.03380  Biso   1.000  C
  C54      1.0000 0.58939  0.06528  0.96620  Biso   1.000  C
  C55      1.0000 0.91061  0.56528  0.03380  Biso   1.000  C
  C56      1.0000 0.08939  0.56528  0.96620  Biso   1.000  C
  C57      1.0000 0.58939  0.93472  0.96620  Biso   1.000  C
  C58      1.0000 0.41061  0.93472  0.03380  Biso   1.000  C
  C59      1.0000 0.08939  0.43472  0.96620  Biso   1.000  C
  C60      1.0000 0.91061  0.43472  0.03380  Biso   1.000  C
  C61      1.0000 0.47617  0.06497  0.13250  Biso   1.000  C
  C62      1.0000 0.52383  0.06497  0.86750  Biso   1.000  C
  C63      1.0000 0.97617  0.56497  0.13250  Biso   1.000  C
  C64      1.0000 0.02383  0.56497  0.86750  Biso   1.000  C
  C65      1.0000 0.52383  0.93503  0.86750  Biso   1.000  C
  C66      1.0000 0.47617  0.93503  0.13250  Biso   1.000  C
  C67      1.0000 0.02383  0.43503  0.86750  Biso   1.000  C
  C68      1.0000 0.97617  0.43503  0.13250  Biso   1.000  C
  H25      1.0000 0.49860  0.11010  0.16470  Biso   1.000  H
  H26      1.0000 0.50140  0.11010  0.83530  Biso   1.000  H
  H27      1.0000 0.99860  0.61010  0.16470  Biso   1.000  H
  H28      1.0000 0.00140  0.61010  0.83530  Biso   1.000  H
  H29      1.0000 0.50140  0.88990  0.83530  Biso   1.000  H
  H30      1.0000 0.49860  0.88990  0.16470  Biso   1.000  H
  H31      1.0000 0.00140  0.38990  0.83530  Biso   1.000  H
  H32      1.0000 0.99860  0.38990  0.16470  Biso   1.000  H
  C69      1.0000 0.51000  0.00000  0.18570  Biso   1.000  C
  C70      1.0000 0.49000  0.00000  0.81430  Biso   1.000  C
  C71      1.0000 0.01000  0.50000  0.18570  Biso   1.000  C
  C72      1.0000 0.99000  0.50000  0.81430  Biso   1.000  C
  C73      1.0000 0.12020  0.00000  0.00570  Biso   1.000  C
  C74      1.0000 0.87980  0.00000  0.99430  Biso   1.000  C
  C75      1.0000 0.62020  0.50000  0.00570  Biso   1.000  C
  C76      1.0000 0.37980  0.50000  0.99430  Biso   1.000  C
  C77      1.0000 0.11186  0.06525  0.05600  Biso   1.000  C
  C78      1.0000 0.88814  0.06525  0.94400  Biso   1.000  C
  C79      1.0000 0.61186  0.56525  0.05600  Biso   1.000  C
  C80      1.0000 0.38814  0.56525  0.94400  Biso   1.000  C
  C81      1.0000 0.88814  0.93475  0.94400  Biso   1.000  C
  C82      1.0000 0.11186  0.93475  0.05600  Biso   1.000  C
  C83      1.0000 0.38814  0.43475  0.94400  Biso   1.000  C
  C84      1.0000 0.61186  0.43475  0.05600  Biso   1.000  C
  C85      1.0000 0.09643  0.06491  0.15510  Biso   1.000  C
  C86      1.0000 0.90357  0.06491  0.84490  Biso   1.000  C
  C87      1.0000 0.59643  0.56491  0.15510  Biso   1.000  C
  C88      1.0000 0.40357  0.56491  0.84490  Biso   1.000  C
  C89      1.0000 0.90357  0.93509  0.84490  Biso   1.000  C
  C90      1.0000 0.09643  0.93509  0.15510  Biso   1.000  C
  C91      1.0000 0.40357  0.43509  0.84490  Biso   1.000  C
  C92      1.0000 0.59643  0.43509  0.15510  Biso   1.000  C
  H33      1.0000 0.09070  0.11000  0.18770  Biso   1.000  H
  H34      1.0000 0.90930  0.11000  0.81230  Biso   1.000  H
  H35      1.0000 0.59070  0.61000  0.18770  Biso   1.000  H
  H36      1.0000 0.40930  0.61000  0.81230  Biso   1.000  H
  H37      1.0000 0.90930  0.89000  0.81230  Biso   1.000  H
  H38      1.0000 0.09070  0.89000  0.18770  Biso   1.000  H
  H39      1.0000 0.40930  0.39000  0.81230  Biso   1.000  H
  H40      1.0000 0.59070  0.39000  0.18770  Biso   1.000  H
  C93      1.0000 0.08920  0.00000  0.20790  Biso   1.000  C
  C94      1.0000 0.91080  0.00000  0.79210  Biso   1.000  C
  C95      1.0000 0.58920  0.50000  0.20790  Biso   1.000  C
  C96      1.0000 0.41080  0.50000  0.79210  Biso   1.000  C
  C97      1.0000 0.35010  0.24830  0.36230  Biso   1.000  C
  C98      1.0000 0.64990  0.24830  0.63770  Biso   1.000  C
  C99      1.0000 0.85010  0.74830  0.36230  Biso   1.000  C
  C100     1.0000 0.14990  0.74830  0.63770  Biso   1.000  C
  C101     1.0000 0.64990  0.75170  0.63770  Biso   1.000  C
  C102     1.0000 0.35010  0.75170  0.36230  Biso   1.000  C
  C103     1.0000 0.14990  0.25170  0.63770  Biso   1.000  C
  C104     1.0000 0.85010  0.25170  0.36230  Biso   1.000  C
  C105     1.0000 0.57720  0.00000  0.30500  Biso   1.000  C
  C106     1.0000 0.42280  0.00000  0.69500  Biso   1.000  C
  C107     1.0000 0.07720  0.50000  0.30500  Biso   1.000  C
  C108     1.0000 0.92280  0.50000  0.69500  Biso   1.000  C
  C109     1.0000 0.07710  0.00000  0.32270  Biso   1.000  C
  C110     1.0000 0.92290  0.00000  0.67730  Biso   1.000  C
  C111     1.0000 0.57710  0.50000  0.32270  Biso   1.000  C
  C112     1.0000 0.42290  0.50000  0.67730  Biso   1.000  C
  C113     1.0000 0.29880  0.28240  0.39980  Biso   1.000  C
  C114     1.0000 0.70120  0.28240  0.60020  Biso   1.000  C
  C115     1.0000 0.79880  0.78240  0.39980  Biso   1.000  C
  C116     1.0000 0.20120  0.78240  0.60020  Biso   1.000  C
  C117     1.0000 0.70120  0.71760  0.60020  Biso   1.000  C
  C118     1.0000 0.29880  0.71760  0.39980  Biso   1.000  C
  C119     1.0000 0.20120  0.21760  0.60020  Biso   1.000  C
  C120     1.0000 0.79880  0.21760  0.39980  Biso   1.000  C
  H41      1.0000 0.32360  0.30260  0.48260  Biso   1.000  H
  H42      1.0000 0.67640  0.30260  0.51740  Biso   1.000  H
  H43      1.0000 0.82360  0.80260  0.48260  Biso   1.000  H
  H44      1.0000 0.17640  0.80260  0.51740  Biso   1.000  H
  H45      1.0000 0.67640  0.69740  0.51740  Biso   1.000  H
  H46      1.0000 0.32360  0.69740  0.48260  Biso   1.000  H
  H47      1.0000 0.17640  0.19740  0.51740  Biso   1.000  H
  H48      1.0000 0.82360  0.19740  0.48260  Biso   1.000  H
  H49      1.0000 0.26580  0.24540  0.39880  Biso   1.000  H
  H50      1.0000 0.73420  0.24540  0.60120  Biso   1.000  H
  H51      1.0000 0.76580  0.74540  0.39880  Biso   1.000  H
  H52      1.0000 0.23420  0.74540  0.60120  Biso   1.000  H
  H53      1.0000 0.73420  0.75460  0.60120  Biso   1.000  H
  H54      1.0000 0.26580  0.75460  0.39880  Biso   1.000  H
  H55      1.0000 0.23420  0.25460  0.60120  Biso   1.000  H
  H56      1.0000 0.76580  0.25460  0.39880  Biso   1.000  H
  H57      1.0000 0.27370  0.32150  0.34230  Biso   1.000  H
  H58      1.0000 0.72630  0.32150  0.65770  Biso   1.000  H
  H59      1.0000 0.77370  0.82150  0.34230  Biso   1.000  H
  H60      1.0000 0.22630  0.82150  0.65770  Biso   1.000  H
  H61      1.0000 0.72630  0.67850  0.65770  Biso   1.000  H
  H62      1.0000 0.27370  0.67850  0.34230  Biso   1.000  H
  H63      1.0000 0.22630  0.17850  0.65770  Biso   1.000  H
  H64      1.0000 0.77370  0.17850  0.34230  Biso   1.000  H
  C121     1.0000 0.40120  0.30710  0.36900  Biso   1.000  C
  C122     1.0000 0.59880  0.30710  0.63100  Biso   1.000  C
  C123     1.0000 0.90120  0.80710  0.36900  Biso   1.000  C
  C124     1.0000 0.09880  0.80710  0.63100  Biso   1.000  C
  C125     1.0000 0.59880  0.69290  0.63100  Biso   1.000  C
  C126     1.0000 0.40120  0.69290  0.36900  Biso   1.000  C
  C127     1.0000 0.09880  0.19290  0.63100  Biso   1.000  C
  C128     1.0000 0.90120  0.19290  0.36900  Biso   1.000  C
  H65      1.0000 0.42390  0.32680  0.45240  Biso   1.000  H
  H66      1.0000 0.57610  0.32680  0.54760  Biso   1.000  H
  H67      1.0000 0.92390  0.82680  0.45240  Biso   1.000  H
  H68      1.0000 0.07610  0.82680  0.54760  Biso   1.000  H
  H69      1.0000 0.57610  0.67320  0.54760  Biso   1.000  H
  H70      1.0000 0.42390  0.67320  0.45240  Biso   1.000  H
  H71      1.0000 0.07610  0.17320  0.54760  Biso   1.000  H
  H72      1.0000 0.92390  0.17320  0.45240  Biso   1.000  H
  H73      1.0000 0.37640  0.34620  0.31140  Biso   1.000  H
  H74      1.0000 0.62360  0.34620  0.68860  Biso   1.000  H
  H75      1.0000 0.87640  0.84620  0.31140  Biso   1.000  H
  H76      1.0000 0.12360  0.84620  0.68860  Biso   1.000  H
  H77      1.0000 0.62360  0.65380  0.68860  Biso   1.000  H
  H78      1.0000 0.37640  0.65380  0.31140  Biso   1.000  H
  H79      1.0000 0.12360  0.15380  0.68860  Biso   1.000  H
  H80      1.0000 0.87640  0.15380  0.31140  Biso   1.000  H
  H81      1.0000 0.43620  0.28620  0.34760  Biso   1.000  H
  H82      1.0000 0.56380  0.28620  0.65240  Biso   1.000  H
  H83      1.0000 0.93620  0.78620  0.34760  Biso   1.000  H
  H84      1.0000 0.06380  0.78620  0.65240  Biso   1.000  H
  H85      1.0000 0.56380  0.71380  0.65240  Biso   1.000  H
  H86      1.0000 0.43620  0.71380  0.34760  Biso   1.000  H
  H87      1.0000 0.06380  0.21380  0.65240  Biso   1.000  H
  H88      1.0000 0.93620  0.21380  0.34760  Biso   1.000  H
  C129     1.0000 0.39040  0.18810  0.44780  Biso   1.000  C
  C130     1.0000 0.60960  0.18810  0.55220  Biso   1.000  C
  C131     1.0000 0.89040  0.68810  0.44780  Biso   1.000  C
  C132     1.0000 0.10960  0.68810  0.55220  Biso   1.000  C
  C133     1.0000 0.60960  0.81190  0.55220  Biso   1.000  C
  C134     1.0000 0.39040  0.81190  0.44780  Biso   1.000  C
  C135     1.0000 0.10960  0.31190  0.55220  Biso   1.000  C
  C136     1.0000 0.89040  0.31190  0.44780  Biso   1.000  C
  H89      1.0000 0.41460  0.20710  0.53140  Biso   1.000  H
  H90      1.0000 0.58540  0.20710  0.46860  Biso   1.000  H
  H91      1.0000 0.91460  0.70710  0.53140  Biso   1.000  H
  H92      1.0000 0.08540  0.70710  0.46860  Biso   1.000  H
  H93      1.0000 0.58540  0.79290  0.46860  Biso   1.000  H
  H94      1.0000 0.41460  0.79290  0.53140  Biso   1.000  H
  H95      1.0000 0.08540  0.29290  0.46860  Biso   1.000  H
  H96      1.0000 0.91460  0.29290  0.53140  Biso   1.000  H
  H97      1.0000 0.42450  0.16850  0.42250  Biso   1.000  H
  H98      1.0000 0.57550  0.16850  0.57750  Biso   1.000  H
  H99      1.0000 0.92450  0.66850  0.42250  Biso   1.000  H
  H100     1.0000 0.07550  0.66850  0.57750  Biso   1.000  H
  H101     1.0000 0.57550  0.83150  0.57750  Biso   1.000  H
  H102     1.0000 0.42450  0.83150  0.42250  Biso   1.000  H
  H103     1.0000 0.07550  0.33150  0.57750  Biso   1.000  H
  H104     1.0000 0.92450  0.33150  0.42250  Biso   1.000  H
  H105     1.0000 0.35860  0.14920  0.44510  Biso   1.000  H
  H106     1.0000 0.64140  0.14920  0.55490  Biso   1.000  H
  H107     1.0000 0.85860  0.64920  0.44510  Biso   1.000  H
  H108     1.0000 0.14140  0.64920  0.55490  Biso   1.000  H
  H109     1.0000 0.64140  0.85080  0.55490  Biso   1.000  H
  H110     1.0000 0.35860  0.85080  0.44510  Biso   1.000  H
  H111     1.0000 0.14140  0.35080  0.55490  Biso   1.000  H
  H112     1.0000 0.85860  0.35080  0.44510  Biso   1.000  H
  C137     1.0000 0.55540  0.00000  0.40920  Biso   1.000  C
  C138     1.0000 0.44460  0.00000  0.59080  Biso   1.000  C
  C139     1.0000 0.05540  0.50000  0.40920  Biso   1.000  C
  C140     1.0000 0.94460  0.50000  0.59080  Biso   1.000  C
  H113     1.0000 0.52690  0.04310  0.40180  Biso   1.000  H
  H114     1.0000 0.47310  0.04310  0.59820  Biso   1.000  H
  H115     1.0000 0.02690  0.54310  0.40180  Biso   1.000  H
  H116     1.0000 0.97310  0.54310  0.59820  Biso   1.000  H
  H117     1.0000 0.47310  0.95690  0.59820  Biso   1.000  H
  H118     1.0000 0.52690  0.95690  0.40180  Biso   1.000  H
  H119     1.0000 0.97310  0.45690  0.59820  Biso   1.000  H
  H120     1.0000 0.02690  0.45690  0.40180  Biso   1.000  H
  H121     1.0000 0.52860  0.95590  0.40390  Biso   1.000  H
  H122     1.0000 0.47140  0.95590  0.59610  Biso   1.000  H
  H123     1.0000 0.02860  0.45590  0.40390  Biso   1.000  H
  H124     1.0000 0.97140  0.45590  0.59610  Biso   1.000  H
  H125     1.0000 0.47140  0.04410  0.59610  Biso   1.000  H
  H126     1.0000 0.52860  0.04410  0.40390  Biso   1.000  H
  H127     1.0000 0.97140  0.54410  0.59610  Biso   1.000  H
  H128     1.0000 0.02860  0.54410  0.40390  Biso   1.000  H
  H129     1.0000 0.59690  0.00100  0.48830  Biso   1.000  H
  H130     1.0000 0.40310  0.00100  0.51170  Biso   1.000  H
  H131     1.0000 0.09690  0.50100  0.48830  Biso   1.000  H
  H132     1.0000 0.90310  0.50100  0.51170  Biso   1.000  H
  H133     1.0000 0.40310  0.99900  0.51170  Biso   1.000  H
  H134     1.0000 0.59690  0.99900  0.48830  Biso   1.000  H
  H135     1.0000 0.90310  0.49900  0.51170  Biso   1.000  H
  H136     1.0000 0.09690  0.49900  0.48830  Biso   1.000  H
  C141     1.0000 0.62194  0.93250  0.31660  Biso   1.000  C
  C142     1.0000 0.37806  0.93250  0.68340  Biso   1.000  C
  C143     1.0000 0.12194  0.43250  0.31660  Biso   1.000  C
  C144     1.0000 0.87806  0.43250  0.68340  Biso   1.000  C
  C145     1.0000 0.37806  0.06750  0.68340  Biso   1.000  C
  C146     1.0000 0.62194  0.06750  0.31660  Biso   1.000  C
  C147     1.0000 0.87806  0.56750  0.68340  Biso   1.000  C
  C148     1.0000 0.12194  0.56750  0.31660  Biso   1.000  C
  H137     1.0000 0.63570  0.93240  0.25000  Biso   1.000  H
  H138     1.0000 0.36430  0.93240  0.75000  Biso   1.000  H
  H139     1.0000 0.13570  0.43240  0.25000  Biso   1.000  H
  H140     1.0000 0.86430  0.43240  0.75000  Biso   1.000  H
  H141     1.0000 0.36430  0.06760  0.75000  Biso   1.000  H
  H142     1.0000 0.63570  0.06760  0.25000  Biso   1.000  H
  H143     1.0000 0.86430  0.56760  0.75000  Biso   1.000  H
  H144     1.0000 0.13570  0.56760  0.25000  Biso   1.000  H
  H145     1.0000 0.66350  0.93370  0.39560  Biso   1.000  H
  H146     1.0000 0.33650  0.93370  0.60440  Biso   1.000  H
  H147     1.0000 0.16350  0.43370  0.39560  Biso   1.000  H
  H148     1.0000 0.83650  0.43370  0.60440  Biso   1.000  H
  H149     1.0000 0.33650  0.06630  0.60440  Biso   1.000  H
  H150     1.0000 0.66350  0.06630  0.39560  Biso   1.000  H
  H151     1.0000 0.83650  0.56630  0.60440  Biso   1.000  H
  H152     1.0000 0.16350  0.56630  0.39560  Biso   1.000  H
  H153     1.0000 0.59520  0.88840  0.31160  Biso   1.000  H
  H154     1.0000 0.40480  0.88840  0.68840  Biso   1.000  H
  H155     1.0000 0.09520  0.38840  0.31160  Biso   1.000  H
  H156     1.0000 0.90480  0.38840  0.68840  Biso   1.000  H
  H157     1.0000 0.40480  0.11160  0.68840  Biso   1.000  H
  H158     1.0000 0.59520  0.11160  0.31160  Biso   1.000  H
  H159     1.0000 0.90480  0.61160  0.68840  Biso   1.000  H
  H160     1.0000 0.09520  0.61160  0.31160  Biso   1.000  H
  C149     1.0000 0.14750  0.00000  0.43310  Biso   1.000  C
  C150     1.0000 0.85250  0.00000  0.56690  Biso   1.000  C
  C151     1.0000 0.64750  0.50000  0.43310  Biso   1.000  C
  C152     1.0000 0.35250  0.50000  0.56690  Biso   1.000  C
  H161     1.0000 0.17380  0.95710  0.43010  Biso   1.000  H
  H162     1.0000 0.82620  0.95710  0.56990  Biso   1.000  H
  H163     1.0000 0.67380  0.45710  0.43010  Biso   1.000  H
  H164     1.0000 0.32620  0.45710  0.56990  Biso   1.000  H
  H165     1.0000 0.82620  0.04290  0.56990  Biso   1.000  H
  H166     1.0000 0.17380  0.04290  0.43010  Biso   1.000  H
  H167     1.0000 0.32620  0.54290  0.56990  Biso   1.000  H
  H168     1.0000 0.67380  0.54290  0.43010  Biso   1.000  H
  H169     1.0000 0.14150  0.99860  0.50810  Biso   1.000  H
  H170     1.0000 0.85850  0.99860  0.49190  Biso   1.000  H
  H171     1.0000 0.64150  0.49860  0.50810  Biso   1.000  H
  H172     1.0000 0.35850  0.49860  0.49190  Biso   1.000  H
  H173     1.0000 0.85850  0.00140  0.49190  Biso   1.000  H
  H174     1.0000 0.14150  0.00140  0.50810  Biso   1.000  H
  H175     1.0000 0.35850  0.50140  0.49190  Biso   1.000  H
  H176     1.0000 0.64150  0.50140  0.50810  Biso   1.000  H
  H177     1.0000 0.17280  0.04430  0.43250  Biso   1.000  H
  H178     1.0000 0.82720  0.04430  0.56750  Biso   1.000  H
  H179     1.0000 0.67280  0.54430  0.43250  Biso   1.000  H
  H180     1.0000 0.32720  0.54430  0.56750  Biso   1.000  H
  H181     1.0000 0.82720  0.95570  0.56750  Biso   1.000  H
  H182     1.0000 0.17280  0.95570  0.43250  Biso   1.000  H
  H183     1.0000 0.32720  0.45570  0.56750  Biso   1.000  H
  H184     1.0000 0.67280  0.45570  0.43250  Biso   1.000  H
  C153     1.0000 0.03590  0.06670  0.32670  Biso   1.000  C
  C154     1.0000 0.96410  0.06670  0.67330  Biso   1.000  C
  C155     1.0000 0.53590  0.56670  0.32670  Biso   1.000  C
  C156     1.0000 0.46410  0.56670  0.67330  Biso   1.000  C
  C157     1.0000 0.96410  0.93330  0.67330  Biso   1.000  C
  C158     1.0000 0.03590  0.93330  0.32670  Biso   1.000  C
  C159     1.0000 0.46410  0.43330  0.67330  Biso   1.000  C
  C160     1.0000 0.53590  0.43330  0.32670  Biso   1.000  C
  H185     1.0000 0.02910  0.06500  0.40100  Biso   1.000  H
  H186     1.0000 0.97090  0.06500  0.59900  Biso   1.000  H
  H187     1.0000 0.52910  0.56500  0.40100  Biso   1.000  H
  H188     1.0000 0.47090  0.56500  0.59900  Biso   1.000  H
  H189     1.0000 0.97090  0.93500  0.59900  Biso   1.000  H
  H190     1.0000 0.02910  0.93500  0.40100  Biso   1.000  H
  H191     1.0000 0.47090  0.43500  0.59900  Biso   1.000  H
  H192     1.0000 0.52910  0.43500  0.40100  Biso   1.000  H
  H193     1.0000 0.99070  0.06680  0.25440  Biso   1.000  H
  H194     1.0000 0.00930  0.06680  0.74560  Biso   1.000  H
  H195     1.0000 0.49070  0.56680  0.25440  Biso   1.000  H
  H196     1.0000 0.50930  0.56680  0.74560  Biso   1.000  H
  H197     1.0000 0.00930  0.93320  0.74560  Biso   1.000  H
  H198     1.0000 0.99070  0.93320  0.25440  Biso   1.000  H
  H199     1.0000 0.50930  0.43320  0.74560  Biso   1.000  H
  H200     1.0000 0.49070  0.43320  0.25440  Biso   1.000  H
  H201     1.0000 0.06140  0.11100  0.32720  Biso   1.000  H
  H202     1.0000 0.93860  0.11100  0.67280  Biso   1.000  H
  H203     1.0000 0.56140  0.61100  0.32720  Biso   1.000  H
  H204     1.0000 0.43860  0.61100  0.67280  Biso   1.000  H
  H205     1.0000 0.93860  0.88900  0.67280  Biso   1.000  H
  H206     1.0000 0.06140  0.88900  0.32720  Biso   1.000  H
  H207     1.0000 0.43860  0.38900  0.67280  Biso   1.000  H
  H208     1.0000 0.56140  0.38900  0.32720  Biso   1.000  H
  O17      1.0000 0.27980  0.00000  0.30830  Biso   1.000  O
  O18      1.0000 0.72020  0.00000  0.69170  Biso   1.000  O
  O19      1.0000 0.77980  0.50000  0.30830  Biso   1.000  O
  O20      1.0000 0.22020  0.50000  0.69170  Biso   1.000  O
  C161     1.0000 0.31640  0.00000  0.23410  Biso   1.000  C
  C162     1.0000 0.68360  0.00000  0.76590  Biso   1.000  C
  C163     1.0000 0.81640  0.50000  0.23410  Biso   1.000  C
  C164     1.0000 0.18360  0.50000  0.76590  Biso   1.000  C
  H209     1.0000 0.28790  0.96520  0.89970  Biso   1.000  H
  H210     1.0000 0.71210  0.96520  0.10030  Biso   1.000  H
  H211     1.0000 0.78790  0.46520  0.89970  Biso   1.000  H
  H212     1.0000 0.21210  0.46520  0.10030  Biso   1.000  H
  H213     1.0000 0.71210  0.03480  0.10030  Biso   1.000  H
  H214     1.0000 0.28790  0.03480  0.89970  Biso   1.000  H
  H215     1.0000 0.21210  0.53480  0.10030  Biso   1.000  H
  H216     1.0000 0.78790  0.53480  0.89970  Biso   1.000  H
  H217     1.0000 0.16200  0.03570  0.91550  Biso   1.000  H
  H218     1.0000 0.83800  0.03570  0.08450  Biso   1.000  H
  H219     1.0000 0.66200  0.53570  0.91550  Biso   1.000  H
  H220     1.0000 0.33800  0.53570  0.08450  Biso   1.000  H
  H221     1.0000 0.83800  0.96430  0.08450  Biso   1.000  H
  H222     1.0000 0.16200  0.96430  0.91550  Biso   1.000  H
  H223     1.0000 0.33800  0.46430  0.08450  Biso   1.000  H
  H224     1.0000 0.66200  0.46430  0.91550  Biso   1.000  H
