data_image0
_cell_length_a       3.8409
_cell_length_b       19.705
_cell_length_c       17.084
_cell_angle_alpha    90
_cell_angle_beta     94.94
_cell_angle_gamma    90

_symmetry_space_group_name_H-M    "P 1"
_symmetry_int_tables_number       1

loop_
  _symmetry_equiv_pos_as_xyz
  'x, y, z'

loop_
  _atom_site_label
  _atom_site_occupancy
  _atom_site_fract_x
  _atom_site_fract_y
  _atom_site_fract_z
  _atom_site_thermal_displace_type
  _atom_site_B_iso_or_equiv
  _atom_site_type_symbol
  Br1      1.0000 0.45630  0.64122  0.02612  Biso   1.000  Br
  Br2      1.0000 0.45630  0.85878  0.52612  Biso   1.000  Br
  Br3      1.0000 0.54370  0.35878  0.97388  Biso   1.000  Br
  Br4      1.0000 0.54370  0.14122  0.47388  Biso   1.000  Br
  Br5      1.0000 0.98637  0.82273  0.08626  Biso   1.000  Br
  Br6      1.0000 0.98637  0.67727  0.58626  Biso   1.000  Br
  Br7      1.0000 0.01363  0.17727  0.91374  Biso   1.000  Br
  Br8      1.0000 0.01363  0.32273  0.41374  Biso   1.000  Br
  Cu1      1.0000 0.93550  0.62963  0.12089  Biso   1.000  Cu
  Cu2      1.0000 0.93550  0.87037  0.62089  Biso   1.000  Cu
  Cu3      1.0000 0.06450  0.37037  0.87911  Biso   1.000  Cu
  Cu4      1.0000 0.06450  0.12963  0.37911  Biso   1.000  Cu
  Cu5      1.0000 0.48100  0.75259  0.07270  Biso   1.000  Cu
  Cu6      1.0000 0.48100  0.74741  0.57270  Biso   1.000  Cu
  Cu7      1.0000 0.51900  0.24741  0.92730  Biso   1.000  Cu
  Cu8      1.0000 0.51900  0.25259  0.42730  Biso   1.000  Cu
  N1       1.0000 0.11020  0.65690  0.23250  Biso   1.000  N
  N2       1.0000 0.11020  0.84310  0.73250  Biso   1.000  N
  N3       1.0000 0.88980  0.34310  0.76750  Biso   1.000  N
  N4       1.0000 0.88980  0.15690  0.26750  Biso   1.000  N
  N5       1.0000 0.07850  0.53300  0.16400  Biso   1.000  N
  N6       1.0000 0.07850  0.96700  0.66400  Biso   1.000  N
  N7       1.0000 0.92150  0.46700  0.83600  Biso   1.000  N
  N8       1.0000 0.92150  0.03300  0.33600  Biso   1.000  N
  C1       1.0000 0.12750  0.71740  0.26590  Biso   1.000  C
  C2       1.0000 0.12750  0.78260  0.76590  Biso   1.000  C
  C3       1.0000 0.87250  0.28260  0.73410  Biso   1.000  C
  C4       1.0000 0.87250  0.21740  0.23410  Biso   1.000  C
  H1       1.0000 0.03480  0.75440  0.23740  Biso   1.000  H
  H2       1.0000 0.03480  0.74560  0.73740  Biso   1.000  H
  H3       1.0000 0.96520  0.24560  0.76260  Biso   1.000  H
  H4       1.0000 0.96520  0.25440  0.26260  Biso   1.000  H
  C5       1.0000 0.27880  0.72810  0.34200  Biso   1.000  C
  C6       1.0000 0.27880  0.77190  0.84200  Biso   1.000  C
  C7       1.0000 0.72120  0.27190  0.65800  Biso   1.000  C
  C8       1.0000 0.72120  0.22810  0.15800  Biso   1.000  C
  H5       1.0000 0.28480  0.77140  0.36360  Biso   1.000  H
  H6       1.0000 0.28480  0.72860  0.86360  Biso   1.000  H
  H7       1.0000 0.71520  0.22860  0.63640  Biso   1.000  H
  H8       1.0000 0.71520  0.27140  0.13640  Biso   1.000  H
  C9       1.0000 0.41700  0.67500  0.38420  Biso   1.000  C
  C10      1.0000 0.41700  0.82500  0.88420  Biso   1.000  C
  C11      1.0000 0.58300  0.32500  0.61580  Biso   1.000  C
  C12      1.0000 0.58300  0.17500  0.11580  Biso   1.000  C
  H9       1.0000 0.52100  0.68180  0.43470  Biso   1.000  H
  H10      1.0000 0.52100  0.81820  0.93470  Biso   1.000  H
  H11      1.0000 0.47900  0.31820  0.56530  Biso   1.000  H
  H12      1.0000 0.47900  0.18180  0.06530  Biso   1.000  H
  C13      1.0000 0.40360  0.61030  0.35220  Biso   1.000  C
  C14      1.0000 0.40360  0.88970  0.85220  Biso   1.000  C
  C15      1.0000 0.59640  0.38970  0.64780  Biso   1.000  C
  C16      1.0000 0.59640  0.11030  0.14780  Biso   1.000  C
  C17      1.0000 0.24820  0.60280  0.27510  Biso   1.000  C
  C18      1.0000 0.24820  0.89720  0.77510  Biso   1.000  C
  C19      1.0000 0.75180  0.39720  0.72490  Biso   1.000  C
  C20      1.0000 0.75180  0.10280  0.22490  Biso   1.000  C
  C21      1.0000 0.23030  0.53760  0.23930  Biso   1.000  C
  C22      1.0000 0.23030  0.96240  0.73930  Biso   1.000  C
  C23      1.0000 0.76970  0.46240  0.76070  Biso   1.000  C
  C24      1.0000 0.76970  0.03760  0.26070  Biso   1.000  C
  C25      1.0000 0.37300  0.48070  0.28080  Biso   1.000  C
  C26      1.0000 0.37300  0.01930  0.78080  Biso   1.000  C
  C27      1.0000 0.62700  0.51930  0.71920  Biso   1.000  C
  C28      1.0000 0.62700  0.98070  0.21920  Biso   1.000  C
  C29      1.0000 0.35500  0.41840  0.24290  Biso   1.000  C
  C30      1.0000 0.35500  0.08160  0.74290  Biso   1.000  C
  C31      1.0000 0.64500  0.58160  0.75710  Biso   1.000  C
  C32      1.0000 0.64500  0.91840  0.25710  Biso   1.000  C
  H13      1.0000 0.44690  0.37990  0.26840  Biso   1.000  H
  H14      1.0000 0.44690  0.12010  0.76840  Biso   1.000  H
  H15      1.0000 0.55310  0.62010  0.73160  Biso   1.000  H
  H16      1.0000 0.55310  0.87990  0.23160  Biso   1.000  H
  C33      1.0000 0.20370  0.41390  0.16870  Biso   1.000  C
  C34      1.0000 0.20370  0.08610  0.66870  Biso   1.000  C
  C35      1.0000 0.79630  0.58610  0.83130  Biso   1.000  C
  C36      1.0000 0.79630  0.91390  0.33130  Biso   1.000  C
  H17      1.0000 0.18980  0.37230  0.14290  Biso   1.000  H
  H18      1.0000 0.18980  0.12770  0.64290  Biso   1.000  H
  H19      1.0000 0.81020  0.62770  0.85710  Biso   1.000  H
  H20      1.0000 0.81020  0.87230  0.35710  Biso   1.000  H
  C37      1.0000 0.06790  0.47260  0.13120  Biso   1.000  C
  C38      1.0000 0.06790  0.02740  0.63120  Biso   1.000  C
  C39      1.0000 0.93210  0.52740  0.86880  Biso   1.000  C
  C40      1.0000 0.93210  0.97260  0.36880  Biso   1.000  C
  H21      1.0000 0.96430  0.46850  0.08020  Biso   1.000  H
  H22      1.0000 0.96430  0.03150  0.58020  Biso   1.000  H
  H23      1.0000 0.03570  0.53150  0.91980  Biso   1.000  H
  H24      1.0000 0.03570  0.96850  0.41980  Biso   1.000  H
  C41      1.0000 0.54060  0.55140  0.39230  Biso   1.000  C
  C42      1.0000 0.54060  0.94860  0.89230  Biso   1.000  C
  C43      1.0000 0.45940  0.44860  0.60770  Biso   1.000  C
  C44      1.0000 0.45940  0.05140  0.10770  Biso   1.000  C
  H25      1.0000 0.64310  0.55580  0.44330  Biso   1.000  H
  H26      1.0000 0.64310  0.94420  0.94330  Biso   1.000  H
  H27      1.0000 0.35690  0.44420  0.55670  Biso   1.000  H
  H28      1.0000 0.35690  0.05580  0.05670  Biso   1.000  H
  C45      1.0000 0.52680  0.49120  0.35960  Biso   1.000  C
  C46      1.0000 0.52680  0.00880  0.85960  Biso   1.000  C
  C47      1.0000 0.47320  0.50880  0.64040  Biso   1.000  C
  C48      1.0000 0.47320  0.99120  0.14040  Biso   1.000  C
  H29      1.0000 0.61910  0.45420  0.38810  Biso   1.000  H
  H30      1.0000 0.61910  0.04580  0.88810  Biso   1.000  H
  H31      1.0000 0.38090  0.54580  0.61190  Biso   1.000  H
  H32      1.0000 0.38090  0.95420  0.11190  Biso   1.000  H
