data_image0
_cell_length_a       17.076
_cell_length_b       18.007
_cell_length_c       15.895
_cell_angle_alpha    90
_cell_angle_beta     90
_cell_angle_gamma    90

_symmetry_space_group_name_H-M    "P 1"
_symmetry_int_tables_number       1

loop_
  _symmetry_equiv_pos_as_xyz
  'x, y, z'

loop_
  _atom_site_label
  _atom_site_occupancy
  _atom_site_fract_x
  _atom_site_fract_y
  _atom_site_fract_z
  _atom_site_thermal_displace_type
  _atom_site_B_iso_or_equiv
  _atom_site_type_symbol
  Fe1      1.0000 0.36964  0.50040  0.25488  Biso   1.000  Fe
  Fe2      1.0000 0.86964  0.50040  0.24512  Biso   1.000  Fe
  Fe3      1.0000 0.36964  0.99960  0.75488  Biso   1.000  Fe
  Fe4      1.0000 0.13036  0.00040  0.25488  Biso   1.000  Fe
  Fe5      1.0000 0.63036  0.49960  0.74512  Biso   1.000  Fe
  Fe6      1.0000 0.13036  0.49960  0.75488  Biso   1.000  Fe
  Fe7      1.0000 0.63036  0.00040  0.24512  Biso   1.000  Fe
  Fe8      1.0000 0.86964  0.99960  0.74512  Biso   1.000  Fe
  Cu1      1.0000 0.49720  0.68151  0.44133  Biso   1.000  Cu
  Cu2      1.0000 0.99720  0.68151  0.05867  Biso   1.000  Cu
  Cu3      1.0000 0.49720  0.81849  0.94133  Biso   1.000  Cu
  Cu4      1.0000 0.00280  0.18151  0.44133  Biso   1.000  Cu
  Cu5      1.0000 0.50280  0.31849  0.55867  Biso   1.000  Cu
  Cu6      1.0000 0.00280  0.31849  0.94133  Biso   1.000  Cu
  Cu7      1.0000 0.50280  0.18151  0.05867  Biso   1.000  Cu
  Cu8      1.0000 0.99720  0.81849  0.55867  Biso   1.000  Cu
  Cu9      1.0000 0.23726  0.34015  0.45016  Biso   1.000  Cu
  Cu10     1.0000 0.73726  0.34015  0.04984  Biso   1.000  Cu
  Cu11     1.0000 0.23726  0.15985  0.95016  Biso   1.000  Cu
  Cu12     1.0000 0.26274  0.84015  0.45016  Biso   1.000  Cu
  Cu13     1.0000 0.76274  0.65985  0.54984  Biso   1.000  Cu
  Cu14     1.0000 0.26274  0.65985  0.95016  Biso   1.000  Cu
  Cu15     1.0000 0.76274  0.84015  0.04984  Biso   1.000  Cu
  Cu16     1.0000 0.73726  0.15985  0.54984  Biso   1.000  Cu
  N1       1.0000 0.46230  0.59360  0.38030  Biso   1.000  N
  N2       1.0000 0.96230  0.59360  0.11970  Biso   1.000  N
  N3       1.0000 0.46230  0.90640  0.88030  Biso   1.000  N
  N4       1.0000 0.03770  0.09360  0.38030  Biso   1.000  N
  N5       1.0000 0.53770  0.40640  0.61970  Biso   1.000  N
  N6       1.0000 0.03770  0.40640  0.88030  Biso   1.000  N
  N7       1.0000 0.53770  0.09360  0.11970  Biso   1.000  N
  N8       1.0000 0.96230  0.90640  0.61970  Biso   1.000  N
  C1       1.0000 0.42820  0.55550  0.33440  Biso   1.000  C
  C2       1.0000 0.92820  0.55550  0.16560  Biso   1.000  C
  C3       1.0000 0.42820  0.94450  0.83440  Biso   1.000  C
  C4       1.0000 0.07180  0.05550  0.33440  Biso   1.000  C
  C5       1.0000 0.57180  0.44450  0.66560  Biso   1.000  C
  C6       1.0000 0.07180  0.44450  0.83440  Biso   1.000  C
  C7       1.0000 0.57180  0.05550  0.16560  Biso   1.000  C
  C8       1.0000 0.92820  0.94450  0.66560  Biso   1.000  C
  N9       1.0000 0.26500  0.42920  0.38780  Biso   1.000  N
  N10      1.0000 0.76500  0.42920  0.11220  Biso   1.000  N
  N11      1.0000 0.26500  0.07080  0.88780  Biso   1.000  N
  N12      1.0000 0.23500  0.92920  0.38780  Biso   1.000  N
  N13      1.0000 0.73500  0.57080  0.61220  Biso   1.000  N
  N14      1.0000 0.23500  0.57080  0.88780  Biso   1.000  N
  N15      1.0000 0.73500  0.92920  0.11220  Biso   1.000  N
  N16      1.0000 0.76500  0.07080  0.61220  Biso   1.000  N
  C9       1.0000 0.30470  0.45870  0.33920  Biso   1.000  C
  C10      1.0000 0.80470  0.45870  0.16080  Biso   1.000  C
  C11      1.0000 0.30470  0.04130  0.83920  Biso   1.000  C
  C12      1.0000 0.19530  0.95870  0.33920  Biso   1.000  C
  C13      1.0000 0.69530  0.54130  0.66080  Biso   1.000  C
  C14      1.0000 0.19530  0.54130  0.83920  Biso   1.000  C
  C15      1.0000 0.69530  0.95870  0.16080  Biso   1.000  C
  C16      1.0000 0.80470  0.04130  0.66080  Biso   1.000  C
  N17      1.0000 0.33840  0.30780  0.49420  Biso   1.000  N
  N18      1.0000 0.83840  0.30780  0.00580  Biso   1.000  N
  N19      1.0000 0.33840  0.19220  0.99420  Biso   1.000  N
  N20      1.0000 0.16160  0.80780  0.49420  Biso   1.000  N
  N21      1.0000 0.66160  0.69220  0.50580  Biso   1.000  N
  N22      1.0000 0.16160  0.69220  0.99420  Biso   1.000  N
  N23      1.0000 0.66160  0.80780  0.00580  Biso   1.000  N
  N24      1.0000 0.83840  0.19220  0.50580  Biso   1.000  N
  C17      1.0000 0.39970  0.30630  0.52040  Biso   1.000  C
  C18      1.0000 0.89970  0.30630  0.97960  Biso   1.000  C
  C19      1.0000 0.39970  0.19370  0.02040  Biso   1.000  C
  C20      1.0000 0.10030  0.80630  0.52040  Biso   1.000  C
  C21      1.0000 0.60030  0.69370  0.47960  Biso   1.000  C
  C22      1.0000 0.10030  0.69370  0.02040  Biso   1.000  C
  C23      1.0000 0.60030  0.80630  0.97960  Biso   1.000  C
  C24      1.0000 0.89970  0.19370  0.47960  Biso   1.000  C
  N25      1.0000 0.09310  0.24440  0.45060  Biso   1.000  N
  N26      1.0000 0.59310  0.24440  0.04940  Biso   1.000  N
  N27      1.0000 0.09310  0.25560  0.95060  Biso   1.000  N
  N28      1.0000 0.40690  0.74440  0.45060  Biso   1.000  N
  N29      1.0000 0.90690  0.75560  0.54940  Biso   1.000  N
  N30      1.0000 0.40690  0.75560  0.95060  Biso   1.000  N
  N31      1.0000 0.90690  0.74440  0.04940  Biso   1.000  N
  N32      1.0000 0.59310  0.25560  0.54940  Biso   1.000  N
  C25      1.0000 0.14660  0.28320  0.45250  Biso   1.000  C
  C26      1.0000 0.64660  0.28320  0.04750  Biso   1.000  C
  C27      1.0000 0.14660  0.21680  0.95250  Biso   1.000  C
  C28      1.0000 0.35340  0.78320  0.45250  Biso   1.000  C
  C29      1.0000 0.85340  0.71680  0.54750  Biso   1.000  C
  C30      1.0000 0.35340  0.71680  0.95250  Biso   1.000  C
  C31      1.0000 0.85340  0.78320  0.04750  Biso   1.000  C
  C32      1.0000 0.64660  0.21680  0.54750  Biso   1.000  C
  N33      1.0000 0.44740  0.42000  0.26390  Biso   1.000  N
  N34      1.0000 0.94740  0.42000  0.23610  Biso   1.000  N
  N35      1.0000 0.44740  0.08000  0.76390  Biso   1.000  N
  N36      1.0000 0.05260  0.92000  0.26390  Biso   1.000  N
  N37      1.0000 0.55260  0.58000  0.73610  Biso   1.000  N
  N38      1.0000 0.05260  0.58000  0.76390  Biso   1.000  N
  N39      1.0000 0.55260  0.92000  0.23610  Biso   1.000  N
  N40      1.0000 0.94740  0.08000  0.73610  Biso   1.000  N
  C33      1.0000 0.44490  0.36230  0.31540  Biso   1.000  C
  C34      1.0000 0.94490  0.36230  0.18460  Biso   1.000  C
  C35      1.0000 0.44490  0.13770  0.81540  Biso   1.000  C
  C36      1.0000 0.05510  0.86230  0.31540  Biso   1.000  C
  C37      1.0000 0.55510  0.63770  0.68460  Biso   1.000  C
  C38      1.0000 0.05510  0.63770  0.81540  Biso   1.000  C
  C39      1.0000 0.55510  0.86230  0.18460  Biso   1.000  C
  C40      1.0000 0.94490  0.13770  0.68460  Biso   1.000  C
  H1       1.0000 0.39890  0.35500  0.34800  Biso   1.000  H
  H2       1.0000 0.89890  0.35500  0.15200  Biso   1.000  H
  H3       1.0000 0.39890  0.14500  0.84800  Biso   1.000  H
  H4       1.0000 0.10110  0.85500  0.34800  Biso   1.000  H
  H5       1.0000 0.60110  0.64500  0.65200  Biso   1.000  H
  H6       1.0000 0.10110  0.64500  0.84800  Biso   1.000  H
  H7       1.0000 0.60110  0.85500  0.15200  Biso   1.000  H
  H8       1.0000 0.89890  0.14500  0.65200  Biso   1.000  H
  C41      1.0000 0.50540  0.31240  0.32450  Biso   1.000  C
  C42      1.0000 0.00540  0.31240  0.17550  Biso   1.000  C
  C43      1.0000 0.50540  0.18760  0.82450  Biso   1.000  C
  C44      1.0000 0.99460  0.81240  0.32450  Biso   1.000  C
  C45      1.0000 0.49460  0.68760  0.67550  Biso   1.000  C
  C46      1.0000 0.99460  0.68760  0.82450  Biso   1.000  C
  C47      1.0000 0.49460  0.81240  0.17550  Biso   1.000  C
  C48      1.0000 0.00540  0.18760  0.67550  Biso   1.000  C
  H9       1.0000 0.50120  0.27210  0.36280  Biso   1.000  H
  H10      1.0000 0.00120  0.27210  0.13720  Biso   1.000  H
  H11      1.0000 0.50120  0.22790  0.86280  Biso   1.000  H
  H12      1.0000 0.99880  0.77210  0.36280  Biso   1.000  H
  H13      1.0000 0.49880  0.72790  0.63720  Biso   1.000  H
  H14      1.0000 0.99880  0.72790  0.86280  Biso   1.000  H
  H15      1.0000 0.49880  0.77210  0.13720  Biso   1.000  H
  H16      1.0000 0.00120  0.22790  0.63720  Biso   1.000  H
  C49      1.0000 0.57240  0.32190  0.27680  Biso   1.000  C
  C50      1.0000 0.07240  0.32190  0.22320  Biso   1.000  C
  C51      1.0000 0.57240  0.17810  0.77680  Biso   1.000  C
  C52      1.0000 0.92760  0.82190  0.27680  Biso   1.000  C
  C53      1.0000 0.42760  0.67810  0.72320  Biso   1.000  C
  C54      1.0000 0.92760  0.67810  0.77680  Biso   1.000  C
  C55      1.0000 0.42760  0.82190  0.22320  Biso   1.000  C
  C56      1.0000 0.07240  0.17810  0.72320  Biso   1.000  C
  H17      1.0000 0.61490  0.28810  0.28140  Biso   1.000  H
  H18      1.0000 0.11490  0.28810  0.21860  Biso   1.000  H
  H19      1.0000 0.61490  0.21190  0.78140  Biso   1.000  H
  H20      1.0000 0.88510  0.78810  0.28140  Biso   1.000  H
  H21      1.0000 0.38510  0.71190  0.71860  Biso   1.000  H
  H22      1.0000 0.88510  0.71190  0.78140  Biso   1.000  H
  H23      1.0000 0.38510  0.78810  0.21860  Biso   1.000  H
  H24      1.0000 0.11490  0.21190  0.71860  Biso   1.000  H
  C57      1.0000 0.57610  0.38100  0.22300  Biso   1.000  C
  C58      1.0000 0.07610  0.38100  0.27700  Biso   1.000  C
  C59      1.0000 0.57610  0.11900  0.72300  Biso   1.000  C
  C60      1.0000 0.92390  0.88100  0.22300  Biso   1.000  C
  C61      1.0000 0.42390  0.61900  0.77700  Biso   1.000  C
  C62      1.0000 0.92390  0.61900  0.72300  Biso   1.000  C
  C63      1.0000 0.42390  0.88100  0.27700  Biso   1.000  C
  C64      1.0000 0.07610  0.11900  0.77700  Biso   1.000  C
  H25      1.0000 0.62170  0.38870  0.18990  Biso   1.000  H
  H26      1.0000 0.12170  0.38870  0.31010  Biso   1.000  H
  H27      1.0000 0.62170  0.11130  0.68990  Biso   1.000  H
  H28      1.0000 0.87830  0.88870  0.18990  Biso   1.000  H
  H29      1.0000 0.37830  0.61130  0.81010  Biso   1.000  H
  H30      1.0000 0.87830  0.61130  0.68990  Biso   1.000  H
  H31      1.0000 0.37830  0.88870  0.31010  Biso   1.000  H
  H32      1.0000 0.12170  0.11130  0.81010  Biso   1.000  H
  C65      1.0000 0.51390  0.42960  0.21670  Biso   1.000  C
  C66      1.0000 0.01390  0.42960  0.28330  Biso   1.000  C
  C67      1.0000 0.51390  0.07040  0.71670  Biso   1.000  C
  C68      1.0000 0.98610  0.92960  0.21670  Biso   1.000  C
  C69      1.0000 0.48610  0.57040  0.78330  Biso   1.000  C
  C70      1.0000 0.98610  0.57040  0.71670  Biso   1.000  C
  C71      1.0000 0.48610  0.92960  0.28330  Biso   1.000  C
  C72      1.0000 0.01390  0.07040  0.78330  Biso   1.000  C
  C73      1.0000 0.51200  0.49420  0.16170  Biso   1.000  C
  C74      1.0000 0.01200  0.49420  0.33830  Biso   1.000  C
  C75      1.0000 0.51200  0.00580  0.66170  Biso   1.000  C
  C76      1.0000 0.98800  0.99420  0.16170  Biso   1.000  C
  C77      1.0000 0.48800  0.50580  0.83830  Biso   1.000  C
  C78      1.0000 0.98800  0.50580  0.66170  Biso   1.000  C
  C79      1.0000 0.48800  0.99420  0.33830  Biso   1.000  C
  C80      1.0000 0.01200  0.00580  0.83830  Biso   1.000  C
  C81      1.0000 0.57240  0.51410  0.10860  Biso   1.000  C
  C82      1.0000 0.07240  0.51410  0.39140  Biso   1.000  C
  C83      1.0000 0.57240  0.98590  0.60860  Biso   1.000  C
  C84      1.0000 0.92760  0.01410  0.10860  Biso   1.000  C
  C85      1.0000 0.42760  0.48590  0.89140  Biso   1.000  C
  C86      1.0000 0.92760  0.48590  0.60860  Biso   1.000  C
  C87      1.0000 0.42760  0.01410  0.39140  Biso   1.000  C
  C88      1.0000 0.07240  0.98590  0.89140  Biso   1.000  C
  H33      1.0000 0.61890  0.48530  0.10620  Biso   1.000  H
  H34      1.0000 0.11890  0.48530  0.39380  Biso   1.000  H
  H35      1.0000 0.61890  0.01470  0.60620  Biso   1.000  H
  H36      1.0000 0.88110  0.98530  0.10620  Biso   1.000  H
  H37      1.0000 0.38110  0.51470  0.89380  Biso   1.000  H
  H38      1.0000 0.88110  0.51470  0.60620  Biso   1.000  H
  H39      1.0000 0.38110  0.98530  0.39380  Biso   1.000  H
  H40      1.0000 0.11890  0.01470  0.89380  Biso   1.000  H
  C89      1.0000 0.56440  0.57620  0.05950  Biso   1.000  C
  C90      1.0000 0.06440  0.57620  0.44050  Biso   1.000  C
  C91      1.0000 0.56440  0.92380  0.55950  Biso   1.000  C
  C92      1.0000 0.93560  0.07620  0.05950  Biso   1.000  C
  C93      1.0000 0.43560  0.42380  0.94050  Biso   1.000  C
  C94      1.0000 0.93560  0.42380  0.55950  Biso   1.000  C
  C95      1.0000 0.43560  0.07620  0.44050  Biso   1.000  C
  C96      1.0000 0.06440  0.92380  0.94050  Biso   1.000  C
  H41      1.0000 0.60590  0.59130  0.02350  Biso   1.000  H
  H42      1.0000 0.10590  0.59130  0.47650  Biso   1.000  H
  H43      1.0000 0.60590  0.90870  0.52350  Biso   1.000  H
  H44      1.0000 0.89410  0.09130  0.02350  Biso   1.000  H
  H45      1.0000 0.39410  0.40870  0.97650  Biso   1.000  H
  H46      1.0000 0.89410  0.40870  0.52350  Biso   1.000  H
  H47      1.0000 0.39410  0.09130  0.47650  Biso   1.000  H
  H48      1.0000 0.10590  0.90870  0.97650  Biso   1.000  H
  C97      1.0000 0.49610  0.61640  0.06250  Biso   1.000  C
  C98      1.0000 0.99610  0.61640  0.43750  Biso   1.000  C
  C99      1.0000 0.49610  0.88360  0.56250  Biso   1.000  C
  C100     1.0000 0.00390  0.11640  0.06250  Biso   1.000  C
  C101     1.0000 0.50390  0.38360  0.93750  Biso   1.000  C
  C102     1.0000 0.00390  0.38360  0.56250  Biso   1.000  C
  C103     1.0000 0.50390  0.11640  0.43750  Biso   1.000  C
  C104     1.0000 0.99610  0.88360  0.93750  Biso   1.000  C
  H49      1.0000 0.48900  0.65910  0.02830  Biso   1.000  H
  H50      1.0000 0.98900  0.65910  0.47170  Biso   1.000  H
  H51      1.0000 0.48900  0.84090  0.52830  Biso   1.000  H
  H52      1.0000 0.01100  0.15910  0.02830  Biso   1.000  H
  H53      1.0000 0.51100  0.34090  0.97170  Biso   1.000  H
  H54      1.0000 0.01100  0.34090  0.52830  Biso   1.000  H
  H55      1.0000 0.51100  0.15910  0.47170  Biso   1.000  H
  H56      1.0000 0.98900  0.84090  0.97170  Biso   1.000  H
  C105     1.0000 0.43800  0.59280  0.11660  Biso   1.000  C
  C106     1.0000 0.93800  0.59280  0.38340  Biso   1.000  C
  C107     1.0000 0.43800  0.90720  0.61660  Biso   1.000  C
  C108     1.0000 0.06200  0.09280  0.11660  Biso   1.000  C
  C109     1.0000 0.56200  0.40720  0.88340  Biso   1.000  C
  C110     1.0000 0.06200  0.40720  0.61660  Biso   1.000  C
  C111     1.0000 0.56200  0.09280  0.38340  Biso   1.000  C
  C112     1.0000 0.93800  0.90720  0.88340  Biso   1.000  C
  H57      1.0000 0.39050  0.62030  0.11830  Biso   1.000  H
  H58      1.0000 0.89050  0.62030  0.38170  Biso   1.000  H
  H59      1.0000 0.39050  0.87970  0.61830  Biso   1.000  H
  H60      1.0000 0.10950  0.12030  0.11830  Biso   1.000  H
  H61      1.0000 0.60950  0.37970  0.88170  Biso   1.000  H
  H62      1.0000 0.10950  0.37970  0.61830  Biso   1.000  H
  H63      1.0000 0.60950  0.12030  0.38170  Biso   1.000  H
  H64      1.0000 0.89050  0.87970  0.88170  Biso   1.000  H
  N41      1.0000 0.44450  0.53400  0.16620  Biso   1.000  N
  N42      1.0000 0.94450  0.53400  0.33380  Biso   1.000  N
  N43      1.0000 0.44450  0.96600  0.66620  Biso   1.000  N
  N44      1.0000 0.05550  0.03400  0.16620  Biso   1.000  N
  N45      1.0000 0.55550  0.46600  0.83380  Biso   1.000  N
  N46      1.0000 0.05550  0.46600  0.66620  Biso   1.000  N
  N47      1.0000 0.55550  0.03400  0.33380  Biso   1.000  N
  N48      1.0000 0.94450  0.96600  0.83380  Biso   1.000  N
  N49      1.0000 0.29120  0.58050  0.24180  Biso   1.000  N
  N50      1.0000 0.79120  0.58050  0.25820  Biso   1.000  N
  N51      1.0000 0.29120  0.91950  0.74180  Biso   1.000  N
  N52      1.0000 0.20880  0.08050  0.24180  Biso   1.000  N
  N53      1.0000 0.70880  0.41950  0.75820  Biso   1.000  N
  N54      1.0000 0.20880  0.41950  0.74180  Biso   1.000  N
  N55      1.0000 0.70880  0.08050  0.25820  Biso   1.000  N
  N56      1.0000 0.79120  0.91950  0.75820  Biso   1.000  N
  C113     1.0000 0.28810  0.64430  0.28600  Biso   1.000  C
  C114     1.0000 0.78810  0.64430  0.21400  Biso   1.000  C
  C115     1.0000 0.28810  0.85570  0.78600  Biso   1.000  C
  C116     1.0000 0.21190  0.14430  0.28600  Biso   1.000  C
  C117     1.0000 0.71190  0.35570  0.71400  Biso   1.000  C
  C118     1.0000 0.21190  0.35570  0.78600  Biso   1.000  C
  C119     1.0000 0.71190  0.14430  0.21400  Biso   1.000  C
  C120     1.0000 0.78810  0.85570  0.71400  Biso   1.000  C
  H65      1.0000 0.33180  0.65760  0.31970  Biso   1.000  H
  H66      1.0000 0.83180  0.65760  0.18030  Biso   1.000  H
  H67      1.0000 0.33180  0.84240  0.81970  Biso   1.000  H
  H68      1.0000 0.16820  0.15760  0.31970  Biso   1.000  H
  H69      1.0000 0.66820  0.34240  0.68030  Biso   1.000  H
  H70      1.0000 0.16820  0.34240  0.81970  Biso   1.000  H
  H71      1.0000 0.66820  0.15760  0.18030  Biso   1.000  H
  H72      1.0000 0.83180  0.84240  0.68030  Biso   1.000  H
  C121     1.0000 0.22450  0.69090  0.28440  Biso   1.000  C
  C122     1.0000 0.72450  0.69090  0.21560  Biso   1.000  C
  C123     1.0000 0.22450  0.80910  0.78440  Biso   1.000  C
  C124     1.0000 0.27550  0.19090  0.28440  Biso   1.000  C
  C125     1.0000 0.77550  0.30910  0.71560  Biso   1.000  C
  C126     1.0000 0.27550  0.30910  0.78440  Biso   1.000  C
  C127     1.0000 0.77550  0.19090  0.21560  Biso   1.000  C
  C128     1.0000 0.72450  0.80910  0.71560  Biso   1.000  C
  H73      1.0000 0.22470  0.73600  0.31540  Biso   1.000  H
  H74      1.0000 0.72470  0.73600  0.18460  Biso   1.000  H
  H75      1.0000 0.22470  0.76400  0.81540  Biso   1.000  H
  H76      1.0000 0.27530  0.23600  0.31540  Biso   1.000  H
  H77      1.0000 0.77530  0.26400  0.68460  Biso   1.000  H
  H78      1.0000 0.27530  0.26400  0.81540  Biso   1.000  H
  H79      1.0000 0.77530  0.23600  0.18460  Biso   1.000  H
  H80      1.0000 0.72470  0.76400  0.68460  Biso   1.000  H
  C129     1.0000 0.15980  0.67080  0.23670  Biso   1.000  C
  C130     1.0000 0.65980  0.67080  0.26330  Biso   1.000  C
  C131     1.0000 0.15980  0.82920  0.73670  Biso   1.000  C
  C132     1.0000 0.34020  0.17080  0.23670  Biso   1.000  C
  C133     1.0000 0.84020  0.32920  0.76330  Biso   1.000  C
  C134     1.0000 0.34020  0.32920  0.73670  Biso   1.000  C
  C135     1.0000 0.84020  0.17080  0.26330  Biso   1.000  C
  C136     1.0000 0.65980  0.82920  0.76330  Biso   1.000  C
  H81      1.0000 0.11410  0.70080  0.23650  Biso   1.000  H
  H82      1.0000 0.61410  0.70080  0.26350  Biso   1.000  H
  H83      1.0000 0.11410  0.79920  0.73650  Biso   1.000  H
  H84      1.0000 0.38590  0.20080  0.23650  Biso   1.000  H
  H85      1.0000 0.88590  0.29920  0.76350  Biso   1.000  H
  H86      1.0000 0.38590  0.29920  0.73650  Biso   1.000  H
  H87      1.0000 0.88590  0.20080  0.26350  Biso   1.000  H
  H88      1.0000 0.61410  0.79920  0.76350  Biso   1.000  H
  C137     1.0000 0.16310  0.60710  0.19000  Biso   1.000  C
  C138     1.0000 0.66310  0.60710  0.31000  Biso   1.000  C
  C139     1.0000 0.16310  0.89290  0.69000  Biso   1.000  C
  C140     1.0000 0.33690  0.10710  0.19000  Biso   1.000  C
  C141     1.0000 0.83690  0.39290  0.81000  Biso   1.000  C
  C142     1.0000 0.33690  0.39290  0.69000  Biso   1.000  C
  C143     1.0000 0.83690  0.10710  0.31000  Biso   1.000  C
  C144     1.0000 0.66310  0.89290  0.81000  Biso   1.000  C
  H89      1.0000 0.12000  0.59330  0.15560  Biso   1.000  H
  H90      1.0000 0.62000  0.59330  0.34440  Biso   1.000  H
  H91      1.0000 0.12000  0.90670  0.65560  Biso   1.000  H
  H92      1.0000 0.38000  0.09330  0.15560  Biso   1.000  H
  H93      1.0000 0.88000  0.40670  0.84440  Biso   1.000  H
  H94      1.0000 0.38000  0.40670  0.65560  Biso   1.000  H
  H95      1.0000 0.88000  0.09330  0.34440  Biso   1.000  H
  H96      1.0000 0.62000  0.90670  0.84440  Biso   1.000  H
  C145     1.0000 0.22810  0.56350  0.19300  Biso   1.000  C
  C146     1.0000 0.72810  0.56350  0.30700  Biso   1.000  C
  C147     1.0000 0.22810  0.93650  0.69300  Biso   1.000  C
  C148     1.0000 0.27190  0.06350  0.19300  Biso   1.000  C
  C149     1.0000 0.77190  0.43650  0.80700  Biso   1.000  C
  C150     1.0000 0.27190  0.43650  0.69300  Biso   1.000  C
  C151     1.0000 0.77190  0.06350  0.30700  Biso   1.000  C
  C152     1.0000 0.72810  0.93650  0.80700  Biso   1.000  C
  C153     1.0000 0.23680  0.49330  0.14760  Biso   1.000  C
  C154     1.0000 0.73680  0.49330  0.35240  Biso   1.000  C
  C155     1.0000 0.23680  0.00670  0.64760  Biso   1.000  C
  C156     1.0000 0.26320  0.99330  0.14760  Biso   1.000  C
  C157     1.0000 0.76320  0.50670  0.85240  Biso   1.000  C
  C158     1.0000 0.26320  0.50670  0.64760  Biso   1.000  C
  C159     1.0000 0.76320  0.99330  0.35240  Biso   1.000  C
  C160     1.0000 0.73680  0.00670  0.85240  Biso   1.000  C
  C161     1.0000 0.18590  0.46910  0.08580  Biso   1.000  C
  C162     1.0000 0.68590  0.46910  0.41420  Biso   1.000  C
  C163     1.0000 0.18590  0.03090  0.58580  Biso   1.000  C
  C164     1.0000 0.31410  0.96910  0.08580  Biso   1.000  C
  C165     1.0000 0.81410  0.53090  0.91420  Biso   1.000  C
  C166     1.0000 0.31410  0.53090  0.58580  Biso   1.000  C
  C167     1.0000 0.81410  0.96910  0.41420  Biso   1.000  C
  C168     1.0000 0.68590  0.03090  0.91420  Biso   1.000  C
  H97      1.0000 0.14290  0.49940  0.06950  Biso   1.000  H
  H98      1.0000 0.64290  0.49940  0.43050  Biso   1.000  H
  H99      1.0000 0.14290  0.00060  0.56950  Biso   1.000  H
  H100     1.0000 0.35710  0.99940  0.06950  Biso   1.000  H
  H101     1.0000 0.85710  0.50060  0.93050  Biso   1.000  H
  H102     1.0000 0.35710  0.50060  0.56950  Biso   1.000  H
  H103     1.0000 0.85710  0.99940  0.43050  Biso   1.000  H
  H104     1.0000 0.64290  0.00060  0.93050  Biso   1.000  H
  C169     1.0000 0.19720  0.40200  0.04820  Biso   1.000  C
  C170     1.0000 0.69720  0.40200  0.45180  Biso   1.000  C
  C171     1.0000 0.19720  0.09800  0.54820  Biso   1.000  C
  C172     1.0000 0.30280  0.90200  0.04820  Biso   1.000  C
  C173     1.0000 0.80280  0.59800  0.95180  Biso   1.000  C
  C174     1.0000 0.30280  0.59800  0.54820  Biso   1.000  C
  C175     1.0000 0.80280  0.90200  0.45180  Biso   1.000  C
  C176     1.0000 0.69720  0.09800  0.95180  Biso   1.000  C
  H105     1.0000 0.16220  0.38510  0.00590  Biso   1.000  H
  H106     1.0000 0.66220  0.38510  0.49410  Biso   1.000  H
  H107     1.0000 0.16220  0.11490  0.50590  Biso   1.000  H
  H108     1.0000 0.33780  0.88510  0.00590  Biso   1.000  H
  H109     1.0000 0.83780  0.61490  0.99410  Biso   1.000  H
  H110     1.0000 0.33780  0.61490  0.50590  Biso   1.000  H
  H111     1.0000 0.83780  0.88510  0.49410  Biso   1.000  H
  H112     1.0000 0.66220  0.11490  0.99410  Biso   1.000  H
  C177     1.0000 0.26040  0.35880  0.07210  Biso   1.000  C
  C178     1.0000 0.76040  0.35880  0.42790  Biso   1.000  C
  C179     1.0000 0.26040  0.14120  0.57210  Biso   1.000  C
  C180     1.0000 0.23960  0.85880  0.07210  Biso   1.000  C
  C181     1.0000 0.73960  0.64120  0.92790  Biso   1.000  C
  C182     1.0000 0.23960  0.64120  0.57210  Biso   1.000  C
  C183     1.0000 0.73960  0.85880  0.42790  Biso   1.000  C
  C184     1.0000 0.76040  0.14120  0.92790  Biso   1.000  C
  H113     1.0000 0.26880  0.31120  0.04800  Biso   1.000  H
  H114     1.0000 0.76880  0.31120  0.45200  Biso   1.000  H
  H115     1.0000 0.26880  0.18880  0.54800  Biso   1.000  H
  H116     1.0000 0.23120  0.81120  0.04800  Biso   1.000  H
  H117     1.0000 0.73120  0.68880  0.95200  Biso   1.000  H
  H118     1.0000 0.23120  0.68880  0.54800  Biso   1.000  H
  H119     1.0000 0.73120  0.81120  0.45200  Biso   1.000  H
  H120     1.0000 0.76880  0.18880  0.95200  Biso   1.000  H
  C185     1.0000 0.31100  0.38700  0.13220  Biso   1.000  C
  C186     1.0000 0.81100  0.38700  0.36780  Biso   1.000  C
  C187     1.0000 0.31100  0.11300  0.63220  Biso   1.000  C
  C188     1.0000 0.18900  0.88700  0.13220  Biso   1.000  C
  C189     1.0000 0.68900  0.61300  0.86780  Biso   1.000  C
  C190     1.0000 0.18900  0.61300  0.63220  Biso   1.000  C
  C191     1.0000 0.68900  0.88700  0.36780  Biso   1.000  C
  C192     1.0000 0.81100  0.11300  0.86780  Biso   1.000  C
  H121     1.0000 0.35510  0.35790  0.14800  Biso   1.000  H
  H122     1.0000 0.85510  0.35790  0.35200  Biso   1.000  H
  H123     1.0000 0.35510  0.14210  0.64800  Biso   1.000  H
  H124     1.0000 0.14490  0.85790  0.14800  Biso   1.000  H
  H125     1.0000 0.64490  0.64210  0.85200  Biso   1.000  H
  H126     1.0000 0.14490  0.64210  0.64800  Biso   1.000  H
  H127     1.0000 0.64490  0.85790  0.35200  Biso   1.000  H
  H128     1.0000 0.85510  0.14210  0.85200  Biso   1.000  H
  N57      1.0000 0.30090  0.45300  0.16890  Biso   1.000  N
  N58      1.0000 0.80090  0.45300  0.33110  Biso   1.000  N
  N59      1.0000 0.30090  0.04700  0.66890  Biso   1.000  N
  N60      1.0000 0.19910  0.95300  0.16890  Biso   1.000  N
  N61      1.0000 0.69910  0.54700  0.83110  Biso   1.000  N
  N62      1.0000 0.19910  0.54700  0.66890  Biso   1.000  N
  N63      1.0000 0.69910  0.95300  0.33110  Biso   1.000  N
  N64      1.0000 0.80090  0.04700  0.83110  Biso   1.000  N
