data_image0
_cell_length_a       8.6661
_cell_length_b       8.7732
_cell_length_c       8.8312
_cell_angle_alpha    90
_cell_angle_beta     114.924
_cell_angle_gamma    90

_symmetry_space_group_name_H-M    "P 1"
_symmetry_int_tables_number       1

loop_
  _symmetry_equiv_pos_as_xyz
  'x, y, z'

loop_
  _atom_site_label
  _atom_site_occupancy
  _atom_site_fract_x
  _atom_site_fract_y
  _atom_site_fract_z
  _atom_site_thermal_displace_type
  _atom_site_B_iso_or_equiv
  _atom_site_type_symbol
  Cu1      1.0000 0.64566  0.93235  0.31359  Biso   1.000  Cu
  Cu2      1.0000 0.64566  0.56765  0.81359  Biso   1.000  Cu
  Cu3      1.0000 0.35434  0.06765  0.68641  Biso   1.000  Cu
  Cu4      1.0000 0.35434  0.43235  0.18641  Biso   1.000  Cu
  N1       1.0000 0.52511  0.12161  0.23200  Biso   1.000  N
  N2       1.0000 0.52511  0.37839  0.73200  Biso   1.000  N
  N3       1.0000 0.47489  0.87839  0.76800  Biso   1.000  N
  N4       1.0000 0.47489  0.62161  0.26800  Biso   1.000  N
  C1       1.0000 0.45636  0.23760  0.20470  Biso   1.000  C
  C2       1.0000 0.45636  0.26240  0.70470  Biso   1.000  C
  C3       1.0000 0.54364  0.76240  0.79530  Biso   1.000  C
  C4       1.0000 0.54364  0.73760  0.29530  Biso   1.000  C
  N5       1.0000 0.11849  0.42339  0.20587  Biso   1.000  N
  N6       1.0000 0.11849  0.07661  0.70587  Biso   1.000  N
  N7       1.0000 0.88151  0.57661  0.79413  Biso   1.000  N
  N8       1.0000 0.88151  0.92339  0.29413  Biso   1.000  N
  C5       1.0000 0.08510  0.37430  0.33300  Biso   1.000  C
  C6       1.0000 0.08510  0.12570  0.83300  Biso   1.000  C
  C7       1.0000 0.91490  0.62570  0.66700  Biso   1.000  C
  C8       1.0000 0.91490  0.87430  0.16700  Biso   1.000  C
  H1       1.0000 0.17610  0.33680  0.43080  Biso   1.000  H
  H2       1.0000 0.17610  0.16320  0.93080  Biso   1.000  H
  H3       1.0000 0.82390  0.66320  0.56920  Biso   1.000  H
  H4       1.0000 0.82390  0.83680  0.06920  Biso   1.000  H
  C9       1.0000 0.92400  0.37640  0.32630  Biso   1.000  C
  C10      1.0000 0.92400  0.12360  0.82630  Biso   1.000  C
  C11      1.0000 0.07600  0.62360  0.67370  Biso   1.000  C
  C12      1.0000 0.07600  0.87640  0.17370  Biso   1.000  C
  H5       1.0000 0.90190  0.33780  0.41580  Biso   1.000  H
  H6       1.0000 0.90190  0.16220  0.91580  Biso   1.000  H
  H7       1.0000 0.09810  0.66220  0.58420  Biso   1.000  H
  H8       1.0000 0.09810  0.83780  0.08420  Biso   1.000  H
  C13      1.0000 0.79500  0.43670  0.18490  Biso   1.000  C
  C14      1.0000 0.79500  0.06330  0.68490  Biso   1.000  C
  C15      1.0000 0.20500  0.56330  0.81510  Biso   1.000  C
  C16      1.0000 0.20500  0.93670  0.31510  Biso   1.000  C
  H9       1.0000 0.68300  0.44220  0.17870  Biso   1.000  H
  H10      1.0000 0.68300  0.05780  0.67870  Biso   1.000  H
  H11      1.0000 0.31700  0.55780  0.82130  Biso   1.000  H
  H12      1.0000 0.31700  0.94220  0.32130  Biso   1.000  H
  N9       1.0000 0.82407  0.48719  0.05705  Biso   1.000  N
  N10      1.0000 0.82407  0.01281  0.55705  Biso   1.000  N
  N11      1.0000 0.17593  0.51281  0.94295  Biso   1.000  N
  N12      1.0000 0.17593  0.98719  0.44295  Biso   1.000  N
  C17      1.0000 0.01620  0.52483  0.92812  Biso   1.000  C
  C18      1.0000 0.01620  0.97517  0.42812  Biso   1.000  C
  C19      1.0000 0.98380  0.47517  0.07188  Biso   1.000  C
  C20      1.0000 0.98380  0.02483  0.57188  Biso   1.000  C
