data_image0
_cell_length_a       8.9031
_cell_length_b       10.912
_cell_length_c       14.4304
_cell_angle_alpha    103.615
_cell_angle_beta     102.272
_cell_angle_gamma    97.529

_symmetry_space_group_name_H-M    "P 1"
_symmetry_int_tables_number       1

loop_
  _symmetry_equiv_pos_as_xyz
  'x, y, z'

loop_
  _atom_site_label
  _atom_site_occupancy
  _atom_site_fract_x
  _atom_site_fract_y
  _atom_site_fract_z
  _atom_site_thermal_displace_type
  _atom_site_B_iso_or_equiv
  _atom_site_type_symbol
  Cu1      1.0000 0.35051  0.25821  0.37287  Biso   1.000  Cu
  Cu2      1.0000 0.64949  0.74179  0.62713  Biso   1.000  Cu
  Cu3      1.0000 0.16833  0.17350  0.12325  Biso   1.000  Cu
  Cu4      1.0000 0.83167  0.82650  0.87675  Biso   1.000  Cu
  S1       1.0000 0.96056  0.18900  0.36447  Biso   1.000  S
  S2       1.0000 0.03944  0.81100  0.63553  Biso   1.000  S
  S3       1.0000 0.56114  0.24229  0.15505  Biso   1.000  S
  S4       1.0000 0.43886  0.75771  0.84495  Biso   1.000  S
  O1       1.0000 0.06840  0.20810  0.30348  Biso   1.000  O
  O2       1.0000 0.93160  0.79190  0.69652  Biso   1.000  O
  O3       1.0000 0.49680  0.16300  0.05490  Biso   1.000  O
  O4       1.0000 0.50320  0.83700  0.94510  Biso   1.000  O
  O5       1.0000 0.45040  0.23290  0.21613  Biso   1.000  O
  O6       1.0000 0.54960  0.76710  0.78387  Biso   1.000  O
  O7       1.0000 0.62680  0.37390  0.16117  Biso   1.000  O
  O8       1.0000 0.37320  0.62610  0.83883  Biso   1.000  O
  O9       1.0000 0.02030  0.26900  0.46598  Biso   1.000  O
  O10      1.0000 0.97970  0.73100  0.53402  Biso   1.000  O
  O11      1.0000 0.90700  0.05510  0.35788  Biso   1.000  O
  O12      1.0000 0.09300  0.94490  0.64212  Biso   1.000  O
  N1       1.0000 0.36150  0.08710  0.38046  Biso   1.000  N
  N2       1.0000 0.63850  0.91290  0.61954  Biso   1.000  N
  N3       1.0000 0.36620  0.43970  0.38885  Biso   1.000  N
  N4       1.0000 0.63380  0.56030  0.61115  Biso   1.000  N
  N5       1.0000 0.15840  0.34530  0.11667  Biso   1.000  N
  N6       1.0000 0.84160  0.65470  0.88333  Biso   1.000  N
  N7       1.0000 0.14590  0.99410  0.10949  Biso   1.000  N
  N8       1.0000 0.85410  0.00590  0.89051  Biso   1.000  N
  C1       1.0000 0.79280  0.24770  0.31420  Biso   1.000  C
  C2       1.0000 0.20720  0.75230  0.68580  Biso   1.000  C
  H1       1.0000 0.71500  0.23730  0.35110  Biso   1.000  H
  H2       1.0000 0.28500  0.76270  0.64890  Biso   1.000  H
  H3       1.0000 0.82240  0.33860  0.32050  Biso   1.000  H
  H4       1.0000 0.17760  0.66140  0.67950  Biso   1.000  H
  C3       1.0000 0.72200  0.17670  0.20620  Biso   1.000  C
  C4       1.0000 0.27800  0.82330  0.79380  Biso   1.000  C
  H5       1.0000 0.68670  0.08660  0.20020  Biso   1.000  H
  H6       1.0000 0.31330  0.91340  0.79980  Biso   1.000  H
  H7       1.0000 0.80130  0.18300  0.16980  Biso   1.000  H
  H8       1.0000 0.19870  0.81700  0.83020  Biso   1.000  H
  C5       1.0000 0.47480  0.50620  0.35790  Biso   1.000  C
  C6       1.0000 0.52520  0.49380  0.64210  Biso   1.000  C
  H9       1.0000 0.54990  0.46470  0.33490  Biso   1.000  H
  H10      1.0000 0.45010  0.53530  0.66510  Biso   1.000  H
  C7       1.0000 0.47910  0.63310  0.35880  Biso   1.000  C
  C8       1.0000 0.52090  0.36690  0.64120  Biso   1.000  C
  H11      1.0000 0.55750  0.67610  0.33810  Biso   1.000  H
  H12      1.0000 0.44250  0.32390  0.66190  Biso   1.000  H
  C9       1.0000 0.36600  0.69720  0.39080  Biso   1.000  C
  C10      1.0000 0.63400  0.30280  0.60920  Biso   1.000  C
  C11      1.0000 0.25630  0.62880  0.42540  Biso   1.000  C
  C12      1.0000 0.74370  0.37120  0.57460  Biso   1.000  C
  H13      1.0000 0.18060  0.66810  0.44940  Biso   1.000  H
  H14      1.0000 0.81940  0.33190  0.55060  Biso   1.000  H
  C13      1.0000 0.26110  0.50180  0.42380  Biso   1.000  C
  C14      1.0000 0.73890  0.49820  0.57620  Biso   1.000  C
  H15      1.0000 0.18840  0.45790  0.44810  Biso   1.000  H
  H16      1.0000 0.81160  0.54210  0.55190  Biso   1.000  H
  C15      1.0000 0.36250  0.83140  0.38700  Biso   1.000  C
  C16      1.0000 0.63750  0.16860  0.61300  Biso   1.000  C
  C17      1.0000 0.29700  0.03800  0.44360  Biso   1.000  C
  C18      1.0000 0.70300  0.96200  0.55640  Biso   1.000  C
  H17      1.0000 0.25210  0.09110  0.48580  Biso   1.000  H
  H18      1.0000 0.74790  0.90890  0.51420  Biso   1.000  H
  C19      1.0000 0.42600  0.00740  0.32020  Biso   1.000  C
  C20      1.0000 0.57400  0.99260  0.67980  Biso   1.000  C
  H19      1.0000 0.46990  0.03880  0.27540  Biso   1.000  H
  H20      1.0000 0.53010  0.96120  0.72460  Biso   1.000  H
  C21      1.0000 0.42980  0.88180  0.32180  Biso   1.000  C
  C22      1.0000 0.57020  0.11820  0.67820  Biso   1.000  C
  H21      1.0000 0.47710  0.83110  0.27960  Biso   1.000  H
  H22      1.0000 0.52290  0.16890  0.72040  Biso   1.000  H
  C23      1.0000 0.29420  0.91300  0.44870  Biso   1.000  C
  C24      1.0000 0.70580  0.08700  0.55130  Biso   1.000  C
  H23      1.0000 0.24700  0.88330  0.49290  Biso   1.000  H
  H24      1.0000 0.75300  0.11670  0.50710  Biso   1.000  H
  C25      1.0000 0.23270  0.39910  0.05980  Biso   1.000  C
  C26      1.0000 0.76730  0.60090  0.94020  Biso   1.000  C
  H25      1.0000 0.28880  0.35030  0.02300  Biso   1.000  H
  H26      1.0000 0.71120  0.64970  0.97700  Biso   1.000  H
  C27      1.0000 0.07880  0.41700  0.16840  Biso   1.000  C
  C28      1.0000 0.92120  0.58300  0.83160  Biso   1.000  C
  H27      1.0000 0.02600  0.38090  0.20760  Biso   1.000  H
  H28      1.0000 0.97400  0.61910  0.79240  Biso   1.000  H
  C29      1.0000 0.23920  0.92590  0.06520  Biso   1.000  C
  C30      1.0000 0.76080  0.07410  0.93480  Biso   1.000  C
  H29      1.0000 0.30620  0.96650  0.03550  Biso   1.000  H
  H30      1.0000 0.69380  0.03350  0.96450  Biso   1.000  H
  C31      1.0000 0.04530  0.93070  0.14790  Biso   1.000  C
  C32      1.0000 0.95470  0.06930  0.85210  Biso   1.000  C
  H31      1.0000 0.97560  0.97430  0.17560  Biso   1.000  H
  H32      1.0000 0.02440  0.02570  0.82440  Biso   1.000  H
  C33      1.0000 0.14740  0.59930  0.10840  Biso   1.000  C
  C34      1.0000 0.85260  0.40070  0.89160  Biso   1.000  C
  C35      1.0000 0.14150  0.73370  0.10550  Biso   1.000  C
  C36      1.0000 0.85850  0.26630  0.89450  Biso   1.000  C
  C37      1.0000 0.24010  0.79800  0.06190  Biso   1.000  C
  C38      1.0000 0.75990  0.20200  0.93810  Biso   1.000  C
  H33      1.0000 0.30660  0.75490  0.03040  Biso   1.000  H
  H34      1.0000 0.69340  0.24510  0.96960  Biso   1.000  H
  C39      1.0000 0.04130  0.80320  0.14780  Biso   1.000  C
  C40      1.0000 0.95870  0.19680  0.85220  Biso   1.000  C
  H35      1.0000 0.97120  0.76390  0.17630  Biso   1.000  H
  H36      1.0000 0.02880  0.23610  0.82370  Biso   1.000  H
  C41      1.0000 0.07030  0.54240  0.16720  Biso   1.000  C
  C42      1.0000 0.92970  0.45760  0.83280  Biso   1.000  C
  H37      1.0000 0.01350  0.58870  0.20520  Biso   1.000  H
  H38      1.0000 0.98650  0.41130  0.79480  Biso   1.000  H
  C43      1.0000 0.22970  0.52310  0.05360  Biso   1.000  C
  C44      1.0000 0.77030  0.47690  0.94640  Biso   1.000  C
  H39      1.0000 0.28250  0.55590  0.01300  Biso   1.000  H
  H40      1.0000 0.71750  0.44410  0.98700  Biso   1.000  H
  O13      1.0000 0.69660  0.63590  0.17930  Biso   1.000  O
  O14      1.0000 0.30340  0.36410  0.82070  Biso   1.000  O
  O15      1.0000 0.12970  0.20940  0.64446  Biso   1.000  O
  O16      1.0000 0.87030  0.79060  0.35554  Biso   1.000  O
  O17      1.0000 0.63410  0.86120  0.14300  Biso   1.000  O
  O18      1.0000 0.36590  0.13880  0.85700  Biso   1.000  O
  H41      1.0000 0.67290  0.55760  0.18070  Biso   1.000  H
  H42      1.0000 0.32710  0.44240  0.81930  Biso   1.000  H
  H43      1.0000 0.76230  0.63670  0.14360  Biso   1.000  H
  H44      1.0000 0.23770  0.36330  0.85640  Biso   1.000  H
  H45      1.0000 0.12510  0.12970  0.64370  Biso   1.000  H
  H46      1.0000 0.87490  0.87030  0.35630  Biso   1.000  H
  H47      1.0000 0.08760  0.20860  0.58450  Biso   1.000  H
  H48      1.0000 0.91240  0.79140  0.41550  Biso   1.000  H
  H49      1.0000 0.55620  0.85580  0.16910  Biso   1.000  H
  H50      1.0000 0.44380  0.14420  0.83090  Biso   1.000  H
  H51      1.0000 0.59430  0.85650  0.08190  Biso   1.000  H
  H52      1.0000 0.40570  0.14350  0.91810  Biso   1.000  H
