data_image0
_cell_length_a       11.789
_cell_length_b       11.789
_cell_length_c       42.57
_cell_angle_alpha    90
_cell_angle_beta     90
_cell_angle_gamma    90

_symmetry_space_group_name_H-M    "P 1"
_symmetry_int_tables_number       1

loop_
  _symmetry_equiv_pos_as_xyz
  'x, y, z'

loop_
  _atom_site_label
  _atom_site_occupancy
  _atom_site_fract_x
  _atom_site_fract_y
  _atom_site_fract_z
  _atom_site_thermal_displace_type
  _atom_site_B_iso_or_equiv
  _atom_site_type_symbol
  Cu1      1.0000 0.50000  0.00000  0.16426  Biso   1.000  Cu
  Cu2      1.0000 0.00000  0.50000  0.83574  Biso   1.000  Cu
  Cu3      1.0000 0.00000  0.00000  0.58574  Biso   1.000  Cu
  Cu4      1.0000 0.50000  0.50000  0.91426  Biso   1.000  Cu
  Cu5      1.0000 0.00000  0.50000  0.66426  Biso   1.000  Cu
  Cu6      1.0000 0.50000  0.00000  0.33574  Biso   1.000  Cu
  Cu7      1.0000 0.50000  0.50000  0.08574  Biso   1.000  Cu
  Cu8      1.0000 0.00000  0.00000  0.41426  Biso   1.000  Cu
  Cl1      1.0000 0.83050  0.15680  0.11168  Biso   1.000  Cl
  Cl2      1.0000 0.15680  0.16950  0.88832  Biso   1.000  Cl
  Cl3      1.0000 0.16950  0.84320  0.11168  Biso   1.000  Cl
  Cl4      1.0000 0.84320  0.83050  0.88832  Biso   1.000  Cl
  Cl5      1.0000 0.66950  0.15680  0.63832  Biso   1.000  Cl
  Cl6      1.0000 0.34320  0.16950  0.86168  Biso   1.000  Cl
  Cl7      1.0000 0.33050  0.84320  0.63832  Biso   1.000  Cl
  Cl8      1.0000 0.65680  0.83050  0.86168  Biso   1.000  Cl
  Cl9      1.0000 0.33050  0.65680  0.61168  Biso   1.000  Cl
  Cl10     1.0000 0.65680  0.66950  0.38832  Biso   1.000  Cl
  Cl11     1.0000 0.66950  0.34320  0.61168  Biso   1.000  Cl
  Cl12     1.0000 0.34320  0.33050  0.38832  Biso   1.000  Cl
  Cl13     1.0000 0.16950  0.65680  0.13832  Biso   1.000  Cl
  Cl14     1.0000 0.84320  0.66950  0.36168  Biso   1.000  Cl
  Cl15     1.0000 0.83050  0.34320  0.13832  Biso   1.000  Cl
  Cl16     1.0000 0.15680  0.33050  0.36168  Biso   1.000  Cl
  Cl17     1.0000 0.83810  0.20130  0.04650  Biso   1.000  Cl
  Cl18     1.0000 0.20130  0.16190  0.95350  Biso   1.000  Cl
  Cl19     1.0000 0.16190  0.79870  0.04650  Biso   1.000  Cl
  Cl20     1.0000 0.79870  0.83810  0.95350  Biso   1.000  Cl
  Cl21     1.0000 0.66190  0.20130  0.70350  Biso   1.000  Cl
  Cl22     1.0000 0.29870  0.16190  0.79650  Biso   1.000  Cl
  Cl23     1.0000 0.33810  0.79870  0.70350  Biso   1.000  Cl
  Cl24     1.0000 0.70130  0.83810  0.79650  Biso   1.000  Cl
  Cl25     1.0000 0.33810  0.70130  0.54650  Biso   1.000  Cl
  Cl26     1.0000 0.70130  0.66190  0.45350  Biso   1.000  Cl
  Cl27     1.0000 0.66190  0.29870  0.54650  Biso   1.000  Cl
  Cl28     1.0000 0.29870  0.33810  0.45350  Biso   1.000  Cl
  Cl29     1.0000 0.16190  0.70130  0.20350  Biso   1.000  Cl
  Cl30     1.0000 0.79870  0.66190  0.29650  Biso   1.000  Cl
  Cl31     1.0000 0.83810  0.29870  0.20350  Biso   1.000  Cl
  Cl32     1.0000 0.20130  0.33810  0.29650  Biso   1.000  Cl
  P1       1.0000 0.50000  0.50000  0.22851  Biso   1.000  P
  P2       1.0000 0.50000  0.50000  0.77149  Biso   1.000  P
  P3       1.0000 0.00000  0.50000  0.52149  Biso   1.000  P
  P4       1.0000 0.00000  0.50000  0.97851  Biso   1.000  P
  P5       1.0000 0.00000  0.00000  0.72851  Biso   1.000  P
  P6       1.0000 0.00000  0.00000  0.27149  Biso   1.000  P
  P7       1.0000 0.50000  0.00000  0.02149  Biso   1.000  P
  P8       1.0000 0.50000  0.00000  0.47851  Biso   1.000  P
  F1       1.0000 0.54810  0.37390  0.22802  Biso   1.000  F
  F2       1.0000 0.37390  0.45190  0.77198  Biso   1.000  F
  F3       1.0000 0.45190  0.62610  0.22802  Biso   1.000  F
  F4       1.0000 0.62610  0.54810  0.77198  Biso   1.000  F
  F5       1.0000 0.95190  0.37390  0.52198  Biso   1.000  F
  F6       1.0000 0.12610  0.45190  0.97802  Biso   1.000  F
  F7       1.0000 0.04810  0.62610  0.52198  Biso   1.000  F
  F8       1.0000 0.87390  0.54810  0.97802  Biso   1.000  F
  F9       1.0000 0.04810  0.87390  0.72802  Biso   1.000  F
  F10      1.0000 0.87390  0.95190  0.27198  Biso   1.000  F
  F11      1.0000 0.95190  0.12610  0.72802  Biso   1.000  F
  F12      1.0000 0.12610  0.04810  0.27198  Biso   1.000  F
  F13      1.0000 0.45190  0.87390  0.02198  Biso   1.000  F
  F14      1.0000 0.62610  0.95190  0.47802  Biso   1.000  F
  F15      1.0000 0.54810  0.12610  0.02198  Biso   1.000  F
  F16      1.0000 0.37390  0.04810  0.47802  Biso   1.000  F
  F17      1.0000 0.41200  0.46630  0.20212  Biso   1.000  F
  F18      1.0000 0.46630  0.58800  0.79788  Biso   1.000  F
  F19      1.0000 0.58800  0.53370  0.20212  Biso   1.000  F
  F20      1.0000 0.53370  0.41200  0.79788  Biso   1.000  F
  F21      1.0000 0.08800  0.46630  0.54788  Biso   1.000  F
  F22      1.0000 0.03370  0.58800  0.95212  Biso   1.000  F
  F23      1.0000 0.91200  0.53370  0.54788  Biso   1.000  F
  F24      1.0000 0.96630  0.41200  0.95212  Biso   1.000  F
  F25      1.0000 0.91200  0.96630  0.70212  Biso   1.000  F
  F26      1.0000 0.96630  0.08800  0.29788  Biso   1.000  F
  F27      1.0000 0.08800  0.03370  0.70212  Biso   1.000  F
  F28      1.0000 0.03370  0.91200  0.29788  Biso   1.000  F
  F29      1.0000 0.58800  0.96630  0.04788  Biso   1.000  F
  F30      1.0000 0.53370  0.08800  0.45212  Biso   1.000  F
  F31      1.0000 0.41200  0.03370  0.04788  Biso   1.000  F
  F32      1.0000 0.46630  0.91200  0.45212  Biso   1.000  F
  F33      1.0000 0.41120  0.46710  0.25461  Biso   1.000  F
  F34      1.0000 0.46710  0.58880  0.74539  Biso   1.000  F
  F35      1.0000 0.58880  0.53290  0.25461  Biso   1.000  F
  F36      1.0000 0.53290  0.41120  0.74539  Biso   1.000  F
  F37      1.0000 0.08880  0.46710  0.49539  Biso   1.000  F
  F38      1.0000 0.03290  0.58880  0.00461  Biso   1.000  F
  F39      1.0000 0.91120  0.53290  0.49539  Biso   1.000  F
  F40      1.0000 0.96710  0.41120  0.00461  Biso   1.000  F
  F41      1.0000 0.91120  0.96710  0.75461  Biso   1.000  F
  F42      1.0000 0.96710  0.08880  0.24539  Biso   1.000  F
  F43      1.0000 0.08880  0.03290  0.75461  Biso   1.000  F
  F44      1.0000 0.03290  0.91120  0.24539  Biso   1.000  F
  F45      1.0000 0.58880  0.96710  0.99539  Biso   1.000  F
  F46      1.0000 0.53290  0.08880  0.50461  Biso   1.000  F
  F47      1.0000 0.41120  0.03290  0.99539  Biso   1.000  F
  F48      1.0000 0.46710  0.91120  0.50461  Biso   1.000  F
  O1       1.0000 0.24290  0.35300  0.14894  Biso   1.000  O
  O2       1.0000 0.35300  0.75710  0.85106  Biso   1.000  O
  O3       1.0000 0.75710  0.64700  0.14894  Biso   1.000  O
  O4       1.0000 0.64700  0.24290  0.85106  Biso   1.000  O
  O5       1.0000 0.25710  0.35300  0.60106  Biso   1.000  O
  O6       1.0000 0.14700  0.75710  0.89894  Biso   1.000  O
  O7       1.0000 0.74290  0.64700  0.60106  Biso   1.000  O
  O8       1.0000 0.85300  0.24290  0.89894  Biso   1.000  O
  O9       1.0000 0.74290  0.85300  0.64894  Biso   1.000  O
  O10      1.0000 0.85300  0.25710  0.35106  Biso   1.000  O
  O11      1.0000 0.25710  0.14700  0.64894  Biso   1.000  O
  O12      1.0000 0.14700  0.74290  0.35106  Biso   1.000  O
  O13      1.0000 0.75710  0.85300  0.10106  Biso   1.000  O
  O14      1.0000 0.64700  0.25710  0.39894  Biso   1.000  O
  O15      1.0000 0.24290  0.14700  0.10106  Biso   1.000  O
  O16      1.0000 0.35300  0.74290  0.39894  Biso   1.000  O
  N1       1.0000 0.38510  0.11050  0.16721  Biso   1.000  N
  N2       1.0000 0.11050  0.61490  0.83279  Biso   1.000  N
  N3       1.0000 0.61490  0.88950  0.16721  Biso   1.000  N
  N4       1.0000 0.88950  0.38510  0.83279  Biso   1.000  N
  N5       1.0000 0.11490  0.11050  0.58279  Biso   1.000  N
  N6       1.0000 0.38950  0.61490  0.91721  Biso   1.000  N
  N7       1.0000 0.88510  0.88950  0.58279  Biso   1.000  N
  N8       1.0000 0.61050  0.38510  0.91721  Biso   1.000  N
  N9       1.0000 0.88510  0.61050  0.66721  Biso   1.000  N
  N10      1.0000 0.61050  0.11490  0.33279  Biso   1.000  N
  N11      1.0000 0.11490  0.38950  0.66721  Biso   1.000  N
  N12      1.0000 0.38950  0.88510  0.33279  Biso   1.000  N
  N13      1.0000 0.61490  0.61050  0.08279  Biso   1.000  N
  N14      1.0000 0.88950  0.11490  0.41721  Biso   1.000  N
  N15      1.0000 0.38510  0.38950  0.08279  Biso   1.000  N
  N16      1.0000 0.11050  0.88510  0.41721  Biso   1.000  N
  N17      1.0000 0.27570  0.25990  0.16085  Biso   1.000  N
  N18      1.0000 0.25990  0.72430  0.83915  Biso   1.000  N
  N19      1.0000 0.72430  0.74010  0.16085  Biso   1.000  N
  N20      1.0000 0.74010  0.27570  0.83915  Biso   1.000  N
  N21      1.0000 0.22430  0.25990  0.58915  Biso   1.000  N
  N22      1.0000 0.24010  0.72430  0.91085  Biso   1.000  N
  N23      1.0000 0.77570  0.74010  0.58915  Biso   1.000  N
  N24      1.0000 0.75990  0.27570  0.91085  Biso   1.000  N
  N25      1.0000 0.77570  0.75990  0.66085  Biso   1.000  N
  N26      1.0000 0.75990  0.22430  0.33915  Biso   1.000  N
  N27      1.0000 0.22430  0.24010  0.66085  Biso   1.000  N
  N28      1.0000 0.24010  0.77570  0.33915  Biso   1.000  N
  N29      1.0000 0.72430  0.75990  0.08915  Biso   1.000  N
  N30      1.0000 0.74010  0.22430  0.41085  Biso   1.000  N
  N31      1.0000 0.27570  0.24010  0.08915  Biso   1.000  N
  N32      1.0000 0.25990  0.77570  0.41085  Biso   1.000  N
  C1       1.0000 0.44600  0.25000  0.12500  Biso   1.000  C
  C2       1.0000 0.25000  0.55400  0.87500  Biso   1.000  C
  C3       1.0000 0.55400  0.75000  0.12500  Biso   1.000  C
  C4       1.0000 0.75000  0.44600  0.87500  Biso   1.000  C
  C5       1.0000 0.05400  0.25000  0.62500  Biso   1.000  C
  C6       1.0000 0.94600  0.75000  0.62500  Biso   1.000  C
  C7       1.0000 0.75000  0.05400  0.37500  Biso   1.000  C
  C8       1.0000 0.25000  0.94600  0.37500  Biso   1.000  C
  C9       1.0000 0.51850  0.33980  0.14048  Biso   1.000  C
  C10      1.0000 0.33980  0.48150  0.85952  Biso   1.000  C
  C11      1.0000 0.48150  0.66020  0.14048  Biso   1.000  C
  C12      1.0000 0.66020  0.51850  0.85952  Biso   1.000  C
  C13      1.0000 0.98150  0.33980  0.60952  Biso   1.000  C
  C14      1.0000 0.16020  0.48150  0.89048  Biso   1.000  C
  C15      1.0000 0.01850  0.66020  0.60952  Biso   1.000  C
  C16      1.0000 0.83980  0.51850  0.89048  Biso   1.000  C
  C17      1.0000 0.01850  0.83980  0.64048  Biso   1.000  C
  C18      1.0000 0.83980  0.98150  0.35952  Biso   1.000  C
  C19      1.0000 0.98150  0.16020  0.64048  Biso   1.000  C
  C20      1.0000 0.16020  0.01850  0.35952  Biso   1.000  C
  C21      1.0000 0.48150  0.83980  0.10952  Biso   1.000  C
  C22      1.0000 0.66020  0.98150  0.39048  Biso   1.000  C
  C23      1.0000 0.51850  0.16020  0.10952  Biso   1.000  C
  C24      1.0000 0.33980  0.01850  0.39048  Biso   1.000  C
  C25      1.0000 0.37010  0.19840  0.15068  Biso   1.000  C
  C26      1.0000 0.19840  0.62990  0.84932  Biso   1.000  C
  C27      1.0000 0.62990  0.80160  0.15068  Biso   1.000  C
  C28      1.0000 0.80160  0.37010  0.84932  Biso   1.000  C
  C29      1.0000 0.12990  0.19840  0.59932  Biso   1.000  C
  C30      1.0000 0.30160  0.62990  0.90068  Biso   1.000  C
  C31      1.0000 0.87010  0.80160  0.59932  Biso   1.000  C
  C32      1.0000 0.69840  0.37010  0.90068  Biso   1.000  C
  C33      1.0000 0.87010  0.69840  0.65068  Biso   1.000  C
  C34      1.0000 0.69840  0.12990  0.34932  Biso   1.000  C
  C35      1.0000 0.12990  0.30160  0.65068  Biso   1.000  C
  C36      1.0000 0.30160  0.87010  0.34932  Biso   1.000  C
  C37      1.0000 0.62990  0.69840  0.09932  Biso   1.000  C
  C38      1.0000 0.80160  0.12990  0.40068  Biso   1.000  C
  C39      1.0000 0.37010  0.30160  0.09932  Biso   1.000  C
  C40      1.0000 0.19840  0.87010  0.40068  Biso   1.000  C
  C41      1.0000 0.30370  0.10410  0.19453  Biso   1.000  C
  C42      1.0000 0.10410  0.69630  0.80547  Biso   1.000  C
  C43      1.0000 0.69630  0.89590  0.19453  Biso   1.000  C
  C44      1.0000 0.89590  0.30370  0.80547  Biso   1.000  C
  C45      1.0000 0.19630  0.10410  0.55547  Biso   1.000  C
  C46      1.0000 0.39590  0.69630  0.94453  Biso   1.000  C
  C47      1.0000 0.80370  0.89590  0.55547  Biso   1.000  C
  C48      1.0000 0.60410  0.30370  0.94453  Biso   1.000  C
  C49      1.0000 0.80370  0.60410  0.69453  Biso   1.000  C
  C50      1.0000 0.60410  0.19630  0.30547  Biso   1.000  C
  C51      1.0000 0.19630  0.39590  0.69453  Biso   1.000  C
  C52      1.0000 0.39590  0.80370  0.30547  Biso   1.000  C
  C53      1.0000 0.69630  0.60410  0.05547  Biso   1.000  C
  C54      1.0000 0.89590  0.19630  0.44453  Biso   1.000  C
  C55      1.0000 0.30370  0.39590  0.05547  Biso   1.000  C
  C56      1.0000 0.10410  0.80370  0.44453  Biso   1.000  C
  C57      1.0000 0.21050  0.19480  0.18528  Biso   1.000  C
  C58      1.0000 0.19480  0.78950  0.81472  Biso   1.000  C
  C59      1.0000 0.78950  0.80520  0.18528  Biso   1.000  C
  C60      1.0000 0.80520  0.21050  0.81472  Biso   1.000  C
  C61      1.0000 0.28950  0.19480  0.56472  Biso   1.000  C
  C62      1.0000 0.30520  0.78950  0.93528  Biso   1.000  C
  C63      1.0000 0.71050  0.80520  0.56472  Biso   1.000  C
  C64      1.0000 0.69480  0.21050  0.93528  Biso   1.000  C
  C65      1.0000 0.71050  0.69480  0.68528  Biso   1.000  C
  C66      1.0000 0.69480  0.28950  0.31472  Biso   1.000  C
  C67      1.0000 0.28950  0.30520  0.68528  Biso   1.000  C
  C68      1.0000 0.30520  0.71050  0.31472  Biso   1.000  C
  C69      1.0000 0.78950  0.69480  0.06472  Biso   1.000  C
  C70      1.0000 0.80520  0.28950  0.43528  Biso   1.000  C
  C71      1.0000 0.21050  0.30520  0.06472  Biso   1.000  C
  C72      1.0000 0.19480  0.71050  0.43528  Biso   1.000  C
  C73      1.0000 0.36750  0.13590  0.22261  Biso   1.000  C
  C74      1.0000 0.13590  0.63250  0.77739  Biso   1.000  C
  C75      1.0000 0.63250  0.86410  0.22261  Biso   1.000  C
  C76      1.0000 0.86410  0.36750  0.77739  Biso   1.000  C
  C77      1.0000 0.13250  0.13590  0.52739  Biso   1.000  C
  C78      1.0000 0.36410  0.63250  0.97261  Biso   1.000  C
  C79      1.0000 0.86750  0.86410  0.52739  Biso   1.000  C
  C80      1.0000 0.63590  0.36750  0.97261  Biso   1.000  C
  C81      1.0000 0.86750  0.63590  0.72261  Biso   1.000  C
  C82      1.0000 0.63590  0.13250  0.27739  Biso   1.000  C
  C83      1.0000 0.13250  0.36410  0.72261  Biso   1.000  C
  C84      1.0000 0.36410  0.86750  0.27739  Biso   1.000  C
  C85      1.0000 0.63250  0.63590  0.02739  Biso   1.000  C
  C86      1.0000 0.86410  0.13250  0.47261  Biso   1.000  C
  C87      1.0000 0.36750  0.36410  0.02739  Biso   1.000  C
  C88      1.0000 0.13590  0.86750  0.47261  Biso   1.000  C
  C89      1.0000 0.26040  0.98510  0.19592  Biso   1.000  C
  C90      1.0000 0.98510  0.73960  0.80408  Biso   1.000  C
  C91      1.0000 0.73960  0.01490  0.19592  Biso   1.000  C
  C92      1.0000 0.01490  0.26040  0.80408  Biso   1.000  C
  C93      1.0000 0.23960  0.98510  0.55408  Biso   1.000  C
  C94      1.0000 0.51490  0.73960  0.94592  Biso   1.000  C
  C95      1.0000 0.76040  0.01490  0.55408  Biso   1.000  C
  C96      1.0000 0.48510  0.26040  0.94592  Biso   1.000  C
  C97      1.0000 0.76040  0.48510  0.69592  Biso   1.000  C
  C98      1.0000 0.48510  0.23960  0.30408  Biso   1.000  C
  C99      1.0000 0.23960  0.51490  0.69592  Biso   1.000  C
  C100     1.0000 0.51490  0.76040  0.30408  Biso   1.000  C
  C101     1.0000 0.73960  0.48510  0.05408  Biso   1.000  C
  C102     1.0000 0.01490  0.23960  0.44592  Biso   1.000  C
  C103     1.0000 0.26040  0.51490  0.05408  Biso   1.000  C
  C104     1.0000 0.98510  0.76040  0.44592  Biso   1.000  C
  C105     1.0000 0.17110  0.27450  0.20950  Biso   1.000  C
  C106     1.0000 0.27450  0.82890  0.79050  Biso   1.000  C
  C107     1.0000 0.82890  0.72550  0.20950  Biso   1.000  C
  C108     1.0000 0.72550  0.17110  0.79050  Biso   1.000  C
  C109     1.0000 0.32890  0.27450  0.54050  Biso   1.000  C
  C110     1.0000 0.22550  0.82890  0.95950  Biso   1.000  C
  C111     1.0000 0.67110  0.72550  0.54050  Biso   1.000  C
  C112     1.0000 0.77450  0.17110  0.95950  Biso   1.000  C
  C113     1.0000 0.67110  0.77450  0.70950  Biso   1.000  C
  C114     1.0000 0.77450  0.32890  0.29050  Biso   1.000  C
  C115     1.0000 0.32890  0.22550  0.70950  Biso   1.000  C
  C116     1.0000 0.22550  0.67110  0.29050  Biso   1.000  C
  C117     1.0000 0.82890  0.77450  0.04050  Biso   1.000  C
  C118     1.0000 0.72550  0.32890  0.45950  Biso   1.000  C
  C119     1.0000 0.17110  0.22550  0.04050  Biso   1.000  C
  C120     1.0000 0.27450  0.67110  0.45950  Biso   1.000  C
  C121     1.0000 0.10810  0.14430  0.16790  Biso   1.000  C
  C122     1.0000 0.14430  0.89190  0.83210  Biso   1.000  C
  C123     1.0000 0.89190  0.85570  0.16790  Biso   1.000  C
  C124     1.0000 0.85570  0.10810  0.83210  Biso   1.000  C
  C125     1.0000 0.39190  0.14430  0.58210  Biso   1.000  C
  C126     1.0000 0.35570  0.89190  0.91790  Biso   1.000  C
  C127     1.0000 0.60810  0.85570  0.58210  Biso   1.000  C
  C128     1.0000 0.64430  0.10810  0.91790  Biso   1.000  C
  C129     1.0000 0.60810  0.64430  0.66790  Biso   1.000  C
  C130     1.0000 0.64430  0.39190  0.33210  Biso   1.000  C
  C131     1.0000 0.39190  0.35570  0.66790  Biso   1.000  C
  C132     1.0000 0.35570  0.60810  0.33210  Biso   1.000  C
  C133     1.0000 0.89190  0.64430  0.08210  Biso   1.000  C
  C134     1.0000 0.85570  0.39190  0.41790  Biso   1.000  C
  C135     1.0000 0.10810  0.35570  0.08210  Biso   1.000  C
  C136     1.0000 0.14430  0.60810  0.41790  Biso   1.000  C
  C137     1.0000 0.81980  0.08910  0.07260  Biso   1.000  C
  C138     1.0000 0.08910  0.18020  0.92740  Biso   1.000  C
  C139     1.0000 0.18020  0.91090  0.07260  Biso   1.000  C
  C140     1.0000 0.91090  0.81980  0.92740  Biso   1.000  C
  C141     1.0000 0.68020  0.08910  0.67740  Biso   1.000  C
  C142     1.0000 0.41090  0.18020  0.82260  Biso   1.000  C
  C143     1.0000 0.31980  0.91090  0.67740  Biso   1.000  C
  C144     1.0000 0.58910  0.81980  0.82260  Biso   1.000  C
  C145     1.0000 0.31980  0.58910  0.57260  Biso   1.000  C
  C146     1.0000 0.58910  0.68020  0.42740  Biso   1.000  C
  C147     1.0000 0.68020  0.41090  0.57260  Biso   1.000  C
  C148     1.0000 0.41090  0.31980  0.42740  Biso   1.000  C
  C149     1.0000 0.18020  0.58910  0.17740  Biso   1.000  C
  C150     1.0000 0.91090  0.68020  0.32260  Biso   1.000  C
  C151     1.0000 0.81980  0.41090  0.17740  Biso   1.000  C
  C152     1.0000 0.08910  0.31980  0.32260  Biso   1.000  C
  H1       1.0000 0.48090  0.41110  0.13980  Biso   1.000  H
  H2       1.0000 0.41110  0.51910  0.86020  Biso   1.000  H
  H3       1.0000 0.51910  0.58890  0.13980  Biso   1.000  H
  H4       1.0000 0.58890  0.48090  0.86020  Biso   1.000  H
  H5       1.0000 0.01910  0.41110  0.61020  Biso   1.000  H
  H6       1.0000 0.08890  0.51910  0.88980  Biso   1.000  H
  H7       1.0000 0.98090  0.58890  0.61020  Biso   1.000  H
  H8       1.0000 0.91110  0.48090  0.88980  Biso   1.000  H
  H9       1.0000 0.98090  0.91110  0.63980  Biso   1.000  H
  H10      1.0000 0.91110  0.01910  0.36020  Biso   1.000  H
  H11      1.0000 0.01910  0.08890  0.63980  Biso   1.000  H
  H12      1.0000 0.08890  0.98090  0.36020  Biso   1.000  H
  H13      1.0000 0.51910  0.91110  0.11020  Biso   1.000  H
  H14      1.0000 0.58890  0.01910  0.38980  Biso   1.000  H
  H15      1.0000 0.48090  0.08890  0.11020  Biso   1.000  H
  H16      1.0000 0.41110  0.98090  0.38980  Biso   1.000  H
  H17      1.0000 0.58850  0.34500  0.12950  Biso   1.000  H
  H18      1.0000 0.34500  0.41150  0.87050  Biso   1.000  H
  H19      1.0000 0.41150  0.65500  0.12950  Biso   1.000  H
  H20      1.0000 0.65500  0.58850  0.87050  Biso   1.000  H
  H21      1.0000 0.91150  0.34500  0.62050  Biso   1.000  H
  H22      1.0000 0.15500  0.41150  0.87950  Biso   1.000  H
  H23      1.0000 0.08850  0.65500  0.62050  Biso   1.000  H
  H24      1.0000 0.84500  0.58850  0.87950  Biso   1.000  H
  H25      1.0000 0.08850  0.84500  0.62950  Biso   1.000  H
  H26      1.0000 0.84500  0.91150  0.37050  Biso   1.000  H
  H27      1.0000 0.91150  0.15500  0.62950  Biso   1.000  H
  H28      1.0000 0.15500  0.08850  0.37050  Biso   1.000  H
  H29      1.0000 0.41150  0.84500  0.12050  Biso   1.000  H
  H30      1.0000 0.65500  0.91150  0.37950  Biso   1.000  H
  H31      1.0000 0.58850  0.15500  0.12050  Biso   1.000  H
  H32      1.0000 0.34500  0.08850  0.37950  Biso   1.000  H
  H33      1.0000 0.53240  0.31930  0.16170  Biso   1.000  H
  H34      1.0000 0.31930  0.46760  0.83830  Biso   1.000  H
  H35      1.0000 0.46760  0.68070  0.16170  Biso   1.000  H
  H36      1.0000 0.68070  0.53240  0.83830  Biso   1.000  H
  H37      1.0000 0.96760  0.31930  0.58830  Biso   1.000  H
  H38      1.0000 0.18070  0.46760  0.91170  Biso   1.000  H
  H39      1.0000 0.03240  0.68070  0.58830  Biso   1.000  H
  H40      1.0000 0.81930  0.53240  0.91170  Biso   1.000  H
  H41      1.0000 0.03240  0.81930  0.66170  Biso   1.000  H
  H42      1.0000 0.81930  0.96760  0.33830  Biso   1.000  H
  H43      1.0000 0.96760  0.18070  0.66170  Biso   1.000  H
  H44      1.0000 0.18070  0.03240  0.33830  Biso   1.000  H
  H45      1.0000 0.46760  0.81930  0.08830  Biso   1.000  H
  H46      1.0000 0.68070  0.96760  0.41170  Biso   1.000  H
  H47      1.0000 0.53240  0.18070  0.08830  Biso   1.000  H
  H48      1.0000 0.31930  0.03240  0.41170  Biso   1.000  H
  H49      1.0000 0.40180  0.07110  0.23190  Biso   1.000  H
  H50      1.0000 0.07110  0.59820  0.76810  Biso   1.000  H
  H51      1.0000 0.59820  0.92890  0.23190  Biso   1.000  H
  H52      1.0000 0.92890  0.40180  0.76810  Biso   1.000  H
  H53      1.0000 0.09820  0.07110  0.51810  Biso   1.000  H
  H54      1.0000 0.42890  0.59820  0.98190  Biso   1.000  H
  H55      1.0000 0.90180  0.92890  0.51810  Biso   1.000  H
  H56      1.0000 0.57110  0.40180  0.98190  Biso   1.000  H
  H57      1.0000 0.90180  0.57110  0.73190  Biso   1.000  H
  H58      1.0000 0.57110  0.09820  0.26810  Biso   1.000  H
  H59      1.0000 0.09820  0.42890  0.73190  Biso   1.000  H
  H60      1.0000 0.42890  0.90180  0.26810  Biso   1.000  H
  H61      1.0000 0.59820  0.57110  0.01810  Biso   1.000  H
  H62      1.0000 0.92890  0.09820  0.48190  Biso   1.000  H
  H63      1.0000 0.40180  0.42890  0.01810  Biso   1.000  H
  H64      1.0000 0.07110  0.90180  0.48190  Biso   1.000  H
  H65      1.0000 0.31720  0.17010  0.23730  Biso   1.000  H
  H66      1.0000 0.17010  0.68280  0.76270  Biso   1.000  H
  H67      1.0000 0.68280  0.82990  0.23730  Biso   1.000  H
  H68      1.0000 0.82990  0.31720  0.76270  Biso   1.000  H
  H69      1.0000 0.18280  0.17010  0.51270  Biso   1.000  H
  H70      1.0000 0.32990  0.68280  0.98730  Biso   1.000  H
  H71      1.0000 0.81720  0.82990  0.51270  Biso   1.000  H
  H72      1.0000 0.67010  0.31720  0.98730  Biso   1.000  H
  H73      1.0000 0.81720  0.67010  0.73730  Biso   1.000  H
  H74      1.0000 0.67010  0.18280  0.26270  Biso   1.000  H
  H75      1.0000 0.18280  0.32990  0.73730  Biso   1.000  H
  H76      1.0000 0.32990  0.81720  0.26270  Biso   1.000  H
  H77      1.0000 0.68280  0.67010  0.01270  Biso   1.000  H
  H78      1.0000 0.82990  0.18280  0.48730  Biso   1.000  H
  H79      1.0000 0.31720  0.32990  0.01270  Biso   1.000  H
  H80      1.0000 0.17010  0.81720  0.48730  Biso   1.000  H
  H81      1.0000 0.42470  0.18880  0.21690  Biso   1.000  H
  H82      1.0000 0.18880  0.57530  0.78310  Biso   1.000  H
  H83      1.0000 0.57530  0.81120  0.21690  Biso   1.000  H
  H84      1.0000 0.81120  0.42470  0.78310  Biso   1.000  H
  H85      1.0000 0.07530  0.18880  0.53310  Biso   1.000  H
  H86      1.0000 0.31120  0.57530  0.96690  Biso   1.000  H
  H87      1.0000 0.92470  0.81120  0.53310  Biso   1.000  H
  H88      1.0000 0.68880  0.42470  0.96690  Biso   1.000  H
  H89      1.0000 0.92470  0.68880  0.71690  Biso   1.000  H
  H90      1.0000 0.68880  0.07530  0.28310  Biso   1.000  H
  H91      1.0000 0.07530  0.31120  0.71690  Biso   1.000  H
  H92      1.0000 0.31120  0.92470  0.28310  Biso   1.000  H
  H93      1.0000 0.57530  0.68880  0.03310  Biso   1.000  H
  H94      1.0000 0.81120  0.07530  0.46690  Biso   1.000  H
  H95      1.0000 0.42470  0.31120  0.03310  Biso   1.000  H
  H96      1.0000 0.18880  0.92470  0.46690  Biso   1.000  H
  H97      1.0000 0.19480  0.97680  0.18320  Biso   1.000  H
  H98      1.0000 0.97680  0.80520  0.81680  Biso   1.000  H
  H99      1.0000 0.80520  0.02320  0.18320  Biso   1.000  H
  H100     1.0000 0.02320  0.19480  0.81680  Biso   1.000  H
  H101     1.0000 0.30520  0.97680  0.56680  Biso   1.000  H
  H102     1.0000 0.52320  0.80520  0.93320  Biso   1.000  H
  H103     1.0000 0.69480  0.02320  0.56680  Biso   1.000  H
  H104     1.0000 0.47680  0.19480  0.93320  Biso   1.000  H
  H105     1.0000 0.69480  0.47680  0.68320  Biso   1.000  H
  H106     1.0000 0.47680  0.30520  0.31680  Biso   1.000  H
  H107     1.0000 0.30520  0.52320  0.68320  Biso   1.000  H
  H108     1.0000 0.52320  0.69480  0.31680  Biso   1.000  H
  H109     1.0000 0.80520  0.47680  0.06680  Biso   1.000  H
  H110     1.0000 0.02320  0.30520  0.43320  Biso   1.000  H
  H111     1.0000 0.19480  0.52320  0.06680  Biso   1.000  H
  H112     1.0000 0.97680  0.69480  0.43320  Biso   1.000  H
  H113     1.0000 0.24170  0.96830  0.21710  Biso   1.000  H
  H114     1.0000 0.96830  0.75830  0.78290  Biso   1.000  H
  H115     1.0000 0.75830  0.03170  0.21710  Biso   1.000  H
  H116     1.0000 0.03170  0.24170  0.78290  Biso   1.000  H
  H117     1.0000 0.25830  0.96830  0.53290  Biso   1.000  H
  H118     1.0000 0.53170  0.75830  0.96710  Biso   1.000  H
  H119     1.0000 0.74170  0.03170  0.53290  Biso   1.000  H
  H120     1.0000 0.46830  0.24170  0.96710  Biso   1.000  H
  H121     1.0000 0.74170  0.46830  0.71710  Biso   1.000  H
  H122     1.0000 0.46830  0.25830  0.28290  Biso   1.000  H
  H123     1.0000 0.25830  0.53170  0.71710  Biso   1.000  H
  H124     1.0000 0.53170  0.74170  0.28290  Biso   1.000  H
  H125     1.0000 0.75830  0.46830  0.03290  Biso   1.000  H
  H126     1.0000 0.03170  0.25830  0.46710  Biso   1.000  H
  H127     1.0000 0.24170  0.53170  0.03290  Biso   1.000  H
  H128     1.0000 0.96830  0.74170  0.46710  Biso   1.000  H
  H129     1.0000 0.31770  0.93450  0.18890  Biso   1.000  H
  H130     1.0000 0.93450  0.68230  0.81110  Biso   1.000  H
  H131     1.0000 0.68230  0.06550  0.18890  Biso   1.000  H
  H132     1.0000 0.06550  0.31770  0.81110  Biso   1.000  H
  H133     1.0000 0.18230  0.93450  0.56110  Biso   1.000  H
  H134     1.0000 0.56550  0.68230  0.93890  Biso   1.000  H
  H135     1.0000 0.81770  0.06550  0.56110  Biso   1.000  H
  H136     1.0000 0.43450  0.31770  0.93890  Biso   1.000  H
  H137     1.0000 0.81770  0.43450  0.68890  Biso   1.000  H
  H138     1.0000 0.43450  0.18230  0.31110  Biso   1.000  H
  H139     1.0000 0.18230  0.56550  0.68890  Biso   1.000  H
  H140     1.0000 0.56550  0.81770  0.31110  Biso   1.000  H
  H141     1.0000 0.68230  0.43450  0.06110  Biso   1.000  H
  H142     1.0000 0.06550  0.18230  0.43890  Biso   1.000  H
  H143     1.0000 0.31770  0.56550  0.06110  Biso   1.000  H
  H144     1.0000 0.93450  0.81770  0.43890  Biso   1.000  H
  H145     1.0000 0.22730  0.27620  0.22550  Biso   1.000  H
  H146     1.0000 0.27620  0.77270  0.77450  Biso   1.000  H
  H147     1.0000 0.77270  0.72380  0.22550  Biso   1.000  H
  H148     1.0000 0.72380  0.22730  0.77450  Biso   1.000  H
  H149     1.0000 0.27270  0.27620  0.52450  Biso   1.000  H
  H150     1.0000 0.22380  0.77270  0.97550  Biso   1.000  H
  H151     1.0000 0.72730  0.72380  0.52450  Biso   1.000  H
  H152     1.0000 0.77620  0.22730  0.97550  Biso   1.000  H
  H153     1.0000 0.72730  0.77620  0.72550  Biso   1.000  H
  H154     1.0000 0.77620  0.27270  0.27450  Biso   1.000  H
  H155     1.0000 0.27270  0.22380  0.72550  Biso   1.000  H
  H156     1.0000 0.22380  0.72730  0.27450  Biso   1.000  H
  H157     1.0000 0.77270  0.77620  0.02450  Biso   1.000  H
  H158     1.0000 0.72380  0.27270  0.47550  Biso   1.000  H
  H159     1.0000 0.22730  0.22380  0.02450  Biso   1.000  H
  H160     1.0000 0.27620  0.72730  0.47550  Biso   1.000  H
  H161     1.0000 0.10160  0.24820  0.21810  Biso   1.000  H
  H162     1.0000 0.24820  0.89840  0.78190  Biso   1.000  H
  H163     1.0000 0.89840  0.75180  0.21810  Biso   1.000  H
  H164     1.0000 0.75180  0.10160  0.78190  Biso   1.000  H
  H165     1.0000 0.39840  0.24820  0.53190  Biso   1.000  H
  H166     1.0000 0.25180  0.89840  0.96810  Biso   1.000  H
  H167     1.0000 0.60160  0.75180  0.53190  Biso   1.000  H
  H168     1.0000 0.74820  0.10160  0.96810  Biso   1.000  H
  H169     1.0000 0.60160  0.74820  0.71810  Biso   1.000  H
  H170     1.0000 0.74820  0.39840  0.28190  Biso   1.000  H
  H171     1.0000 0.39840  0.25180  0.71810  Biso   1.000  H
  H172     1.0000 0.25180  0.60160  0.28190  Biso   1.000  H
  H173     1.0000 0.89840  0.74820  0.03190  Biso   1.000  H
  H174     1.0000 0.75180  0.39840  0.46810  Biso   1.000  H
  H175     1.0000 0.10160  0.25180  0.03190  Biso   1.000  H
  H176     1.0000 0.24820  0.60160  0.46810  Biso   1.000  H
  H177     1.0000 0.16090  0.34880  0.20130  Biso   1.000  H
  H178     1.0000 0.34880  0.83910  0.79870  Biso   1.000  H
  H179     1.0000 0.83910  0.65120  0.20130  Biso   1.000  H
  H180     1.0000 0.65120  0.16090  0.79870  Biso   1.000  H
  H181     1.0000 0.33910  0.34880  0.54870  Biso   1.000  H
  H182     1.0000 0.15120  0.83910  0.95130  Biso   1.000  H
  H183     1.0000 0.66090  0.65120  0.54870  Biso   1.000  H
  H184     1.0000 0.84880  0.16090  0.95130  Biso   1.000  H
  H185     1.0000 0.66090  0.84880  0.70130  Biso   1.000  H
  H186     1.0000 0.84880  0.33910  0.29870  Biso   1.000  H
  H187     1.0000 0.33910  0.15120  0.70130  Biso   1.000  H
  H188     1.0000 0.15120  0.66090  0.29870  Biso   1.000  H
  H189     1.0000 0.83910  0.84880  0.04870  Biso   1.000  H
  H190     1.0000 0.65120  0.33910  0.45130  Biso   1.000  H
  H191     1.0000 0.16090  0.15120  0.04870  Biso   1.000  H
  H192     1.0000 0.34880  0.66090  0.45130  Biso   1.000  H
  H193     1.0000 0.04590  0.19550  0.16900  Biso   1.000  H
  H194     1.0000 0.19550  0.95410  0.83100  Biso   1.000  H
  H195     1.0000 0.95410  0.80450  0.16900  Biso   1.000  H
  H196     1.0000 0.80450  0.04590  0.83100  Biso   1.000  H
  H197     1.0000 0.45410  0.19550  0.58100  Biso   1.000  H
  H198     1.0000 0.30450  0.95410  0.91900  Biso   1.000  H
  H199     1.0000 0.54590  0.80450  0.58100  Biso   1.000  H
  H200     1.0000 0.69550  0.04590  0.91900  Biso   1.000  H
  H201     1.0000 0.54590  0.69550  0.66900  Biso   1.000  H
  H202     1.0000 0.69550  0.45410  0.33100  Biso   1.000  H
  H203     1.0000 0.45410  0.30450  0.66900  Biso   1.000  H
  H204     1.0000 0.30450  0.54590  0.33100  Biso   1.000  H
  H205     1.0000 0.95410  0.69550  0.08100  Biso   1.000  H
  H206     1.0000 0.80450  0.45410  0.41900  Biso   1.000  H
  H207     1.0000 0.04590  0.30450  0.08100  Biso   1.000  H
  H208     1.0000 0.19550  0.54590  0.41900  Biso   1.000  H
  H209     1.0000 0.08740  0.07420  0.17730  Biso   1.000  H
  H210     1.0000 0.07420  0.91260  0.82270  Biso   1.000  H
  H211     1.0000 0.91260  0.92580  0.17730  Biso   1.000  H
  H212     1.0000 0.92580  0.08740  0.82270  Biso   1.000  H
  H213     1.0000 0.41260  0.07420  0.57270  Biso   1.000  H
  H214     1.0000 0.42580  0.91260  0.92730  Biso   1.000  H
  H215     1.0000 0.58740  0.92580  0.57270  Biso   1.000  H
  H216     1.0000 0.57420  0.08740  0.92730  Biso   1.000  H
  H217     1.0000 0.58740  0.57420  0.67730  Biso   1.000  H
  H218     1.0000 0.57420  0.41260  0.32270  Biso   1.000  H
  H219     1.0000 0.41260  0.42580  0.67730  Biso   1.000  H
  H220     1.0000 0.42580  0.58740  0.32270  Biso   1.000  H
  H221     1.0000 0.91260  0.57420  0.07270  Biso   1.000  H
  H222     1.0000 0.92580  0.41260  0.42730  Biso   1.000  H
  H223     1.0000 0.08740  0.42580  0.07270  Biso   1.000  H
  H224     1.0000 0.07420  0.58740  0.42730  Biso   1.000  H
  H225     1.0000 0.12780  0.13190  0.14650  Biso   1.000  H
  H226     1.0000 0.13190  0.87220  0.85350  Biso   1.000  H
  H227     1.0000 0.87220  0.86810  0.14650  Biso   1.000  H
  H228     1.0000 0.86810  0.12780  0.85350  Biso   1.000  H
  H229     1.0000 0.37220  0.13190  0.60350  Biso   1.000  H
  H230     1.0000 0.36810  0.87220  0.89650  Biso   1.000  H
  H231     1.0000 0.62780  0.86810  0.60350  Biso   1.000  H
  H232     1.0000 0.63190  0.12780  0.89650  Biso   1.000  H
  H233     1.0000 0.62780  0.63190  0.64650  Biso   1.000  H
  H234     1.0000 0.63190  0.37220  0.35350  Biso   1.000  H
  H235     1.0000 0.37220  0.36810  0.64650  Biso   1.000  H
  H236     1.0000 0.36810  0.62780  0.35350  Biso   1.000  H
  H237     1.0000 0.87220  0.63190  0.10350  Biso   1.000  H
  H238     1.0000 0.86810  0.37220  0.39650  Biso   1.000  H
  H239     1.0000 0.12780  0.36810  0.10350  Biso   1.000  H
  H240     1.0000 0.13190  0.62780  0.39650  Biso   1.000  H
  Cl33     1.0000 0.92940  0.07060  0.09770  Biso   1.000  Cl
  Cl34     1.0000 0.07060  0.07060  0.90230  Biso   1.000  Cl
  Cl35     1.0000 0.07060  0.92940  0.09770  Biso   1.000  Cl
  Cl36     1.0000 0.92940  0.92940  0.90230  Biso   1.000  Cl
  Cl37     1.0000 0.57060  0.07060  0.65230  Biso   1.000  Cl
  Cl38     1.0000 0.42940  0.07060  0.84770  Biso   1.000  Cl
  Cl39     1.0000 0.42940  0.92940  0.65230  Biso   1.000  Cl
  Cl40     1.0000 0.57060  0.92940  0.84770  Biso   1.000  Cl
  Cl41     1.0000 0.42940  0.57060  0.59770  Biso   1.000  Cl
  Cl42     1.0000 0.57060  0.57060  0.40230  Biso   1.000  Cl
  Cl43     1.0000 0.57060  0.42940  0.59770  Biso   1.000  Cl
  Cl44     1.0000 0.42940  0.42940  0.40230  Biso   1.000  Cl
  Cl45     1.0000 0.07060  0.57060  0.15230  Biso   1.000  Cl
  Cl46     1.0000 0.92940  0.57060  0.34770  Biso   1.000  Cl
  Cl47     1.0000 0.92940  0.42940  0.15230  Biso   1.000  Cl
  Cl48     1.0000 0.07060  0.42940  0.34770  Biso   1.000  Cl
