data_image0
_cell_length_a       12.8
_cell_length_b       12.046
_cell_length_c       14.4
_cell_angle_alpha    90
_cell_angle_beta     91.88
_cell_angle_gamma    90

_symmetry_space_group_name_H-M    "P 1"
_symmetry_int_tables_number       1

loop_
  _symmetry_equiv_pos_as_xyz
  'x, y, z'

loop_
  _atom_site_label
  _atom_site_occupancy
  _atom_site_fract_x
  _atom_site_fract_y
  _atom_site_fract_z
  _atom_site_thermal_displace_type
  _atom_site_B_iso_or_equiv
  _atom_site_type_symbol
  Cu1      1.0000 0.31059  0.51576  0.08310  Biso   1.000  Cu
  Cu2      1.0000 0.18941  0.01576  0.91690  Biso   1.000  Cu
  Cu3      1.0000 0.68941  0.48424  0.91690  Biso   1.000  Cu
  Cu4      1.0000 0.81059  0.98424  0.08310  Biso   1.000  Cu
  Cu5      1.0000 0.09246  0.01826  0.15338  Biso   1.000  Cu
  Cu6      1.0000 0.40754  0.51826  0.84662  Biso   1.000  Cu
  Cu7      1.0000 0.90754  0.98174  0.84662  Biso   1.000  Cu
  Cu8      1.0000 0.59246  0.48174  0.15338  Biso   1.000  Cu
  Cl1      1.0000 0.45832  0.59720  0.12903  Biso   1.000  Cl
  Cl2      1.0000 0.04168  0.09720  0.87097  Biso   1.000  Cl
  Cl3      1.0000 0.54168  0.40280  0.87097  Biso   1.000  Cl
  Cl4      1.0000 0.95832  0.90280  0.12903  Biso   1.000  Cl
  Cl5      1.0000 0.26886  0.47262  0.93387  Biso   1.000  Cl
  Cl6      1.0000 0.23114  0.97262  0.06613  Biso   1.000  Cl
  Cl7      1.0000 0.73114  0.52738  0.06613  Biso   1.000  Cl
  Cl8      1.0000 0.76886  0.02738  0.93387  Biso   1.000  Cl
  O1       1.0000 0.99250  0.37150  0.27580  Biso   1.000  O
  O2       1.0000 0.50750  0.87150  0.72420  Biso   1.000  O
  O3       1.0000 0.00750  0.62850  0.72420  Biso   1.000  O
  O4       1.0000 0.49250  0.12850  0.27580  Biso   1.000  O
  O5       1.0000 0.22000  0.34940  0.36740  Biso   1.000  O
  O6       1.0000 0.28000  0.84940  0.63260  Biso   1.000  O
  O7       1.0000 0.78000  0.65060  0.63260  Biso   1.000  O
  O8       1.0000 0.72000  0.15060  0.36740  Biso   1.000  O
  N1       1.0000 0.19270  0.50030  0.16590  Biso   1.000  N
  N2       1.0000 0.30730  0.00030  0.83410  Biso   1.000  N
  N3       1.0000 0.80730  0.49970  0.83410  Biso   1.000  N
  N4       1.0000 0.69270  0.99970  0.16590  Biso   1.000  N
  N5       1.0000 0.05540  0.44100  0.24220  Biso   1.000  N
  N6       1.0000 0.44460  0.94100  0.75780  Biso   1.000  N
  N7       1.0000 0.94460  0.55900  0.75780  Biso   1.000  N
  N8       1.0000 0.55540  0.05900  0.24220  Biso   1.000  N
  N9       1.0000 0.11410  0.12170  0.25540  Biso   1.000  N
  N10      1.0000 0.38590  0.62170  0.74460  Biso   1.000  N
  N11      1.0000 0.88590  0.87830  0.74460  Biso   1.000  N
  N12      1.0000 0.61410  0.37830  0.25540  Biso   1.000  N
  N13      1.0000 0.17710  0.25680  0.34700  Biso   1.000  N
  N14      1.0000 0.32290  0.75680  0.65300  Biso   1.000  N
  N15      1.0000 0.82290  0.74320  0.65300  Biso   1.000  N
  N16      1.0000 0.67710  0.24320  0.34700  Biso   1.000  N
  C1       1.0000 0.17180  0.29530  0.17610  Biso   1.000  C
  C2       1.0000 0.32820  0.79530  0.82390  Biso   1.000  C
  C3       1.0000 0.82820  0.70470  0.82390  Biso   1.000  C
  C4       1.0000 0.67180  0.20470  0.17610  Biso   1.000  C
  C5       1.0000 0.10340  0.26240  0.08990  Biso   1.000  C
  C6       1.0000 0.39660  0.76240  0.91010  Biso   1.000  C
  C7       1.0000 0.89660  0.73760  0.91010  Biso   1.000  C
  C8       1.0000 0.60340  0.23760  0.08990  Biso   1.000  C
  C9       1.0000 0.28760  0.27970  0.15590  Biso   1.000  C
  C10      1.0000 0.21240  0.77970  0.84410  Biso   1.000  C
  C11      1.0000 0.71240  0.72030  0.84410  Biso   1.000  C
  C12      1.0000 0.78760  0.22030  0.15590  Biso   1.000  C
  C13      1.0000 0.14560  0.41450  0.19600  Biso   1.000  C
  C14      1.0000 0.35440  0.91450  0.80400  Biso   1.000  C
  C15      1.0000 0.85440  0.58550  0.80400  Biso   1.000  C
  C16      1.0000 0.64560  0.08550  0.19600  Biso   1.000  C
  C17      1.0000 0.12640  0.60130  0.18400  Biso   1.000  C
  C18      1.0000 0.37360  0.10130  0.81600  Biso   1.000  C
  C19      1.0000 0.87360  0.39870  0.81600  Biso   1.000  C
  C20      1.0000 0.62640  0.89870  0.18400  Biso   1.000  C
  C21      1.0000 0.04780  0.56360  0.25340  Biso   1.000  C
  C22      1.0000 0.45220  0.06360  0.74660  Biso   1.000  C
  C23      1.0000 0.95220  0.43640  0.74660  Biso   1.000  C
  C24      1.0000 0.54780  0.93640  0.25340  Biso   1.000  C
  C25      1.0000 0.18780  0.70020  0.20100  Biso   1.000  C
  C26      1.0000 0.31220  0.20020  0.79900  Biso   1.000  C
  C27      1.0000 0.81220  0.29980  0.79900  Biso   1.000  C
  C28      1.0000 0.68780  0.79980  0.20100  Biso   1.000  C
  C29      1.0000 0.06340  0.62110  0.08970  Biso   1.000  C
  C30      1.0000 0.43660  0.12110  0.91030  Biso   1.000  C
  C31      1.0000 0.93660  0.37890  0.91030  Biso   1.000  C
  C32      1.0000 0.56340  0.87890  0.08970  Biso   1.000  C
  C33      1.0000 0.08920  0.58520  0.35500  Biso   1.000  C
  C34      1.0000 0.41080  0.08520  0.64500  Biso   1.000  C
  C35      1.0000 0.91080  0.41480  0.64500  Biso   1.000  C
  C36      1.0000 0.58920  0.91480  0.35500  Biso   1.000  C
  C37      1.0000 0.93520  0.60420  0.24980  Biso   1.000  C
  C38      1.0000 0.56480  0.10420  0.75020  Biso   1.000  C
  C39      1.0000 0.06480  0.39580  0.75020  Biso   1.000  C
  C40      1.0000 0.43520  0.89580  0.24980  Biso   1.000  C
  C41      1.0000 0.14950  0.22230  0.25800  Biso   1.000  C
  C42      1.0000 0.35050  0.72230  0.74200  Biso   1.000  C
  C43      1.0000 0.85050  0.77770  0.74200  Biso   1.000  C
  C44      1.0000 0.64950  0.27770  0.25800  Biso   1.000  C
  C45      1.0000 0.09970  0.08270  0.35420  Biso   1.000  C
  C46      1.0000 0.40030  0.58270  0.64580  Biso   1.000  C
  C47      1.0000 0.90030  0.91730  0.64580  Biso   1.000  C
  C48      1.0000 0.59970  0.41730  0.35420  Biso   1.000  C
  C49      1.0000 0.17190  0.16240  0.41310  Biso   1.000  C
  C50      1.0000 0.32810  0.66240  0.58690  Biso   1.000  C
  C51      1.0000 0.82810  0.83760  0.58690  Biso   1.000  C
  C52      1.0000 0.67190  0.33760  0.41310  Biso   1.000  C
  C53      1.0000 0.13060  0.96080  0.36160  Biso   1.000  C
  C54      1.0000 0.36940  0.46080  0.63840  Biso   1.000  C
  C55      1.0000 0.86940  0.03920  0.63840  Biso   1.000  C
  C56      1.0000 0.63060  0.53920  0.36160  Biso   1.000  C
  C57      1.0000 0.98460  0.09620  0.36900  Biso   1.000  C
  C58      1.0000 0.51540  0.59620  0.63100  Biso   1.000  C
  C59      1.0000 0.01540  0.90380  0.63100  Biso   1.000  C
  C60      1.0000 0.48460  0.40380  0.36900  Biso   1.000  C
  C61      1.0000 0.28410  0.12140  0.42770  Biso   1.000  C
  C62      1.0000 0.21590  0.62140  0.57230  Biso   1.000  C
  C63      1.0000 0.71590  0.87860  0.57230  Biso   1.000  C
  C64      1.0000 0.78410  0.37860  0.42770  Biso   1.000  C
  C65      1.0000 0.12960  0.20170  0.50410  Biso   1.000  C
  C66      1.0000 0.37040  0.70170  0.49590  Biso   1.000  C
  C67      1.0000 0.87040  0.79830  0.49590  Biso   1.000  C
  C68      1.0000 0.62960  0.29830  0.50410  Biso   1.000  C
  H1       1.0000 0.09210  0.32560  0.05130  Biso   1.000  H
  H2       1.0000 0.40790  0.82560  0.94870  Biso   1.000  H
  H3       1.0000 0.90790  0.67440  0.94870  Biso   1.000  H
  H4       1.0000 0.59210  0.17440  0.05130  Biso   1.000  H
  H5       1.0000 0.03800  0.23500  0.10940  Biso   1.000  H
  H6       1.0000 0.46200  0.73500  0.89060  Biso   1.000  H
  H7       1.0000 0.96200  0.76500  0.89060  Biso   1.000  H
  H8       1.0000 0.53800  0.26500  0.10940  Biso   1.000  H
  H9       1.0000 0.13780  0.20640  0.05600  Biso   1.000  H
  H10      1.0000 0.36220  0.70640  0.94400  Biso   1.000  H
  H11      1.0000 0.86220  0.79360  0.94400  Biso   1.000  H
  H12      1.0000 0.63780  0.29360  0.05600  Biso   1.000  H
  H13      1.0000 0.30850  0.20650  0.17250  Biso   1.000  H
  H14      1.0000 0.19150  0.70650  0.82750  Biso   1.000  H
  H15      1.0000 0.69150  0.79350  0.82750  Biso   1.000  H
  H16      1.0000 0.80850  0.29350  0.17250  Biso   1.000  H
  H17      1.0000 0.32810  0.33170  0.19120  Biso   1.000  H
  H18      1.0000 0.17190  0.83170  0.80880  Biso   1.000  H
  H19      1.0000 0.67190  0.66830  0.80880  Biso   1.000  H
  H20      1.0000 0.82810  0.16830  0.19120  Biso   1.000  H
  H21      1.0000 0.29800  0.29130  0.09160  Biso   1.000  H
  H22      1.0000 0.20200  0.79130  0.90840  Biso   1.000  H
  H23      1.0000 0.70200  0.70870  0.90840  Biso   1.000  H
  H24      1.0000 0.79800  0.20870  0.09160  Biso   1.000  H
  H25      1.0000 0.20330  0.70720  0.26570  Biso   1.000  H
  H26      1.0000 0.29670  0.20720  0.73430  Biso   1.000  H
  H27      1.0000 0.79670  0.29280  0.73430  Biso   1.000  H
  H28      1.0000 0.70330  0.79280  0.26570  Biso   1.000  H
  H29      1.0000 0.14940  0.76320  0.17990  Biso   1.000  H
  H30      1.0000 0.35060  0.26320  0.82010  Biso   1.000  H
  H31      1.0000 0.85060  0.23680  0.82010  Biso   1.000  H
  H32      1.0000 0.64940  0.73680  0.17990  Biso   1.000  H
  H33      1.0000 0.25110  0.69530  0.16860  Biso   1.000  H
  H34      1.0000 0.24890  0.19530  0.83140  Biso   1.000  H
  H35      1.0000 0.74890  0.30470  0.83140  Biso   1.000  H
  H36      1.0000 0.75110  0.80470  0.16860  Biso   1.000  H
  H37      1.0000 0.10210  0.66900  0.05130  Biso   1.000  H
  H38      1.0000 0.39790  0.16900  0.94870  Biso   1.000  H
  H39      1.0000 0.89790  0.33100  0.94870  Biso   1.000  H
  H40      1.0000 0.60210  0.83100  0.05130  Biso   1.000  H
  H41      1.0000 0.99790  0.65410  0.10180  Biso   1.000  H
  H42      1.0000 0.50210  0.15410  0.89820  Biso   1.000  H
  H43      1.0000 0.00210  0.34590  0.89820  Biso   1.000  H
  H44      1.0000 0.49790  0.84590  0.10180  Biso   1.000  H
  H45      1.0000 0.05240  0.55210  0.05900  Biso   1.000  H
  H46      1.0000 0.44760  0.05210  0.94100  Biso   1.000  H
  H47      1.0000 0.94760  0.44790  0.94100  Biso   1.000  H
  H48      1.0000 0.55240  0.94790  0.05900  Biso   1.000  H
  H49      1.0000 0.03280  0.58110  0.39610  Biso   1.000  H
  H50      1.0000 0.46720  0.08110  0.60390  Biso   1.000  H
  H51      1.0000 0.96720  0.41890  0.60390  Biso   1.000  H
  H52      1.0000 0.53280  0.91890  0.39610  Biso   1.000  H
  H53      1.0000 0.12010  0.65680  0.35880  Biso   1.000  H
  H54      1.0000 0.37990  0.15680  0.64120  Biso   1.000  H
  H55      1.0000 0.87990  0.34320  0.64120  Biso   1.000  H
  H56      1.0000 0.62010  0.84320  0.35880  Biso   1.000  H
  H57      1.0000 0.14000  0.53060  0.37190  Biso   1.000  H
  H58      1.0000 0.36000  0.03060  0.62810  Biso   1.000  H
  H59      1.0000 0.86000  0.46940  0.62810  Biso   1.000  H
  H60      1.0000 0.64000  0.96940  0.37190  Biso   1.000  H
  H61      1.0000 0.90210  0.57990  0.19340  Biso   1.000  H
  H62      1.0000 0.59790  0.07990  0.80660  Biso   1.000  H
  H63      1.0000 0.09790  0.42010  0.80660  Biso   1.000  H
  H64      1.0000 0.40210  0.92010  0.19340  Biso   1.000  H
  H65      1.0000 0.93380  0.68300  0.25240  Biso   1.000  H
  H66      1.0000 0.56620  0.18300  0.74760  Biso   1.000  H
  H67      1.0000 0.06620  0.31700  0.74760  Biso   1.000  H
  H68      1.0000 0.43380  0.81700  0.25240  Biso   1.000  H
  H69      1.0000 0.89720  0.55680  0.30890  Biso   1.000  H
  H70      1.0000 0.60280  0.05680  0.69110  Biso   1.000  H
  H71      1.0000 0.10280  0.44320  0.69110  Biso   1.000  H
  H72      1.0000 0.39720  0.94320  0.30890  Biso   1.000  H
  H73      1.0000 0.07100  0.91560  0.34880  Biso   1.000  H
  H74      1.0000 0.42900  0.41560  0.65120  Biso   1.000  H
  H75      1.0000 0.92900  0.08440  0.65120  Biso   1.000  H
  H76      1.0000 0.57100  0.58440  0.34880  Biso   1.000  H
  H77      1.0000 0.15730  0.94580  0.42270  Biso   1.000  H
  H78      1.0000 0.34270  0.44580  0.57730  Biso   1.000  H
  H79      1.0000 0.84270  0.05420  0.57730  Biso   1.000  H
  H80      1.0000 0.65730  0.55420  0.42270  Biso   1.000  H
  H81      1.0000 0.18270  0.94490  0.31810  Biso   1.000  H
  H82      1.0000 0.31730  0.44490  0.68190  Biso   1.000  H
  H83      1.0000 0.81730  0.05510  0.68190  Biso   1.000  H
  H84      1.0000 0.68270  0.55510  0.31810  Biso   1.000  H
  H85      1.0000 0.97180  0.16800  0.39350  Biso   1.000  H
  H86      1.0000 0.52820  0.66800  0.60650  Biso   1.000  H
  H87      1.0000 0.02820  0.83200  0.60650  Biso   1.000  H
  H88      1.0000 0.47180  0.33200  0.39350  Biso   1.000  H
  H89      1.0000 0.96230  0.04150  0.41160  Biso   1.000  H
  H90      1.0000 0.53770  0.54150  0.58840  Biso   1.000  H
  H91      1.0000 0.03770  0.95850  0.58840  Biso   1.000  H
  H92      1.0000 0.46230  0.45850  0.41160  Biso   1.000  H
  H93      1.0000 0.94710  0.08770  0.31150  Biso   1.000  H
  H94      1.0000 0.55290  0.58770  0.68850  Biso   1.000  H
  H95      1.0000 0.05290  0.91230  0.68850  Biso   1.000  H
  H96      1.0000 0.44710  0.41230  0.31150  Biso   1.000  H
  H97      1.0000 0.29810  0.06570  0.38310  Biso   1.000  H
  H98      1.0000 0.20190  0.56570  0.61690  Biso   1.000  H
  H99      1.0000 0.70190  0.93430  0.61690  Biso   1.000  H
  H100     1.0000 0.79810  0.43430  0.38310  Biso   1.000  H
  H101     1.0000 0.29310  0.09130  0.48840  Biso   1.000  H
  H102     1.0000 0.20690  0.59130  0.51160  Biso   1.000  H
  H103     1.0000 0.70690  0.90870  0.51160  Biso   1.000  H
  H104     1.0000 0.79310  0.40870  0.48840  Biso   1.000  H
  H105     1.0000 0.33100  0.18170  0.42060  Biso   1.000  H
  H106     1.0000 0.16900  0.68170  0.57940  Biso   1.000  H
  H107     1.0000 0.66900  0.81830  0.57940  Biso   1.000  H
  H108     1.0000 0.83100  0.31830  0.42060  Biso   1.000  H
  H109     1.0000 0.18590  0.22500  0.54420  Biso   1.000  H
  H110     1.0000 0.31410  0.72500  0.45580  Biso   1.000  H
  H111     1.0000 0.81410  0.77500  0.45580  Biso   1.000  H
  H112     1.0000 0.68590  0.27500  0.54420  Biso   1.000  H
  H113     1.0000 0.09320  0.14270  0.53250  Biso   1.000  H
  H114     1.0000 0.40680  0.64270  0.46750  Biso   1.000  H
  H115     1.0000 0.90680  0.85730  0.46750  Biso   1.000  H
  H116     1.0000 0.59320  0.35730  0.53250  Biso   1.000  H
  H117     1.0000 0.08320  0.26220  0.49300  Biso   1.000  H
  H118     1.0000 0.41680  0.76220  0.50700  Biso   1.000  H
  H119     1.0000 0.91680  0.73780  0.50700  Biso   1.000  H
  H120     1.0000 0.58320  0.23780  0.49300  Biso   1.000  H
