data_image0
_cell_length_a       11.474
_cell_length_b       11.5821
_cell_length_c       10.965
_cell_angle_alpha    90
_cell_angle_beta     106.67
_cell_angle_gamma    90

_symmetry_space_group_name_H-M    "P 1"
_symmetry_int_tables_number       1

loop_
  _symmetry_equiv_pos_as_xyz
  'x, y, z'

loop_
  _atom_site_label
  _atom_site_occupancy
  _atom_site_fract_x
  _atom_site_fract_y
  _atom_site_fract_z
  _atom_site_thermal_displace_type
  _atom_site_B_iso_or_equiv
  _atom_site_type_symbol
  Cu1      1.0000 0.00000  0.05969  0.25000  Biso   1.000  Cu
  Cu2      1.0000 0.50000  0.55969  0.25000  Biso   1.000  Cu
  Cu3      1.0000 0.00000  0.94031  0.75000  Biso   1.000  Cu
  Cu4      1.0000 0.50000  0.44031  0.75000  Biso   1.000  Cu
  Cl1      1.0000 0.00000  0.25909  0.25000  Biso   1.000  Cl
  Cl2      1.0000 0.50000  0.75909  0.25000  Biso   1.000  Cl
  Cl3      1.0000 0.00000  0.74091  0.75000  Biso   1.000  Cl
  Cl4      1.0000 0.50000  0.24091  0.75000  Biso   1.000  Cl
  N1       1.0000 0.89990  0.00420  0.08470  Biso   1.000  N
  N2       1.0000 0.39990  0.50420  0.08470  Biso   1.000  N
  N3       1.0000 0.89990  0.99580  0.58470  Biso   1.000  N
  N4       1.0000 0.39990  0.49580  0.58470  Biso   1.000  N
  N5       1.0000 0.10010  0.99580  0.91530  Biso   1.000  N
  N6       1.0000 0.60010  0.49580  0.91530  Biso   1.000  N
  N7       1.0000 0.10010  0.00420  0.41530  Biso   1.000  N
  N8       1.0000 0.60010  0.50420  0.41530  Biso   1.000  N
  C1       1.0000 0.89210  0.89200  0.05010  Biso   1.000  C
  C2       1.0000 0.39210  0.39200  0.05010  Biso   1.000  C
  C3       1.0000 0.89210  0.10800  0.55010  Biso   1.000  C
  C4       1.0000 0.39210  0.60800  0.55010  Biso   1.000  C
  C5       1.0000 0.10790  0.10800  0.94990  Biso   1.000  C
  C6       1.0000 0.60790  0.60800  0.94990  Biso   1.000  C
  C7       1.0000 0.10790  0.89200  0.44990  Biso   1.000  C
  C8       1.0000 0.60790  0.39200  0.44990  Biso   1.000  C
  C9       1.0000 0.81980  0.85270  0.93400  Biso   1.000  C
  C10      1.0000 0.31980  0.35270  0.93400  Biso   1.000  C
  C11      1.0000 0.81980  0.14730  0.43400  Biso   1.000  C
  C12      1.0000 0.31980  0.64730  0.43400  Biso   1.000  C
  C13      1.0000 0.18020  0.14730  0.06600  Biso   1.000  C
  C14      1.0000 0.68020  0.64730  0.06600  Biso   1.000  C
  C15      1.0000 0.18020  0.85270  0.56600  Biso   1.000  C
  C16      1.0000 0.68020  0.35270  0.56600  Biso   1.000  C
  C17      1.0000 0.75140  0.93210  0.84750  Biso   1.000  C
  C18      1.0000 0.25140  0.43210  0.84750  Biso   1.000  C
  C19      1.0000 0.75140  0.06790  0.34750  Biso   1.000  C
  C20      1.0000 0.25140  0.56790  0.34750  Biso   1.000  C
  C21      1.0000 0.24860  0.06790  0.15250  Biso   1.000  C
  C22      1.0000 0.74860  0.56790  0.15250  Biso   1.000  C
  C23      1.0000 0.24860  0.93210  0.65250  Biso   1.000  C
  C24      1.0000 0.74860  0.43210  0.65250  Biso   1.000  C
  C25      1.0000 0.76050  0.04880  0.87970  Biso   1.000  C
  C26      1.0000 0.26050  0.54880  0.87970  Biso   1.000  C
  C27      1.0000 0.76050  0.95120  0.37970  Biso   1.000  C
  C28      1.0000 0.26050  0.45120  0.37970  Biso   1.000  C
  C29      1.0000 0.23950  0.95120  0.12030  Biso   1.000  C
  C30      1.0000 0.73950  0.45120  0.12030  Biso   1.000  C
  C31      1.0000 0.23950  0.04880  0.62030  Biso   1.000  C
  C32      1.0000 0.73950  0.54880  0.62030  Biso   1.000  C
  C33      1.0000 0.83520  0.08050  0.99820  Biso   1.000  C
  C34      1.0000 0.33520  0.58050  0.99820  Biso   1.000  C
  C35      1.0000 0.83520  0.91950  0.49820  Biso   1.000  C
  C36      1.0000 0.33520  0.41950  0.49820  Biso   1.000  C
  C37      1.0000 0.16480  0.91950  0.00180  Biso   1.000  C
  C38      1.0000 0.66480  0.41950  0.00180  Biso   1.000  C
  C39      1.0000 0.16480  0.08050  0.50180  Biso   1.000  C
  C40      1.0000 0.66480  0.58050  0.50180  Biso   1.000  C
  C41      1.0000 0.66500  0.88980  0.72630  Biso   1.000  C
  C42      1.0000 0.16500  0.38980  0.72630  Biso   1.000  C
  C43      1.0000 0.66500  0.11020  0.22630  Biso   1.000  C
  C44      1.0000 0.16500  0.61020  0.22630  Biso   1.000  C
  C45      1.0000 0.33500  0.11020  0.27370  Biso   1.000  C
  C46      1.0000 0.83500  0.61020  0.27370  Biso   1.000  C
  C47      1.0000 0.33500  0.88980  0.77370  Biso   1.000  C
  C48      1.0000 0.83500  0.38980  0.77370  Biso   1.000  C
  C49      1.0000 0.52250  0.94380  0.53300  Biso   1.000  C
  C50      1.0000 0.02250  0.44380  0.53300  Biso   1.000  C
  C51      1.0000 0.52250  0.05620  0.03300  Biso   1.000  C
  C52      1.0000 0.02250  0.55620  0.03300  Biso   1.000  C
  C53      1.0000 0.47750  0.05620  0.46700  Biso   1.000  C
  C54      1.0000 0.97750  0.55620  0.46700  Biso   1.000  C
  C55      1.0000 0.47750  0.94380  0.96700  Biso   1.000  C
  C56      1.0000 0.97750  0.44380  0.96700  Biso   1.000  C
  O1       1.0000 0.63810  0.78890  0.70440  Biso   1.000  O
  O2       1.0000 0.13810  0.28890  0.70440  Biso   1.000  O
  O3       1.0000 0.63810  0.21110  0.20440  Biso   1.000  O
  O4       1.0000 0.13810  0.71110  0.20440  Biso   1.000  O
  O5       1.0000 0.36190  0.21110  0.29560  Biso   1.000  O
  O6       1.0000 0.86190  0.71110  0.29560  Biso   1.000  O
  O7       1.0000 0.36190  0.78890  0.79560  Biso   1.000  O
  O8       1.0000 0.86190  0.28890  0.79560  Biso   1.000  O
  O9       1.0000 0.61770  0.97560  0.64610  Biso   1.000  O
  O10      1.0000 0.11770  0.47560  0.64610  Biso   1.000  O
  O11      1.0000 0.61770  0.02440  0.14610  Biso   1.000  O
  O12      1.0000 0.11770  0.52440  0.14610  Biso   1.000  O
  O13      1.0000 0.38230  0.02440  0.35390  Biso   1.000  O
  O14      1.0000 0.88230  0.52440  0.35390  Biso   1.000  O
  O15      1.0000 0.38230  0.97560  0.85390  Biso   1.000  O
  O16      1.0000 0.88230  0.47560  0.85390  Biso   1.000  O
  H1       1.0000 0.94100  0.83900  0.11200  Biso   1.000  H
  H2       1.0000 0.44100  0.33900  0.11200  Biso   1.000  H
  H3       1.0000 0.94100  0.16100  0.61200  Biso   1.000  H
  H4       1.0000 0.44100  0.66100  0.61200  Biso   1.000  H
  H5       1.0000 0.05900  0.16100  0.88800  Biso   1.000  H
  H6       1.0000 0.55900  0.66100  0.88800  Biso   1.000  H
  H7       1.0000 0.05900  0.83900  0.38800  Biso   1.000  H
  H8       1.0000 0.55900  0.33900  0.38800  Biso   1.000  H
  H9       1.0000 0.81900  0.76800  0.91000  Biso   1.000  H
  H10      1.0000 0.31900  0.26800  0.91000  Biso   1.000  H
  H11      1.0000 0.81900  0.23200  0.41000  Biso   1.000  H
  H12      1.0000 0.31900  0.73200  0.41000  Biso   1.000  H
  H13      1.0000 0.18100  0.23200  0.09000  Biso   1.000  H
  H14      1.0000 0.68100  0.73200  0.09000  Biso   1.000  H
  H15      1.0000 0.18100  0.76800  0.59000  Biso   1.000  H
  H16      1.0000 0.68100  0.26800  0.59000  Biso   1.000  H
  H17      1.0000 0.71900  0.10500  0.82400  Biso   1.000  H
  H18      1.0000 0.21900  0.60500  0.82400  Biso   1.000  H
  H19      1.0000 0.71900  0.89500  0.32400  Biso   1.000  H
  H20      1.0000 0.21900  0.39500  0.32400  Biso   1.000  H
  H21      1.0000 0.28100  0.89500  0.17600  Biso   1.000  H
  H22      1.0000 0.78100  0.39500  0.17600  Biso   1.000  H
  H23      1.0000 0.28100  0.10500  0.67600  Biso   1.000  H
  H24      1.0000 0.78100  0.60500  0.67600  Biso   1.000  H
  H25      1.0000 0.85000  0.16300  0.02600  Biso   1.000  H
  H26      1.0000 0.35000  0.66300  0.02600  Biso   1.000  H
  H27      1.0000 0.85000  0.83700  0.52600  Biso   1.000  H
  H28      1.0000 0.35000  0.33700  0.52600  Biso   1.000  H
  H29      1.0000 0.15000  0.83700  0.97400  Biso   1.000  H
  H30      1.0000 0.65000  0.33700  0.97400  Biso   1.000  H
  H31      1.0000 0.15000  0.16300  0.47400  Biso   1.000  H
  H32      1.0000 0.65000  0.66300  0.47400  Biso   1.000  H
  H33      1.0000 0.55900  0.88700  0.47800  Biso   1.000  H
  H34      1.0000 0.05900  0.38700  0.47800  Biso   1.000  H
  H35      1.0000 0.55900  0.11300  0.97800  Biso   1.000  H
  H36      1.0000 0.05900  0.61300  0.97800  Biso   1.000  H
  H37      1.0000 0.44100  0.11300  0.52200  Biso   1.000  H
  H38      1.0000 0.94100  0.61300  0.52200  Biso   1.000  H
  H39      1.0000 0.44100  0.88700  0.02200  Biso   1.000  H
  H40      1.0000 0.94100  0.38700  0.02200  Biso   1.000  H
  H41      1.0000 0.45400  0.90400  0.55700  Biso   1.000  H
  H42      1.0000 0.95400  0.40400  0.55700  Biso   1.000  H
  H43      1.0000 0.45400  0.09600  0.05700  Biso   1.000  H
  H44      1.0000 0.95400  0.59600  0.05700  Biso   1.000  H
  H45      1.0000 0.54600  0.09600  0.44300  Biso   1.000  H
  H46      1.0000 0.04600  0.59600  0.44300  Biso   1.000  H
  H47      1.0000 0.54600  0.90400  0.94300  Biso   1.000  H
  H48      1.0000 0.04600  0.40400  0.94300  Biso   1.000  H
