data_image0
_cell_length_a       6.9874
_cell_length_b       11.7096
_cell_length_c       11.8247
_cell_angle_alpha    112.339
_cell_angle_beta     96.728
_cell_angle_gamma    102.93

_symmetry_space_group_name_H-M    "P 1"
_symmetry_int_tables_number       1

loop_
  _symmetry_equiv_pos_as_xyz
  'x, y, z'

loop_
  _atom_site_label
  _atom_site_occupancy
  _atom_site_fract_x
  _atom_site_fract_y
  _atom_site_fract_z
  _atom_site_thermal_displace_type
  _atom_site_B_iso_or_equiv
  _atom_site_type_symbol
  Cu1      1.0000 0.46837  0.46261  0.86988  Biso   1.000  Cu
  Cu2      1.0000 0.53163  0.53739  0.13012  Biso   1.000  Cu
  Cl1      1.0000 0.31858  0.61274  0.02872  Biso   1.000  Cl
  Cl2      1.0000 0.68142  0.38726  0.97128  Biso   1.000  Cl
  N1       1.0000 0.22230  0.33660  0.74130  Biso   1.000  N
  N2       1.0000 0.77770  0.66340  0.25870  Biso   1.000  N
  C1       1.0000 0.03670  0.34080  0.75970  Biso   1.000  C
  C2       1.0000 0.96330  0.65920  0.24030  Biso   1.000  C
  H1       1.0000 0.02470  0.39720  0.83720  Biso   1.000  H
  H2       1.0000 0.97530  0.60280  0.16280  Biso   1.000  H
  C3       1.0000 0.86420  0.26470  0.66810  Biso   1.000  C
  C4       1.0000 0.13580  0.73530  0.33190  Biso   1.000  C
  H3       1.0000 0.73870  0.27050  0.68430  Biso   1.000  H
  H4       1.0000 0.26130  0.72950  0.31570  Biso   1.000  H
  C5       1.0000 0.23340  0.25160  0.62950  Biso   1.000  C
  C6       1.0000 0.76660  0.74840  0.37050  Biso   1.000  C
  H5       1.0000 0.36010  0.24610  0.61600  Biso   1.000  H
  H6       1.0000 0.63990  0.75390  0.38400  Biso   1.000  H
  C7       1.0000 0.06770  0.17200  0.53380  Biso   1.000  C
  C8       1.0000 0.93230  0.82800  0.46620  Biso   1.000  C
  H7       1.0000 0.08260  0.11400  0.45810  Biso   1.000  H
  H8       1.0000 0.91740  0.88600  0.54190  Biso   1.000  H
  C9       1.0000 0.87770  0.18020  0.55280  Biso   1.000  C
  C10      1.0000 0.12230  0.81980  0.44720  Biso   1.000  C
  C11      1.0000 0.69100  0.10550  0.44980  Biso   1.000  C
  C12      1.0000 0.30900  0.89450  0.55020  Biso   1.000  C
  O1       1.0000 0.52780  0.11960  0.45920  Biso   1.000  O
  O2       1.0000 0.47220  0.88040  0.54080  Biso   1.000  O
  O3       1.0000 0.72970  0.02413  0.34799  Biso   1.000  O
  O4       1.0000 0.27030  0.97587  0.65201  Biso   1.000  O
  C13      1.0000 0.56820  0.95450  0.23630  Biso   1.000  C
  C14      1.0000 0.43180  0.04550  0.76370  Biso   1.000  C
  H9       1.0000 0.49130  0.01090  0.22630  Biso   1.000  H
  H10      1.0000 0.50870  0.98910  0.77370  Biso   1.000  H
  H11      1.0000 0.47790  0.88200  0.24230  Biso   1.000  H
  H12      1.0000 0.52210  0.11800  0.75770  Biso   1.000  H
  C15      1.0000 0.66330  0.90820  0.12770  Biso   1.000  C
  C16      1.0000 0.33670  0.09180  0.87230  Biso   1.000  C
  H13      1.0000 0.74170  0.85310  0.13910  Biso   1.000  H
  H14      1.0000 0.25830  0.14690  0.86090  Biso   1.000  H
  H15      1.0000 0.55980  0.85810  0.05110  Biso   1.000  H
  H16      1.0000 0.44020  0.14190  0.94890  Biso   1.000  H
  O5       1.0000 0.79380  0.01898  0.11830  Biso   1.000  O
  O6       1.0000 0.20620  0.98102  0.88170  Biso   1.000  O
  C17      1.0000 0.99150  0.04820  0.16550  Biso   1.000  C
  C18      1.0000 0.00850  0.95180  0.83450  Biso   1.000  C
  O7       1.0000 0.06950  0.98670  0.20670  Biso   1.000  O
  O8       1.0000 0.93050  0.01330  0.79330  Biso   1.000  O
  C19      1.0000 0.10690  0.16960  0.16020  Biso   1.000  C
  C20      1.0000 0.89310  0.83040  0.83980  Biso   1.000  C
  C21      1.0000 0.02680  0.23100  0.09520  Biso   1.000  C
  C22      1.0000 0.97320  0.76900  0.90480  Biso   1.000  C
  H17      1.0000 0.89280  0.19790  0.05170  Biso   1.000  H
  H18      1.0000 0.10720  0.80210  0.94830  Biso   1.000  H
  C23      1.0000 0.14860  0.34220  0.09600  Biso   1.000  C
  C24      1.0000 0.85140  0.65780  0.90400  Biso   1.000  C
  H19      1.0000 0.09300  0.38250  0.05200  Biso   1.000  H
  H20      1.0000 0.90700  0.61750  0.94800  Biso   1.000  H
  C25      1.0000 0.30760  0.22570  0.22620  Biso   1.000  C
  C26      1.0000 0.69240  0.77430  0.77380  Biso   1.000  C
  H21      1.0000 0.36590  0.18870  0.27280  Biso   1.000  H
  H22      1.0000 0.63410  0.81130  0.72720  Biso   1.000  H
  C27      1.0000 0.41740  0.33550  0.22160  Biso   1.000  C
  C28      1.0000 0.58260  0.66450  0.77840  Biso   1.000  C
  H23      1.0000 0.55120  0.37110  0.26550  Biso   1.000  H
  H24      1.0000 0.44880  0.62890  0.73450  Biso   1.000  H
  N3       1.0000 0.34300  0.39510  0.15710  Biso   1.000  N
  N4       1.0000 0.65700  0.60490  0.84290  Biso   1.000  N
  O9       1.0000 0.21430  0.62230  0.55900  Biso   1.000  O
  O10      1.0000 0.78570  0.37770  0.44100  Biso   1.000  O
  C29      1.0000 0.03620  0.58340  0.60240  Biso   1.000  C
  C30      1.0000 0.96380  0.41660  0.39760  Biso   1.000  C
  H25      1.0000 0.01440  0.66270  0.65810  Biso   1.000  H
  H26      1.0000 0.98560  0.33730  0.34190  Biso   1.000  H
  H27      1.0000 0.07320  0.54140  0.65470  Biso   1.000  H
  H28      1.0000 0.92680  0.45860  0.34530  Biso   1.000  H
  C31      1.0000 0.16090  0.49860  0.47770  Biso   1.000  C
  C32      1.0000 0.83910  0.50140  0.52230  Biso   1.000  C
  H29      1.0000 0.19910  0.45340  0.52630  Biso   1.000  H
  H30      1.0000 0.80090  0.54660  0.47370  Biso   1.000  H
  H31      1.0000 0.25140  0.49440  0.42100  Biso   1.000  H
  H32      1.0000 0.74860  0.50560  0.57900  Biso   1.000  H
