data_image0
_cell_length_a       8.1396
_cell_length_b       13.4112
_cell_length_c       11.0248
_cell_angle_alpha    90
_cell_angle_beta     90
_cell_angle_gamma    90

_symmetry_space_group_name_H-M    "P 1"
_symmetry_int_tables_number       1

loop_
  _symmetry_equiv_pos_as_xyz
  'x, y, z'

loop_
  _atom_site_label
  _atom_site_occupancy
  _atom_site_fract_x
  _atom_site_fract_y
  _atom_site_fract_z
  _atom_site_thermal_displace_type
  _atom_site_B_iso_or_equiv
  _atom_site_type_symbol
  Cu1      1.0000 0.26659  0.25000  0.93398  Biso   1.000  Cu
  Cu2      1.0000 0.23341  0.75000  0.43398  Biso   1.000  Cu
  Cu3      1.0000 0.76659  0.25000  0.56602  Biso   1.000  Cu
  Cu4      1.0000 0.73341  0.75000  0.06602  Biso   1.000  Cu
  S1       1.0000 0.98108  0.25000  0.96381  Biso   1.000  S
  S2       1.0000 0.51892  0.75000  0.46381  Biso   1.000  S
  S3       1.0000 0.48108  0.25000  0.53619  Biso   1.000  S
  S4       1.0000 0.01892  0.75000  0.03619  Biso   1.000  S
  O1       1.0000 0.63310  0.25000  0.23980  Biso   1.000  O
  O2       1.0000 0.86690  0.75000  0.73980  Biso   1.000  O
  O3       1.0000 0.13310  0.25000  0.26020  Biso   1.000  O
  O4       1.0000 0.36690  0.75000  0.76020  Biso   1.000  O
  N1       1.0000 0.34098  0.13803  0.04818  Biso   1.000  N
  N2       1.0000 0.15902  0.86197  0.54818  Biso   1.000  N
  N3       1.0000 0.84098  0.36197  0.45182  Biso   1.000  N
  N4       1.0000 0.65902  0.63803  0.95182  Biso   1.000  N
  N5       1.0000 0.65902  0.86197  0.95182  Biso   1.000  N
  N6       1.0000 0.84098  0.13803  0.45182  Biso   1.000  N
  N7       1.0000 0.15902  0.63803  0.54818  Biso   1.000  N
  N8       1.0000 0.34098  0.36197  0.04818  Biso   1.000  N
  C1       1.0000 0.50810  0.25000  0.17880  Biso   1.000  C
  C2       1.0000 0.99190  0.75000  0.67880  Biso   1.000  C
  C3       1.0000 0.00810  0.25000  0.32120  Biso   1.000  C
  C4       1.0000 0.49190  0.75000  0.82120  Biso   1.000  C
  C5       1.0000 0.43530  0.15011  0.14699  Biso   1.000  C
  C6       1.0000 0.06470  0.84989  0.64699  Biso   1.000  C
  C7       1.0000 0.93530  0.34989  0.35301  Biso   1.000  C
  C8       1.0000 0.56470  0.65011  0.85301  Biso   1.000  C
  C9       1.0000 0.56470  0.84989  0.85301  Biso   1.000  C
  C10      1.0000 0.93530  0.15011  0.35301  Biso   1.000  C
  C11      1.0000 0.06470  0.65011  0.64699  Biso   1.000  C
  C12      1.0000 0.43530  0.34989  0.14699  Biso   1.000  C
  C13      1.0000 0.28650  0.04534  0.02408  Biso   1.000  C
  C14      1.0000 0.21350  0.95466  0.52408  Biso   1.000  C
  C15      1.0000 0.78650  0.45466  0.47592  Biso   1.000  C
  C16      1.0000 0.71350  0.54534  0.97592  Biso   1.000  C
  C17      1.0000 0.71350  0.95466  0.97592  Biso   1.000  C
  C18      1.0000 0.78650  0.04534  0.47592  Biso   1.000  C
  C19      1.0000 0.21350  0.54534  0.52408  Biso   1.000  C
  C20      1.0000 0.28650  0.45466  0.02408  Biso   1.000  C
  H1       1.0000 0.22270  0.03580  0.95510  Biso   1.000  H
  H2       1.0000 0.27730  0.96420  0.45510  Biso   1.000  H
  H3       1.0000 0.72270  0.46420  0.54490  Biso   1.000  H
  H4       1.0000 0.77730  0.53580  0.04490  Biso   1.000  H
  H5       1.0000 0.77730  0.96420  0.04490  Biso   1.000  H
  H6       1.0000 0.72270  0.03580  0.54490  Biso   1.000  H
  H7       1.0000 0.27730  0.53580  0.45510  Biso   1.000  H
  H8       1.0000 0.22270  0.46420  0.95510  Biso   1.000  H
  C21      1.0000 0.41460  0.97687  0.19880  Biso   1.000  C
  C22      1.0000 0.08540  0.02313  0.69880  Biso   1.000  C
  C23      1.0000 0.91460  0.52313  0.30120  Biso   1.000  C
  C24      1.0000 0.58540  0.47687  0.80120  Biso   1.000  C
  C25      1.0000 0.58540  0.02313  0.80120  Biso   1.000  C
  C26      1.0000 0.91460  0.97687  0.30120  Biso   1.000  C
  C27      1.0000 0.08540  0.47687  0.69880  Biso   1.000  C
  C28      1.0000 0.41460  0.52313  0.19880  Biso   1.000  C
  H9       1.0000 0.43820  0.92350  0.24970  Biso   1.000  H
  H10      1.0000 0.06180  0.07650  0.74970  Biso   1.000  H
  H11      1.0000 0.93820  0.57650  0.25030  Biso   1.000  H
  H12      1.0000 0.56180  0.42350  0.75030  Biso   1.000  H
  H13      1.0000 0.56180  0.07650  0.75030  Biso   1.000  H
  H14      1.0000 0.93820  0.92350  0.25030  Biso   1.000  H
  H15      1.0000 0.06180  0.42350  0.74970  Biso   1.000  H
  H16      1.0000 0.43820  0.57650  0.24970  Biso   1.000  H
  C29      1.0000 0.47360  0.07139  0.22443  Biso   1.000  C
  C30      1.0000 0.02640  0.92861  0.72443  Biso   1.000  C
  C31      1.0000 0.97360  0.42861  0.27557  Biso   1.000  C
  C32      1.0000 0.52640  0.57139  0.77557  Biso   1.000  C
  C33      1.0000 0.52640  0.92861  0.77557  Biso   1.000  C
  C34      1.0000 0.97360  0.07139  0.27557  Biso   1.000  C
  C35      1.0000 0.02640  0.57139  0.72443  Biso   1.000  C
  C36      1.0000 0.47360  0.42861  0.22443  Biso   1.000  C
  H17      1.0000 0.53820  0.08220  0.29270  Biso   1.000  H
  H18      1.0000 0.96180  0.91780  0.79270  Biso   1.000  H
  H19      1.0000 0.03820  0.41780  0.20730  Biso   1.000  H
  H20      1.0000 0.46180  0.58220  0.70730  Biso   1.000  H
  H21      1.0000 0.46180  0.91780  0.70730  Biso   1.000  H
  H22      1.0000 0.03820  0.08220  0.20730  Biso   1.000  H
  H23      1.0000 0.96180  0.58220  0.79270  Biso   1.000  H
  H24      1.0000 0.53820  0.41780  0.29270  Biso   1.000  H
  C37      1.0000 0.32030  0.96356  0.09620  Biso   1.000  C
  C38      1.0000 0.17970  0.03644  0.59620  Biso   1.000  C
  C39      1.0000 0.82030  0.53644  0.40380  Biso   1.000  C
  C40      1.0000 0.67970  0.46356  0.90380  Biso   1.000  C
  C41      1.0000 0.67970  0.03644  0.90380  Biso   1.000  C
  C42      1.0000 0.82030  0.96356  0.40380  Biso   1.000  C
  C43      1.0000 0.17970  0.46356  0.59620  Biso   1.000  C
  C44      1.0000 0.32030  0.53644  0.09620  Biso   1.000  C
  H25      1.0000 0.28030  0.90080  0.07580  Biso   1.000  H
  H26      1.0000 0.21970  0.09920  0.57580  Biso   1.000  H
  H27      1.0000 0.78030  0.59920  0.42420  Biso   1.000  H
  H28      1.0000 0.71970  0.40080  0.92420  Biso   1.000  H
  H29      1.0000 0.71970  0.09920  0.92420  Biso   1.000  H
  H30      1.0000 0.78030  0.90080  0.42420  Biso   1.000  H
  H31      1.0000 0.21970  0.40080  0.57580  Biso   1.000  H
  H32      1.0000 0.28030  0.59920  0.07580  Biso   1.000  H
  C45      1.0000 0.90320  0.25000  0.82480  Biso   1.000  C
  C46      1.0000 0.59680  0.75000  0.32480  Biso   1.000  C
  C47      1.0000 0.40320  0.25000  0.67520  Biso   1.000  C
  C48      1.0000 0.09680  0.75000  0.17520  Biso   1.000  C
  N9       1.0000 0.84670  0.25000  0.72891  Biso   1.000  N
  N10      1.0000 0.65330  0.75000  0.22891  Biso   1.000  N
  N11      1.0000 0.34670  0.25000  0.77109  Biso   1.000  N
  N12      1.0000 0.15330  0.75000  0.27109  Biso   1.000  N
