data_image0
_cell_length_a       14.3219
_cell_length_b       5.711
_cell_length_c       15.0857
_cell_angle_alpha    90
_cell_angle_beta     109.377
_cell_angle_gamma    90

_symmetry_space_group_name_H-M    "P 1"
_symmetry_int_tables_number       1

loop_
  _symmetry_equiv_pos_as_xyz
  'x, y, z'

loop_
  _atom_site_label
  _atom_site_occupancy
  _atom_site_fract_x
  _atom_site_fract_y
  _atom_site_fract_z
  _atom_site_thermal_displace_type
  _atom_site_B_iso_or_equiv
  _atom_site_type_symbol
  N1       1.0000 0.47690  0.93840  0.19690  Biso   1.000  N
  N2       1.0000 0.02310  0.43840  0.30310  Biso   1.000  N
  N3       1.0000 0.52310  0.06160  0.80310  Biso   1.000  N
  N4       1.0000 0.97690  0.56160  0.69690  Biso   1.000  N
  Cu1      1.0000 0.49853  0.25670  0.23947  Biso   1.000  Cu
  Cu2      1.0000 0.00147  0.75670  0.26053  Biso   1.000  Cu
  Cu3      1.0000 0.50147  0.74330  0.76053  Biso   1.000  Cu
  Cu4      1.0000 0.99853  0.24330  0.73947  Biso   1.000  Cu
  S1       1.0000 0.43050  0.49870  0.10913  Biso   1.000  S
  S2       1.0000 0.06950  0.99870  0.39087  Biso   1.000  S
  S3       1.0000 0.56950  0.50130  0.89087  Biso   1.000  S
  S4       1.0000 0.93050  0.00130  0.60913  Biso   1.000  S
  N5       1.0000 0.44690  0.40240  0.33950  Biso   1.000  N
  N6       1.0000 0.05310  0.90240  0.16050  Biso   1.000  N
  N7       1.0000 0.55310  0.59760  0.66050  Biso   1.000  N
  N8       1.0000 0.94690  0.09760  0.83950  Biso   1.000  N
  O1       1.0000 0.61300  0.87560  0.43050  Biso   1.000  O
  O2       1.0000 0.88700  0.37560  0.06950  Biso   1.000  O
  O3       1.0000 0.38700  0.12440  0.56950  Biso   1.000  O
  O4       1.0000 0.11300  0.62440  0.93050  Biso   1.000  O
  N9       1.0000 0.63970  0.33860  0.31940  Biso   1.000  N
  N10      1.0000 0.86030  0.83860  0.18060  Biso   1.000  N
  N11      1.0000 0.36030  0.66140  0.68060  Biso   1.000  N
  N12      1.0000 0.13970  0.16140  0.81940  Biso   1.000  N
  C1       1.0000 0.48170  0.60910  0.37820  Biso   1.000  C
  C2       1.0000 0.01830  0.10910  0.12180  Biso   1.000  C
  C3       1.0000 0.51830  0.39090  0.62180  Biso   1.000  C
  C4       1.0000 0.98170  0.89090  0.87820  Biso   1.000  C
  C5       1.0000 0.29130  0.48300  0.36360  Biso   1.000  C
  C6       1.0000 0.20870  0.98300  0.13640  Biso   1.000  C
  C7       1.0000 0.70870  0.51700  0.63640  Biso   1.000  C
  C8       1.0000 0.79130  0.01700  0.86360  Biso   1.000  C
  H1       1.0000 0.22820  0.43180  0.35880  Biso   1.000  H
  H2       1.0000 0.27180  0.93180  0.14120  Biso   1.000  H
  H3       1.0000 0.77180  0.56820  0.64120  Biso   1.000  H
  H4       1.0000 0.72820  0.06820  0.85880  Biso   1.000  H
  C9       1.0000 0.83640  0.43300  0.42560  Biso   1.000  C
  C10      1.0000 0.66360  0.93300  0.07440  Biso   1.000  C
  C11      1.0000 0.16360  0.56700  0.57440  Biso   1.000  C
  C12      1.0000 0.33640  0.06700  0.92560  Biso   1.000  C
  H5       1.0000 0.90190  0.46560  0.46080  Biso   1.000  H
  H6       1.0000 0.59810  0.96560  0.03920  Biso   1.000  H
  H7       1.0000 0.09810  0.53440  0.53920  Biso   1.000  H
  H8       1.0000 0.40190  0.03440  0.96080  Biso   1.000  H
  C13      1.0000 0.58750  0.68320  0.39580  Biso   1.000  C
  C14      1.0000 0.91250  0.18320  0.10420  Biso   1.000  C
  C15      1.0000 0.41250  0.31680  0.60420  Biso   1.000  C
  C16      1.0000 0.08750  0.81680  0.89580  Biso   1.000  C
  C17      1.0000 0.42340  0.76500  0.41200  Biso   1.000  C
  C18      1.0000 0.07660  0.26500  0.08800  Biso   1.000  C
  C19      1.0000 0.57660  0.23500  0.58800  Biso   1.000  C
  C20      1.0000 0.92340  0.73500  0.91200  Biso   1.000  C
  H9       1.0000 0.44960  0.90640  0.43950  Biso   1.000  H
  H10      1.0000 0.05040  0.40640  0.06050  Biso   1.000  H
  H11      1.0000 0.55040  0.09360  0.56050  Biso   1.000  H
  H12      1.0000 0.94960  0.59360  0.93950  Biso   1.000  H
  C21      1.0000 0.32730  0.70220  0.40340  Biso   1.000  C
  C22      1.0000 0.17270  0.20220  0.09660  Biso   1.000  C
  C23      1.0000 0.67270  0.29780  0.59660  Biso   1.000  C
  C24      1.0000 0.82730  0.79780  0.90340  Biso   1.000  C
  H13      1.0000 0.28730  0.80280  0.42350  Biso   1.000  H
  H14      1.0000 0.21270  0.30280  0.07650  Biso   1.000  H
  H15      1.0000 0.71270  0.19720  0.57650  Biso   1.000  H
  H16      1.0000 0.78730  0.69720  0.92350  Biso   1.000  H
  C25      1.0000 0.66450  0.52900  0.37920  Biso   1.000  C
  C26      1.0000 0.83550  0.02900  0.12080  Biso   1.000  C
  C27      1.0000 0.33550  0.47100  0.62080  Biso   1.000  C
  C28      1.0000 0.16450  0.97100  0.87920  Biso   1.000  C
  C29      1.0000 0.35260  0.35030  0.33270  Biso   1.000  C
  C30      1.0000 0.14740  0.85030  0.16730  Biso   1.000  C
  C31      1.0000 0.64740  0.64970  0.66730  Biso   1.000  C
  C32      1.0000 0.85260  0.14970  0.83270  Biso   1.000  C
  H17      1.0000 0.32730  0.20920  0.30390  Biso   1.000  H
  H18      1.0000 0.17270  0.70920  0.19610  Biso   1.000  H
  H19      1.0000 0.67270  0.79080  0.69610  Biso   1.000  H
  H20      1.0000 0.82730  0.29080  0.80390  Biso   1.000  H
  C33      1.0000 0.76260  0.57720  0.42950  Biso   1.000  C
  C34      1.0000 0.73740  0.07720  0.07050  Biso   1.000  C
  C35      1.0000 0.23740  0.42280  0.57050  Biso   1.000  C
  C36      1.0000 0.26260  0.92280  0.92950  Biso   1.000  C
  H21      1.0000 0.77820  0.71100  0.46660  Biso   1.000  H
  H22      1.0000 0.72180  0.21100  0.03340  Biso   1.000  H
  H23      1.0000 0.22180  0.28900  0.53340  Biso   1.000  H
  H24      1.0000 0.27820  0.78900  0.96660  Biso   1.000  H
  C37      1.0000 0.71480  0.20210  0.31730  Biso   1.000  C
  C38      1.0000 0.78520  0.70210  0.18270  Biso   1.000  C
  C39      1.0000 0.28520  0.79790  0.68270  Biso   1.000  C
  C40      1.0000 0.21480  0.29790  0.81730  Biso   1.000  C
  H25      1.0000 0.69880  0.07280  0.27770  Biso   1.000  H
  H26      1.0000 0.80120  0.57280  0.22230  Biso   1.000  H
  H27      1.0000 0.30120  0.92720  0.72230  Biso   1.000  H
  H28      1.0000 0.19880  0.42720  0.77770  Biso   1.000  H
  C41      1.0000 0.81270  0.23300  0.36760  Biso   1.000  C
  C42      1.0000 0.68730  0.73300  0.13240  Biso   1.000  C
  C43      1.0000 0.18730  0.76700  0.63240  Biso   1.000  C
  C44      1.0000 0.31270  0.26700  0.86760  Biso   1.000  C
  H29      1.0000 0.86100  0.12880  0.36370  Biso   1.000  H
  H30      1.0000 0.63900  0.62880  0.13630  Biso   1.000  H
  H31      1.0000 0.13900  0.87120  0.63630  Biso   1.000  H
  H32      1.0000 0.36100  0.37120  0.86370  Biso   1.000  H
  C45      1.0000 0.45700  0.75850  0.16070  Biso   1.000  C
  C46      1.0000 0.04300  0.25850  0.33930  Biso   1.000  C
  C47      1.0000 0.54300  0.24150  0.83930  Biso   1.000  C
  C48      1.0000 0.95700  0.74150  0.66070  Biso   1.000  C
