data_image0
_cell_length_a       9.285
_cell_length_b       4.1502
_cell_length_c       22.096
_cell_angle_alpha    90
_cell_angle_beta     97.38
_cell_angle_gamma    90

_symmetry_space_group_name_H-M    "P 1"
_symmetry_int_tables_number       1

loop_
  _symmetry_equiv_pos_as_xyz
  'x, y, z'

loop_
  _atom_site_label
  _atom_site_occupancy
  _atom_site_fract_x
  _atom_site_fract_y
  _atom_site_fract_z
  _atom_site_thermal_displace_type
  _atom_site_B_iso_or_equiv
  _atom_site_type_symbol
  I1       1.0000 0.07520  0.17441  0.16977  Biso   1.000  I
  I2       1.0000 0.07520  0.32559  0.66977  Biso   1.000  I
  I3       1.0000 0.92480  0.82559  0.83023  Biso   1.000  I
  I4       1.0000 0.92480  0.67441  0.33023  Biso   1.000  I
  Cu1      1.0000 0.06232  0.18090  0.28898  Biso   1.000  Cu
  Cu2      1.0000 0.06232  0.31910  0.78898  Biso   1.000  Cu
  Cu3      1.0000 0.93768  0.81910  0.71102  Biso   1.000  Cu
  Cu4      1.0000 0.93768  0.68090  0.21102  Biso   1.000  Cu
  N1       1.0000 0.27500  0.17700  0.33130  Biso   1.000  N
  N2       1.0000 0.27500  0.32300  0.83130  Biso   1.000  N
  N3       1.0000 0.72500  0.82300  0.66870  Biso   1.000  N
  N4       1.0000 0.72500  0.67700  0.16870  Biso   1.000  N
  C1       1.0000 0.31140  0.30600  0.38520  Biso   1.000  C
  C2       1.0000 0.31140  0.19400  0.88520  Biso   1.000  C
  C3       1.0000 0.68860  0.69400  0.61480  Biso   1.000  C
  C4       1.0000 0.68860  0.80600  0.11480  Biso   1.000  C
  H1       1.0000 0.23960  0.40740  0.40390  Biso   1.000  H
  H2       1.0000 0.23960  0.09260  0.90390  Biso   1.000  H
  H3       1.0000 0.76040  0.59260  0.59610  Biso   1.000  H
  H4       1.0000 0.76040  0.90740  0.09610  Biso   1.000  H
  C5       1.0000 0.45260  0.29800  0.41620  Biso   1.000  C
  C6       1.0000 0.45260  0.20200  0.91620  Biso   1.000  C
  C7       1.0000 0.54740  0.70200  0.58380  Biso   1.000  C
  C8       1.0000 0.54740  0.79800  0.08380  Biso   1.000  C
  C9       1.0000 0.55730  0.15400  0.38800  Biso   1.000  C
  C10      1.0000 0.55730  0.34600  0.88800  Biso   1.000  C
  C11      1.0000 0.44270  0.84600  0.61200  Biso   1.000  C
  C12      1.0000 0.44270  0.65400  0.11200  Biso   1.000  C
  H5       1.0000 0.65300  0.14920  0.40660  Biso   1.000  H
  H6       1.0000 0.65300  0.35080  0.90660  Biso   1.000  H
  H7       1.0000 0.34700  0.85080  0.59340  Biso   1.000  H
  H8       1.0000 0.34700  0.64920  0.09340  Biso   1.000  H
  C13      1.0000 0.51870  0.01000  0.33010  Biso   1.000  C
  C14      1.0000 0.51870  0.49000  0.83010  Biso   1.000  C
  C15      1.0000 0.48130  0.99000  0.66990  Biso   1.000  C
  C16      1.0000 0.48130  0.51000  0.16990  Biso   1.000  C
  H9       1.0000 0.58780  0.90960  0.30970  Biso   1.000  H
  H10      1.0000 0.58780  0.59040  0.80970  Biso   1.000  H
  H11      1.0000 0.41220  0.09040  0.69030  Biso   1.000  H
  H12      1.0000 0.41220  0.40960  0.19030  Biso   1.000  H
  C17      1.0000 0.37620  0.02500  0.30530  Biso   1.000  C
  C18      1.0000 0.37620  0.47500  0.80530  Biso   1.000  C
  C19      1.0000 0.62380  0.97500  0.69470  Biso   1.000  C
  C20      1.0000 0.62380  0.52500  0.19470  Biso   1.000  C
  H13      1.0000 0.34890  0.92360  0.26810  Biso   1.000  H
  H14      1.0000 0.34890  0.57640  0.76810  Biso   1.000  H
  H15      1.0000 0.65110  0.07640  0.73190  Biso   1.000  H
  H16      1.0000 0.65110  0.42360  0.23190  Biso   1.000  H
  C21      1.0000 0.48580  0.44100  0.47490  Biso   1.000  C
  C22      1.0000 0.48580  0.05900  0.97490  Biso   1.000  C
  C23      1.0000 0.51420  0.55900  0.52510  Biso   1.000  C
  C24      1.0000 0.51420  0.94100  0.02510  Biso   1.000  C
  O1       1.0000 0.88900  0.11500  0.50010  Biso   1.000  O
  O2       1.0000 0.88900  0.38500  0.00010  Biso   1.000  O
  O3       1.0000 0.11100  0.88500  0.49990  Biso   1.000  O
  O4       1.0000 0.11100  0.61500  0.99990  Biso   1.000  O
