data_image0
_cell_length_a       7.512
_cell_length_b       8.015
_cell_length_c       8.886
_cell_angle_alpha    111.88
_cell_angle_beta     101.38
_cell_angle_gamma    106.57

_symmetry_space_group_name_H-M    "P 1"
_symmetry_int_tables_number       1

loop_
  _symmetry_equiv_pos_as_xyz
  'x, y, z'

loop_
  _atom_site_label
  _atom_site_occupancy
  _atom_site_fract_x
  _atom_site_fract_y
  _atom_site_fract_z
  _atom_site_thermal_displace_type
  _atom_site_B_iso_or_equiv
  _atom_site_type_symbol
  I1       1.0000 0.66521  0.45728  0.71603  Biso   1.000  I
  I2       1.0000 0.33479  0.54272  0.28397  Biso   1.000  I
  Cu1      1.0000 0.68233  0.56643  0.46985  Biso   1.000  Cu
  Cu2      1.0000 0.31767  0.43357  0.53015  Biso   1.000  Cu
  O1       1.0000 0.26430  0.02980  0.46140  Biso   1.000  O
  O2       1.0000 0.73570  0.97020  0.53860  Biso   1.000  O
  H1       1.0000 0.37280  0.12030  0.53660  Biso   1.000  H
  H2       1.0000 0.62720  0.87970  0.46340  Biso   1.000  H
  N1       1.0000 0.74660  0.36410  0.29250  Biso   1.000  N
  N2       1.0000 0.25340  0.63590  0.70750  Biso   1.000  N
  N3       1.0000 0.16490  0.13530  0.41030  Biso   1.000  N
  N4       1.0000 0.83510  0.86470  0.58970  Biso   1.000  N
  C1       1.0000 0.87880  0.11510  0.22650  Biso   1.000  C
  C2       1.0000 0.12120  0.88490  0.77350  Biso   1.000  C
  C3       1.0000 0.84580  0.26840  0.34210  Biso   1.000  C
  C4       1.0000 0.15420  0.73160  0.65790  Biso   1.000  C
  H3       1.0000 0.89650  0.30630  0.46180  Biso   1.000  H
  H4       1.0000 0.10350  0.69370  0.53820  Biso   1.000  H
  C5       1.0000 0.68050  0.31200  0.12250  Biso   1.000  C
  C6       1.0000 0.31950  0.68800  0.87750  Biso   1.000  C
  H5       1.0000 0.61600  0.38350  0.08620  Biso   1.000  H
  H6       1.0000 0.38400  0.61650  0.91380  Biso   1.000  H
  C7       1.0000 0.70200  0.15920  0.99810  Biso   1.000  C
  C8       1.0000 0.29800  0.84080  0.00190  Biso   1.000  C
  H7       1.0000 0.65180  0.12590  0.87940  Biso   1.000  H
  H8       1.0000 0.34820  0.87410  0.12060  Biso   1.000  H
  C9       1.0000 0.79840  0.05580  0.05080  Biso   1.000  C
  C10      1.0000 0.20160  0.94420  0.94920  Biso   1.000  C
  H9       1.0000 0.80940  0.94620  0.96820  Biso   1.000  H
  H10      1.0000 0.19060  0.05380  0.03180  Biso   1.000  H
  C11      1.0000 0.99830  0.02000  0.29060  Biso   1.000  C
  C12      1.0000 0.00170  0.98000  0.70940  Biso   1.000  C
  C13      1.0000 0.91810  0.80100  0.21100  Biso   1.000  C
  C14      1.0000 0.08190  0.19900  0.78900  Biso   1.000  C
  H11      1.0000 0.02390  0.75930  0.24340  Biso   1.000  H
  H12      1.0000 0.97610  0.24070  0.75660  Biso   1.000  H
  H13      1.0000 0.86600  0.74640  0.08510  Biso   1.000  H
  H14      1.0000 0.13400  0.25360  0.91490  Biso   1.000  H
  H15      1.0000 0.81190  0.75420  0.25230  Biso   1.000  H
  H16      1.0000 0.18810  0.24580  0.74770  Biso   1.000  H
