data_image0
_cell_length_a       22.342
_cell_length_b       6.479
_cell_length_c       11.277
_cell_angle_alpha    90
_cell_angle_beta     106.363
_cell_angle_gamma    90

_symmetry_space_group_name_H-M    "P 1"
_symmetry_int_tables_number       1

loop_
  _symmetry_equiv_pos_as_xyz
  'x, y, z'

loop_
  _atom_site_label
  _atom_site_occupancy
  _atom_site_fract_x
  _atom_site_fract_y
  _atom_site_fract_z
  _atom_site_thermal_displace_type
  _atom_site_B_iso_or_equiv
  _atom_site_type_symbol
  I1       1.0000 0.10394  0.00000  0.90299  Biso   1.000  I
  I2       1.0000 0.89606  0.00000  0.09701  Biso   1.000  I
  I3       1.0000 0.60394  0.50000  0.90299  Biso   1.000  I
  I4       1.0000 0.39606  0.50000  0.09701  Biso   1.000  I
  I5       1.0000 0.28882  0.00000  0.89840  Biso   1.000  I
  I6       1.0000 0.71118  0.00000  0.10160  Biso   1.000  I
  I7       1.0000 0.78882  0.50000  0.89840  Biso   1.000  I
  I8       1.0000 0.21118  0.50000  0.10160  Biso   1.000  I
  Cu1      1.0000 0.19481  0.74316  0.89191  Biso   1.000  Cu
  Cu2      1.0000 0.80519  0.74316  0.10809  Biso   1.000  Cu
  Cu3      1.0000 0.69481  0.24316  0.89191  Biso   1.000  Cu
  Cu4      1.0000 0.30519  0.24316  0.10809  Biso   1.000  Cu
  Cu5      1.0000 0.80519  0.25684  0.10809  Biso   1.000  Cu
  Cu6      1.0000 0.19481  0.25684  0.89191  Biso   1.000  Cu
  Cu7      1.0000 0.30519  0.75684  0.10809  Biso   1.000  Cu
  Cu8      1.0000 0.69481  0.75684  0.89191  Biso   1.000  Cu
  S1       1.0000 0.17920  0.50000  0.73498  Biso   1.000  S
  S2       1.0000 0.82080  0.50000  0.26502  Biso   1.000  S
  S3       1.0000 0.67920  0.00000  0.73498  Biso   1.000  S
  S4       1.0000 0.32080  0.00000  0.26502  Biso   1.000  S
  N1       1.0000 0.24630  0.50000  0.56910  Biso   1.000  N
  N2       1.0000 0.75370  0.50000  0.43090  Biso   1.000  N
  N3       1.0000 0.74630  0.00000  0.56910  Biso   1.000  N
  N4       1.0000 0.25370  0.00000  0.43090  Biso   1.000  N
  N5       1.0000 0.30642  0.50000  0.76000  Biso   1.000  N
  N6       1.0000 0.69358  0.50000  0.24000  Biso   1.000  N
  N7       1.0000 0.80642  0.00000  0.76000  Biso   1.000  N
  N8       1.0000 0.19358  0.00000  0.24000  Biso   1.000  N
  H1       1.0000 0.31600  0.50000  0.84310  Biso   1.000  H
  H2       1.0000 0.68400  0.50000  0.15690  Biso   1.000  H
  H3       1.0000 0.81600  0.00000  0.84310  Biso   1.000  H
  H4       1.0000 0.18400  0.00000  0.15690  Biso   1.000  H
  H5       1.0000 0.20900  0.50000  0.50150  Biso   1.000  H
  H6       1.0000 0.79100  0.50000  0.49850  Biso   1.000  H
  H7       1.0000 0.70900  0.00000  0.50150  Biso   1.000  H
  H8       1.0000 0.29100  0.00000  0.49850  Biso   1.000  H
  O1       1.0000 0.35263  0.00000  0.62970  Biso   1.000  O
  O2       1.0000 0.64737  0.00000  0.37030  Biso   1.000  O
  O3       1.0000 0.85263  0.50000  0.62970  Biso   1.000  O
  O4       1.0000 0.14737  0.50000  0.37030  Biso   1.000  O
  C1       1.0000 0.40703  0.00000  0.62110  Biso   1.000  C
  C2       1.0000 0.59297  0.00000  0.37890  Biso   1.000  C
  C3       1.0000 0.90703  0.50000  0.62110  Biso   1.000  C
  C4       1.0000 0.09297  0.50000  0.37890  Biso   1.000  C
  H9       1.0000 0.41140  0.00000  0.54150  Biso   1.000  H
  H10      1.0000 0.58860  0.00000  0.45850  Biso   1.000  H
  H11      1.0000 0.91140  0.50000  0.54150  Biso   1.000  H
  H12      1.0000 0.08860  0.50000  0.45850  Biso   1.000  H
  N9       1.0000 0.45790  0.00000  0.71060  Biso   1.000  N
  N10      1.0000 0.54210  0.00000  0.28940  Biso   1.000  N
  N11      1.0000 0.95790  0.50000  0.71060  Biso   1.000  N
  N12      1.0000 0.04210  0.50000  0.28940  Biso   1.000  N
  C5       1.0000 0.24630  0.50000  0.68760  Biso   1.000  C
  C6       1.0000 0.75370  0.50000  0.31240  Biso   1.000  C
  C7       1.0000 0.74630  0.00000  0.68760  Biso   1.000  C
  C8       1.0000 0.25370  0.00000  0.31240  Biso   1.000  C
  C9       1.0000 0.30740  0.50000  0.56220  Biso   1.000  C
  C10      1.0000 0.69260  0.50000  0.43780  Biso   1.000  C
  C11      1.0000 0.80740  0.00000  0.56220  Biso   1.000  C
  C12      1.0000 0.19260  0.00000  0.43780  Biso   1.000  C
  C13      1.0000 0.33170  0.50000  0.46220  Biso   1.000  C
  C14      1.0000 0.66830  0.50000  0.53780  Biso   1.000  C
  C15      1.0000 0.83170  0.00000  0.46220  Biso   1.000  C
  C16      1.0000 0.16830  0.00000  0.53780  Biso   1.000  C
  H13      1.0000 0.30620  0.50000  0.38130  Biso   1.000  H
  H14      1.0000 0.69380  0.50000  0.61870  Biso   1.000  H
  H15      1.0000 0.80620  0.00000  0.38130  Biso   1.000  H
  H16      1.0000 0.19380  0.00000  0.61870  Biso   1.000  H
  C17      1.0000 0.39600  0.50000  0.48940  Biso   1.000  C
  C18      1.0000 0.60400  0.50000  0.51060  Biso   1.000  C
  C19      1.0000 0.89600  0.00000  0.48940  Biso   1.000  C
  C20      1.0000 0.10400  0.00000  0.51060  Biso   1.000  C
  H17      1.0000 0.41420  0.50000  0.42470  Biso   1.000  H
  H18      1.0000 0.58580  0.50000  0.57530  Biso   1.000  H
  H19      1.0000 0.91420  0.00000  0.42470  Biso   1.000  H
  H20      1.0000 0.08580  0.00000  0.57530  Biso   1.000  H
  C21      1.0000 0.43520  0.50000  0.61280  Biso   1.000  C
  C22      1.0000 0.56480  0.50000  0.38720  Biso   1.000  C
  C23      1.0000 0.93520  0.00000  0.61280  Biso   1.000  C
  C24      1.0000 0.06480  0.00000  0.38720  Biso   1.000  C
  H21      1.0000 0.47820  0.50000  0.62720  Biso   1.000  H
  H22      1.0000 0.52180  0.50000  0.37280  Biso   1.000  H
  H23      1.0000 0.97820  0.00000  0.62720  Biso   1.000  H
  H24      1.0000 0.02180  0.00000  0.37280  Biso   1.000  H
  C25      1.0000 0.41040  0.50000  0.71050  Biso   1.000  C
  C26      1.0000 0.58960  0.50000  0.28950  Biso   1.000  C
  C27      1.0000 0.91040  0.00000  0.71050  Biso   1.000  C
  C28      1.0000 0.08960  0.00000  0.28950  Biso   1.000  C
  H25      1.0000 0.43580  0.50000  0.79150  Biso   1.000  H
  H26      1.0000 0.56420  0.50000  0.20850  Biso   1.000  H
  H27      1.0000 0.93580  0.00000  0.79150  Biso   1.000  H
  H28      1.0000 0.06420  0.00000  0.20850  Biso   1.000  H
  C29      1.0000 0.34600  0.50000  0.68410  Biso   1.000  C
  C30      1.0000 0.65400  0.50000  0.31590  Biso   1.000  C
  C31      1.0000 0.84600  0.00000  0.68410  Biso   1.000  C
  C32      1.0000 0.15400  0.00000  0.31590  Biso   1.000  C
  C33      1.0000 0.45810  0.00000  0.83850  Biso   1.000  C
  C34      1.0000 0.54190  0.00000  0.16150  Biso   1.000  C
  C35      1.0000 0.95810  0.50000  0.83850  Biso   1.000  C
  C36      1.0000 0.04190  0.50000  0.16150  Biso   1.000  C
  H29      1.0000 0.49360  0.07590  0.88650  Biso   1.000  H
  H30      1.0000 0.50640  0.07590  0.11350  Biso   1.000  H
  H31      1.0000 0.99360  0.57590  0.88650  Biso   1.000  H
  H32      1.0000 0.00640  0.57590  0.11350  Biso   1.000  H
  H33      1.0000 0.50640  0.92410  0.11350  Biso   1.000  H
  H34      1.0000 0.49360  0.92410  0.88650  Biso   1.000  H
  H35      1.0000 0.00640  0.42410  0.11350  Biso   1.000  H
  H36      1.0000 0.99360  0.42410  0.88650  Biso   1.000  H
  H37      1.0000 0.46020  0.86050  0.86800  Biso   1.000  H
  H38      1.0000 0.53980  0.86050  0.13200  Biso   1.000  H
  H39      1.0000 0.96020  0.36050  0.86800  Biso   1.000  H
  H40      1.0000 0.03980  0.36050  0.13200  Biso   1.000  H
  H41      1.0000 0.53980  0.13950  0.13200  Biso   1.000  H
  H42      1.0000 0.46020  0.13950  0.86800  Biso   1.000  H
  H43      1.0000 0.03980  0.63950  0.13200  Biso   1.000  H
  H44      1.0000 0.96020  0.63950  0.86800  Biso   1.000  H
  H45      1.0000 0.42050  0.06370  0.84600  Biso   1.000  H
  H46      1.0000 0.57950  0.06370  0.15400  Biso   1.000  H
  H47      1.0000 0.92050  0.56370  0.84600  Biso   1.000  H
  H48      1.0000 0.07950  0.56370  0.15400  Biso   1.000  H
  H49      1.0000 0.57950  0.93630  0.15400  Biso   1.000  H
  H50      1.0000 0.42050  0.93630  0.84600  Biso   1.000  H
  H51      1.0000 0.07950  0.43630  0.15400  Biso   1.000  H
  H52      1.0000 0.92050  0.43630  0.84600  Biso   1.000  H
  C37      1.0000 0.51860  0.00000  0.68880  Biso   1.000  C
  C38      1.0000 0.48140  0.00000  0.31120  Biso   1.000  C
  C39      1.0000 0.01860  0.50000  0.68880  Biso   1.000  C
  C40      1.0000 0.98140  0.50000  0.31120  Biso   1.000  C
  H53      1.0000 0.54620  0.91130  0.74770  Biso   1.000  H
  H54      1.0000 0.45380  0.91130  0.25230  Biso   1.000  H
  H55      1.0000 0.04620  0.41130  0.74770  Biso   1.000  H
  H56      1.0000 0.95380  0.41130  0.25230  Biso   1.000  H
  H57      1.0000 0.45380  0.08870  0.25230  Biso   1.000  H
  H58      1.0000 0.54620  0.08870  0.74770  Biso   1.000  H
  H59      1.0000 0.95380  0.58870  0.25230  Biso   1.000  H
  H60      1.0000 0.04620  0.58870  0.74770  Biso   1.000  H
  H61      1.0000 0.53500  0.13780  0.69740  Biso   1.000  H
  H62      1.0000 0.46500  0.13780  0.30260  Biso   1.000  H
  H63      1.0000 0.03500  0.63780  0.69740  Biso   1.000  H
  H64      1.0000 0.96500  0.63780  0.30260  Biso   1.000  H
  H65      1.0000 0.46500  0.86220  0.30260  Biso   1.000  H
  H66      1.0000 0.53500  0.86220  0.69740  Biso   1.000  H
  H67      1.0000 0.96500  0.36220  0.30260  Biso   1.000  H
  H68      1.0000 0.03500  0.36220  0.69740  Biso   1.000  H
  H69      1.0000 0.51480  0.95090  0.60670  Biso   1.000  H
  H70      1.0000 0.48520  0.95090  0.39330  Biso   1.000  H
  H71      1.0000 0.01480  0.45090  0.60670  Biso   1.000  H
  H72      1.0000 0.98520  0.45090  0.39330  Biso   1.000  H
  H73      1.0000 0.48520  0.04910  0.39330  Biso   1.000  H
  H74      1.0000 0.51480  0.04910  0.60670  Biso   1.000  H
  H75      1.0000 0.98520  0.54910  0.39330  Biso   1.000  H
  H76      1.0000 0.01480  0.54910  0.60670  Biso   1.000  H
