data_image0
_cell_length_a       14.066
_cell_length_b       11.198
_cell_length_c       13.074
_cell_angle_alpha    90
_cell_angle_beta     113.61
_cell_angle_gamma    90

_symmetry_space_group_name_H-M    "P 1"
_symmetry_int_tables_number       1

loop_
  _symmetry_equiv_pos_as_xyz
  'x, y, z'

loop_
  _atom_site_label
  _atom_site_occupancy
  _atom_site_fract_x
  _atom_site_fract_y
  _atom_site_fract_z
  _atom_site_thermal_displace_type
  _atom_site_B_iso_or_equiv
  _atom_site_type_symbol
  Cu1      1.0000 0.37034  0.00000  0.98750  Biso   1.000  Cu
  Cu2      1.0000 0.62966  0.00000  0.01250  Biso   1.000  Cu
  Cu3      1.0000 0.87034  0.50000  0.98750  Biso   1.000  Cu
  Cu4      1.0000 0.12966  0.50000  0.01250  Biso   1.000  Cu
  Cu5      1.0000 0.24743  0.50000  0.86152  Biso   1.000  Cu
  Cu6      1.0000 0.75257  0.50000  0.13848  Biso   1.000  Cu
  Cu7      1.0000 0.74743  0.00000  0.86152  Biso   1.000  Cu
  Cu8      1.0000 0.25257  0.00000  0.13848  Biso   1.000  Cu
  Cu9      1.0000 0.44863  0.50000  0.13182  Biso   1.000  Cu
  Cu10     1.0000 0.55137  0.50000  0.86818  Biso   1.000  Cu
  Cu11     1.0000 0.94863  0.00000  0.13182  Biso   1.000  Cu
  Cu12     1.0000 0.05137  0.00000  0.86818  Biso   1.000  Cu
  Cu13     1.0000 0.87247  0.50000  0.65092  Biso   1.000  Cu
  Cu14     1.0000 0.12753  0.50000  0.34908  Biso   1.000  Cu
  Cu15     1.0000 0.37247  0.00000  0.65092  Biso   1.000  Cu
  Cu16     1.0000 0.62753  0.00000  0.34908  Biso   1.000  Cu
  Cu17     1.0000 0.40403  0.50000  0.45414  Biso   1.000  Cu
  Cu18     1.0000 0.59597  0.50000  0.54586  Biso   1.000  Cu
  Cu19     1.0000 0.90403  0.00000  0.45414  Biso   1.000  Cu
  Cu20     1.0000 0.09597  0.00000  0.54586  Biso   1.000  Cu
  Cu21     1.0000 0.74147  0.00000  0.63640  Biso   1.000  Cu
  Cu22     1.0000 0.25853  0.00000  0.36360  Biso   1.000  Cu
  Cu23     1.0000 0.24147  0.50000  0.63640  Biso   1.000  Cu
  Cu24     1.0000 0.75853  0.50000  0.36360  Biso   1.000  Cu
  C1       1.0000 0.81740  0.24150  0.64440  Biso   1.000  C
  C2       1.0000 0.18260  0.24150  0.35560  Biso   1.000  C
  C3       1.0000 0.31740  0.74150  0.64440  Biso   1.000  C
  C4       1.0000 0.68260  0.74150  0.35560  Biso   1.000  C
  C5       1.0000 0.18260  0.75850  0.35560  Biso   1.000  C
  C6       1.0000 0.81740  0.75850  0.64440  Biso   1.000  C
  C7       1.0000 0.68260  0.25850  0.35560  Biso   1.000  C
  C8       1.0000 0.31740  0.25850  0.64440  Biso   1.000  C
  H1       1.0000 0.88490  0.21640  0.66020  Biso   1.000  H
  H2       1.0000 0.11510  0.21640  0.33980  Biso   1.000  H
  H3       1.0000 0.38490  0.71640  0.66020  Biso   1.000  H
  H4       1.0000 0.61510  0.71640  0.33980  Biso   1.000  H
  H5       1.0000 0.11510  0.78360  0.33980  Biso   1.000  H
  H6       1.0000 0.88490  0.78360  0.66020  Biso   1.000  H
  H7       1.0000 0.61510  0.28360  0.33980  Biso   1.000  H
  H8       1.0000 0.38490  0.28360  0.66020  Biso   1.000  H
  C9       1.0000 0.10740  0.50000  0.76070  Biso   1.000  C
  C10      1.0000 0.89260  0.50000  0.23930  Biso   1.000  C
  C11      1.0000 0.60740  0.00000  0.76070  Biso   1.000  C
  C12      1.0000 0.39260  0.00000  0.23930  Biso   1.000  C
  C13      1.0000 0.42380  0.24170  0.06840  Biso   1.000  C
  C14      1.0000 0.57620  0.24170  0.93160  Biso   1.000  C
  C15      1.0000 0.92380  0.74170  0.06840  Biso   1.000  C
  C16      1.0000 0.07620  0.74170  0.93160  Biso   1.000  C
  C17      1.0000 0.57620  0.75830  0.93160  Biso   1.000  C
  C18      1.0000 0.42380  0.75830  0.06840  Biso   1.000  C
  C19      1.0000 0.07620  0.25830  0.93160  Biso   1.000  C
  C20      1.0000 0.92380  0.25830  0.06840  Biso   1.000  C
  H9       1.0000 0.47190  0.21680  0.13770  Biso   1.000  H
  H10      1.0000 0.52810  0.21680  0.86230  Biso   1.000  H
  H11      1.0000 0.97190  0.71680  0.13770  Biso   1.000  H
  H12      1.0000 0.02810  0.71680  0.86230  Biso   1.000  H
  H13      1.0000 0.52810  0.78320  0.86230  Biso   1.000  H
  H14      1.0000 0.47190  0.78320  0.13770  Biso   1.000  H
  H15      1.0000 0.02810  0.28320  0.86230  Biso   1.000  H
  H16      1.0000 0.97190  0.28320  0.13770  Biso   1.000  H
  C21      1.0000 0.52370  0.50000  0.38080  Biso   1.000  C
  C22      1.0000 0.47630  0.50000  0.61920  Biso   1.000  C
  C23      1.0000 0.02370  0.00000  0.38080  Biso   1.000  C
  C24      1.0000 0.97630  0.00000  0.61920  Biso   1.000  C
  N1       1.0000 0.36990  0.16570  0.98530  Biso   1.000  N
  N2       1.0000 0.63010  0.16570  0.01470  Biso   1.000  N
  N3       1.0000 0.86990  0.66570  0.98530  Biso   1.000  N
  N4       1.0000 0.13010  0.66570  0.01470  Biso   1.000  N
  N5       1.0000 0.63010  0.83430  0.01470  Biso   1.000  N
  N6       1.0000 0.36990  0.83430  0.98530  Biso   1.000  N
  N7       1.0000 0.13010  0.33430  0.01470  Biso   1.000  N
  N8       1.0000 0.86990  0.33430  0.98530  Biso   1.000  N
  N9       1.0000 0.30960  0.24070  0.90320  Biso   1.000  N
  N10      1.0000 0.69040  0.24070  0.09680  Biso   1.000  N
  N11      1.0000 0.80960  0.74070  0.90320  Biso   1.000  N
  N12      1.0000 0.19040  0.74070  0.09680  Biso   1.000  N
  N13      1.0000 0.69040  0.75930  0.09680  Biso   1.000  N
  N14      1.0000 0.30960  0.75930  0.90320  Biso   1.000  N
  N15      1.0000 0.19040  0.25930  0.09680  Biso   1.000  N
  N16      1.0000 0.80960  0.25930  0.90320  Biso   1.000  N
  N17      1.0000 0.32680  0.35360  0.93350  Biso   1.000  N
  N18      1.0000 0.67320  0.35360  0.06650  Biso   1.000  N
  N19      1.0000 0.82680  0.85360  0.93350  Biso   1.000  N
  N20      1.0000 0.17320  0.85360  0.06650  Biso   1.000  N
  N21      1.0000 0.67320  0.64640  0.06650  Biso   1.000  N
  N22      1.0000 0.32680  0.64640  0.93350  Biso   1.000  N
  N23      1.0000 0.17320  0.14640  0.06650  Biso   1.000  N
  N24      1.0000 0.82680  0.14640  0.93350  Biso   1.000  N
  N25      1.0000 0.40180  0.35400  0.04190  Biso   1.000  N
  N26      1.0000 0.59820  0.35400  0.95810  Biso   1.000  N
  N27      1.0000 0.90180  0.85400  0.04190  Biso   1.000  N
  N28      1.0000 0.09820  0.85400  0.95810  Biso   1.000  N
  N29      1.0000 0.59820  0.64600  0.95810  Biso   1.000  N
  N30      1.0000 0.40180  0.64600  0.04190  Biso   1.000  N
  N31      1.0000 0.09820  0.14600  0.95810  Biso   1.000  N
  N32      1.0000 0.90180  0.14600  0.04190  Biso   1.000  N
  N33      1.0000 0.50720  0.50000  0.28910  Biso   1.000  N
  N34      1.0000 0.49280  0.50000  0.71090  Biso   1.000  N
  N35      1.0000 0.00720  0.00000  0.28910  Biso   1.000  N
  N36      1.0000 0.99280  0.00000  0.71090  Biso   1.000  N
  N37      1.0000 0.01870  0.50000  0.70970  Biso   1.000  N
  N38      1.0000 0.98130  0.50000  0.29030  Biso   1.000  N
  N39      1.0000 0.51870  0.00000  0.70970  Biso   1.000  N
  N40      1.0000 0.48130  0.00000  0.29030  Biso   1.000  N
  N41      1.0000 0.78870  0.35440  0.63220  Biso   1.000  N
  N42      1.0000 0.21130  0.35440  0.36780  Biso   1.000  N
  N43      1.0000 0.28870  0.85440  0.63220  Biso   1.000  N
  N44      1.0000 0.71130  0.85440  0.36780  Biso   1.000  N
  N45      1.0000 0.21130  0.64560  0.36780  Biso   1.000  N
  N46      1.0000 0.78870  0.64560  0.63220  Biso   1.000  N
  N47      1.0000 0.71130  0.14560  0.36780  Biso   1.000  N
  N48      1.0000 0.28870  0.14560  0.63220  Biso   1.000  N
  N49      1.0000 0.73940  0.16670  0.63170  Biso   1.000  N
  N50      1.0000 0.26060  0.16670  0.36830  Biso   1.000  N
  N51      1.0000 0.23940  0.66670  0.63170  Biso   1.000  N
  N52      1.0000 0.76060  0.66670  0.36830  Biso   1.000  N
  N53      1.0000 0.26060  0.83330  0.36830  Biso   1.000  N
  N54      1.0000 0.73940  0.83330  0.63170  Biso   1.000  N
  N55      1.0000 0.76060  0.33330  0.36830  Biso   1.000  N
  N56      1.0000 0.23940  0.33330  0.63170  Biso   1.000  N
  N57      1.0000 0.65830  0.24100  0.60860  Biso   1.000  N
  N58      1.0000 0.34170  0.24100  0.39140  Biso   1.000  N
  N59      1.0000 0.15830  0.74100  0.60860  Biso   1.000  N
  N60      1.0000 0.84170  0.74100  0.39140  Biso   1.000  N
  N61      1.0000 0.34170  0.75900  0.39140  Biso   1.000  N
  N62      1.0000 0.65830  0.75900  0.60860  Biso   1.000  N
  N63      1.0000 0.84170  0.25900  0.39140  Biso   1.000  N
  N64      1.0000 0.15830  0.25900  0.60860  Biso   1.000  N
  N65      1.0000 0.68440  0.35380  0.60890  Biso   1.000  N
  N66      1.0000 0.31560  0.35380  0.39110  Biso   1.000  N
  N67      1.0000 0.18440  0.85380  0.60890  Biso   1.000  N
  N68      1.0000 0.81560  0.85380  0.39110  Biso   1.000  N
  N69      1.0000 0.31560  0.64620  0.39110  Biso   1.000  N
  N70      1.0000 0.68440  0.64620  0.60890  Biso   1.000  N
  N71      1.0000 0.81560  0.14620  0.39110  Biso   1.000  N
  N72      1.0000 0.18440  0.14620  0.60890  Biso   1.000  N
