data_image0
_cell_length_a       12.461
_cell_length_b       16.3334
_cell_length_c       17.4916
_cell_angle_alpha    90
_cell_angle_beta     90
_cell_angle_gamma    90

_symmetry_space_group_name_H-M    "P 1"
_symmetry_int_tables_number       1

loop_
  _symmetry_equiv_pos_as_xyz
  'x, y, z'

loop_
  _atom_site_label
  _atom_site_occupancy
  _atom_site_fract_x
  _atom_site_fract_y
  _atom_site_fract_z
  _atom_site_thermal_displace_type
  _atom_site_B_iso_or_equiv
  _atom_site_type_symbol
  Cu1      1.0000 0.00000  0.08265  0.50000  Biso   1.000  Cu
  Cu2      1.0000 0.00000  0.91735  0.50000  Biso   1.000  Cu
  Cu3      1.0000 0.50000  0.58265  0.00000  Biso   1.000  Cu
  Cu4      1.0000 0.50000  0.41735  0.00000  Biso   1.000  Cu
  C1       1.0000 0.00000  0.45690  0.00000  Biso   1.000  C
  C2       1.0000 0.00000  0.54310  0.00000  Biso   1.000  C
  C3       1.0000 0.50000  0.95690  0.50000  Biso   1.000  C
  C4       1.0000 0.50000  0.04310  0.50000  Biso   1.000  C
  C5       1.0000 0.00000  0.40880  0.92850  Biso   1.000  C
  C6       1.0000 0.00000  0.59120  0.92850  Biso   1.000  C
  C7       1.0000 0.00000  0.59120  0.07150  Biso   1.000  C
  C8       1.0000 0.00000  0.40880  0.07150  Biso   1.000  C
  C9       1.0000 0.50000  0.90880  0.42850  Biso   1.000  C
  C10      1.0000 0.50000  0.09120  0.42850  Biso   1.000  C
  C11      1.0000 0.50000  0.09120  0.57150  Biso   1.000  C
  C12      1.0000 0.50000  0.90880  0.57150  Biso   1.000  C
  C13      1.0000 0.07940  0.41720  0.87330  Biso   1.000  C
  C14      1.0000 0.92060  0.58280  0.87330  Biso   1.000  C
  C15      1.0000 0.07940  0.58280  0.12670  Biso   1.000  C
  C16      1.0000 0.92060  0.41720  0.12670  Biso   1.000  C
  C17      1.0000 0.57940  0.91720  0.37330  Biso   1.000  C
  C18      1.0000 0.42060  0.08280  0.37330  Biso   1.000  C
  C19      1.0000 0.57940  0.08280  0.62670  Biso   1.000  C
  C20      1.0000 0.42060  0.91720  0.62670  Biso   1.000  C
  C21      1.0000 0.92060  0.58280  0.12670  Biso   1.000  C
  C22      1.0000 0.07940  0.41720  0.12670  Biso   1.000  C
  C23      1.0000 0.92060  0.41720  0.87330  Biso   1.000  C
  C24      1.0000 0.07940  0.58280  0.87330  Biso   1.000  C
  C25      1.0000 0.42060  0.08280  0.62670  Biso   1.000  C
  C26      1.0000 0.57940  0.91720  0.62670  Biso   1.000  C
  C27      1.0000 0.42060  0.91720  0.37330  Biso   1.000  C
  C28      1.0000 0.57940  0.08280  0.37330  Biso   1.000  C
  H1       1.0000 0.13440  0.45500  0.87990  Biso   1.000  H
  H2       1.0000 0.86560  0.54500  0.87990  Biso   1.000  H
  H3       1.0000 0.13440  0.54500  0.12010  Biso   1.000  H
  H4       1.0000 0.86560  0.45500  0.12010  Biso   1.000  H
  H5       1.0000 0.63440  0.95500  0.37990  Biso   1.000  H
  H6       1.0000 0.36560  0.04500  0.37990  Biso   1.000  H
  H7       1.0000 0.63440  0.04500  0.62010  Biso   1.000  H
  H8       1.0000 0.36560  0.95500  0.62010  Biso   1.000  H
  H9       1.0000 0.86560  0.54500  0.12010  Biso   1.000  H
  H10      1.0000 0.13440  0.45500  0.12010  Biso   1.000  H
  H11      1.0000 0.86560  0.45500  0.87990  Biso   1.000  H
  H12      1.0000 0.13440  0.54500  0.87990  Biso   1.000  H
  H13      1.0000 0.36560  0.04500  0.62010  Biso   1.000  H
  H14      1.0000 0.63440  0.95500  0.62010  Biso   1.000  H
  H15      1.0000 0.36560  0.95500  0.37990  Biso   1.000  H
  H16      1.0000 0.63440  0.04500  0.37990  Biso   1.000  H
  C29      1.0000 0.07580  0.36840  0.80800  Biso   1.000  C
  C30      1.0000 0.92420  0.63160  0.80800  Biso   1.000  C
  C31      1.0000 0.07580  0.63160  0.19200  Biso   1.000  C
  C32      1.0000 0.92420  0.36840  0.19200  Biso   1.000  C
  C33      1.0000 0.57580  0.86840  0.30800  Biso   1.000  C
  C34      1.0000 0.42420  0.13160  0.30800  Biso   1.000  C
  C35      1.0000 0.57580  0.13160  0.69200  Biso   1.000  C
  C36      1.0000 0.42420  0.86840  0.69200  Biso   1.000  C
  C37      1.0000 0.92420  0.63160  0.19200  Biso   1.000  C
  C38      1.0000 0.07580  0.36840  0.19200  Biso   1.000  C
  C39      1.0000 0.92420  0.36840  0.80800  Biso   1.000  C
  C40      1.0000 0.07580  0.63160  0.80800  Biso   1.000  C
  C41      1.0000 0.42420  0.13160  0.69200  Biso   1.000  C
  C42      1.0000 0.57580  0.86840  0.69200  Biso   1.000  C
  C43      1.0000 0.42420  0.86840  0.30800  Biso   1.000  C
  C44      1.0000 0.57580  0.13160  0.30800  Biso   1.000  C
  H17      1.0000 0.12810  0.37630  0.77070  Biso   1.000  H
  H18      1.0000 0.87190  0.62370  0.77070  Biso   1.000  H
  H19      1.0000 0.12810  0.62370  0.22930  Biso   1.000  H
  H20      1.0000 0.87190  0.37630  0.22930  Biso   1.000  H
  H21      1.0000 0.62810  0.87630  0.27070  Biso   1.000  H
  H22      1.0000 0.37190  0.12370  0.27070  Biso   1.000  H
  H23      1.0000 0.62810  0.12370  0.72930  Biso   1.000  H
  H24      1.0000 0.37190  0.87630  0.72930  Biso   1.000  H
  H25      1.0000 0.87190  0.62370  0.22930  Biso   1.000  H
  H26      1.0000 0.12810  0.37630  0.22930  Biso   1.000  H
  H27      1.0000 0.87190  0.37630  0.77070  Biso   1.000  H
  H28      1.0000 0.12810  0.62370  0.77070  Biso   1.000  H
  H29      1.0000 0.37190  0.12370  0.72930  Biso   1.000  H
  H30      1.0000 0.62810  0.87630  0.72930  Biso   1.000  H
  H31      1.0000 0.37190  0.87630  0.27070  Biso   1.000  H
  H32      1.0000 0.62810  0.12370  0.27070  Biso   1.000  H
  C45      1.0000 0.00000  0.30960  0.79560  Biso   1.000  C
  C46      1.0000 0.00000  0.69040  0.79560  Biso   1.000  C
  C47      1.0000 0.00000  0.69040  0.20440  Biso   1.000  C
  C48      1.0000 0.00000  0.30960  0.20440  Biso   1.000  C
  C49      1.0000 0.50000  0.80960  0.29560  Biso   1.000  C
  C50      1.0000 0.50000  0.19040  0.29560  Biso   1.000  C
  C51      1.0000 0.50000  0.19040  0.70440  Biso   1.000  C
  C52      1.0000 0.50000  0.80960  0.70440  Biso   1.000  C
  C53      1.0000 0.00000  0.25640  0.72760  Biso   1.000  C
  C54      1.0000 0.00000  0.74360  0.72760  Biso   1.000  C
  C55      1.0000 0.00000  0.74360  0.27240  Biso   1.000  C
  C56      1.0000 0.00000  0.25640  0.27240  Biso   1.000  C
  C57      1.0000 0.50000  0.75640  0.22760  Biso   1.000  C
  C58      1.0000 0.50000  0.24360  0.22760  Biso   1.000  C
  C59      1.0000 0.50000  0.24360  0.77240  Biso   1.000  C
  C60      1.0000 0.50000  0.75640  0.77240  Biso   1.000  C
  C61      1.0000 0.08630  0.23470  0.69050  Biso   1.000  C
  C62      1.0000 0.91370  0.76530  0.69050  Biso   1.000  C
  C63      1.0000 0.08630  0.76530  0.30950  Biso   1.000  C
  C64      1.0000 0.91370  0.23470  0.30950  Biso   1.000  C
  C65      1.0000 0.58630  0.73470  0.19050  Biso   1.000  C
  C66      1.0000 0.41370  0.26530  0.19050  Biso   1.000  C
  C67      1.0000 0.58630  0.26530  0.80950  Biso   1.000  C
  C68      1.0000 0.41370  0.73470  0.80950  Biso   1.000  C
  C69      1.0000 0.91370  0.76530  0.30950  Biso   1.000  C
  C70      1.0000 0.08630  0.23470  0.30950  Biso   1.000  C
  C71      1.0000 0.91370  0.23470  0.69050  Biso   1.000  C
  C72      1.0000 0.08630  0.76530  0.69050  Biso   1.000  C
  C73      1.0000 0.41370  0.26530  0.80950  Biso   1.000  C
  C74      1.0000 0.58630  0.73470  0.80950  Biso   1.000  C
  C75      1.0000 0.41370  0.73470  0.19050  Biso   1.000  C
  C76      1.0000 0.58630  0.26530  0.19050  Biso   1.000  C
  H33      1.0000 0.15160  0.25580  0.70700  Biso   1.000  H
  H34      1.0000 0.84840  0.74420  0.70700  Biso   1.000  H
  H35      1.0000 0.15160  0.74420  0.29300  Biso   1.000  H
  H36      1.0000 0.84840  0.25580  0.29300  Biso   1.000  H
  H37      1.0000 0.65160  0.75580  0.20700  Biso   1.000  H
  H38      1.0000 0.34840  0.24420  0.20700  Biso   1.000  H
  H39      1.0000 0.65160  0.24420  0.79300  Biso   1.000  H
  H40      1.0000 0.34840  0.75580  0.79300  Biso   1.000  H
  H41      1.0000 0.84840  0.74420  0.29300  Biso   1.000  H
  H42      1.0000 0.15160  0.25580  0.29300  Biso   1.000  H
  H43      1.0000 0.84840  0.25580  0.70700  Biso   1.000  H
  H44      1.0000 0.15160  0.74420  0.70700  Biso   1.000  H
  H45      1.0000 0.34840  0.24420  0.79300  Biso   1.000  H
  H46      1.0000 0.65160  0.75580  0.79300  Biso   1.000  H
  H47      1.0000 0.34840  0.75580  0.20700  Biso   1.000  H
  H48      1.0000 0.65160  0.24420  0.20700  Biso   1.000  H
  C77      1.0000 0.08710  0.18160  0.62730  Biso   1.000  C
  C78      1.0000 0.91290  0.81840  0.62730  Biso   1.000  C
  C79      1.0000 0.08710  0.81840  0.37270  Biso   1.000  C
  C80      1.0000 0.91290  0.18160  0.37270  Biso   1.000  C
  C81      1.0000 0.58710  0.68160  0.12730  Biso   1.000  C
  C82      1.0000 0.41290  0.31840  0.12730  Biso   1.000  C
  C83      1.0000 0.58710  0.31840  0.87270  Biso   1.000  C
  C84      1.0000 0.41290  0.68160  0.87270  Biso   1.000  C
  C85      1.0000 0.91290  0.81840  0.37270  Biso   1.000  C
  C86      1.0000 0.08710  0.18160  0.37270  Biso   1.000  C
  C87      1.0000 0.91290  0.18160  0.62730  Biso   1.000  C
  C88      1.0000 0.08710  0.81840  0.62730  Biso   1.000  C
  C89      1.0000 0.41290  0.31840  0.87270  Biso   1.000  C
  C90      1.0000 0.58710  0.68160  0.87270  Biso   1.000  C
  C91      1.0000 0.41290  0.68160  0.12730  Biso   1.000  C
  C92      1.0000 0.58710  0.31840  0.12730  Biso   1.000  C
  H49      1.0000 0.15250  0.16340  0.60810  Biso   1.000  H
  H50      1.0000 0.84750  0.83660  0.60810  Biso   1.000  H
  H51      1.0000 0.15250  0.83660  0.39190  Biso   1.000  H
  H52      1.0000 0.84750  0.16340  0.39190  Biso   1.000  H
  H53      1.0000 0.65250  0.66340  0.10810  Biso   1.000  H
  H54      1.0000 0.34750  0.33660  0.10810  Biso   1.000  H
  H55      1.0000 0.65250  0.33660  0.89190  Biso   1.000  H
  H56      1.0000 0.34750  0.66340  0.89190  Biso   1.000  H
  H57      1.0000 0.84750  0.83660  0.39190  Biso   1.000  H
  H58      1.0000 0.15250  0.16340  0.39190  Biso   1.000  H
  H59      1.0000 0.84750  0.16340  0.60810  Biso   1.000  H
  H60      1.0000 0.15250  0.83660  0.60810  Biso   1.000  H
  H61      1.0000 0.34750  0.33660  0.89190  Biso   1.000  H
  H62      1.0000 0.65250  0.66340  0.89190  Biso   1.000  H
  H63      1.0000 0.34750  0.66340  0.10810  Biso   1.000  H
  H64      1.0000 0.65250  0.33660  0.10810  Biso   1.000  H
  N1       1.0000 0.00000  0.15780  0.59540  Biso   1.000  N
  N2       1.0000 0.00000  0.84220  0.59540  Biso   1.000  N
  N3       1.0000 0.00000  0.84220  0.40460  Biso   1.000  N
  N4       1.0000 0.00000  0.15780  0.40460  Biso   1.000  N
  N5       1.0000 0.50000  0.65780  0.09540  Biso   1.000  N
  N6       1.0000 0.50000  0.34220  0.09540  Biso   1.000  N
  N7       1.0000 0.50000  0.34220  0.90460  Biso   1.000  N
  N8       1.0000 0.50000  0.65780  0.90460  Biso   1.000  N
  I1       1.0000 0.81915  0.00000  0.50000  Biso   1.000  I
  I2       1.0000 0.18085  0.00000  0.50000  Biso   1.000  I
  I3       1.0000 0.31915  0.50000  0.00000  Biso   1.000  I
  I4       1.0000 0.68085  0.50000  0.00000  Biso   1.000  I
  C93      1.0000 0.07750  0.35160  0.91690  Biso   1.000  C
  C94      1.0000 0.92250  0.64840  0.91690  Biso   1.000  C
  C95      1.0000 0.07750  0.64840  0.08310  Biso   1.000  C
  C96      1.0000 0.92250  0.35160  0.08310  Biso   1.000  C
  C97      1.0000 0.57750  0.85160  0.41690  Biso   1.000  C
  C98      1.0000 0.42250  0.14840  0.41690  Biso   1.000  C
  C99      1.0000 0.57750  0.14840  0.58310  Biso   1.000  C
  C100     1.0000 0.42250  0.85160  0.58310  Biso   1.000  C
  C101     1.0000 0.92250  0.64840  0.08310  Biso   1.000  C
  C102     1.0000 0.07750  0.35160  0.08310  Biso   1.000  C
  C103     1.0000 0.92250  0.35160  0.91690  Biso   1.000  C
  C104     1.0000 0.07750  0.64840  0.91690  Biso   1.000  C
  C105     1.0000 0.42250  0.14840  0.58310  Biso   1.000  C
  C106     1.0000 0.57750  0.85160  0.58310  Biso   1.000  C
  C107     1.0000 0.42250  0.85160  0.41690  Biso   1.000  C
  C108     1.0000 0.57750  0.14840  0.41690  Biso   1.000  C
  H65      1.0000 0.13160  0.34590  0.95310  Biso   1.000  H
  H66      1.0000 0.86840  0.65410  0.95310  Biso   1.000  H
  H67      1.0000 0.13160  0.65410  0.04690  Biso   1.000  H
  H68      1.0000 0.86840  0.34590  0.04690  Biso   1.000  H
  H69      1.0000 0.63160  0.84590  0.45310  Biso   1.000  H
  H70      1.0000 0.36840  0.15410  0.45310  Biso   1.000  H
  H71      1.0000 0.63160  0.15410  0.54690  Biso   1.000  H
  H72      1.0000 0.36840  0.84590  0.54690  Biso   1.000  H
  H73      1.0000 0.86840  0.65410  0.04690  Biso   1.000  H
  H74      1.0000 0.13160  0.34590  0.04690  Biso   1.000  H
  H75      1.0000 0.86840  0.34590  0.95310  Biso   1.000  H
  H76      1.0000 0.13160  0.65410  0.95310  Biso   1.000  H
  H77      1.0000 0.36840  0.15410  0.54690  Biso   1.000  H
  H78      1.0000 0.63160  0.84590  0.54690  Biso   1.000  H
  H79      1.0000 0.36840  0.84590  0.45310  Biso   1.000  H
  H80      1.0000 0.63160  0.15410  0.45310  Biso   1.000  H
  C109     1.0000 0.07890  0.30190  0.85350  Biso   1.000  C
  C110     1.0000 0.92110  0.69810  0.85350  Biso   1.000  C
  C111     1.0000 0.07890  0.69810  0.14650  Biso   1.000  C
  C112     1.0000 0.92110  0.30190  0.14650  Biso   1.000  C
  C113     1.0000 0.57890  0.80190  0.35350  Biso   1.000  C
  C114     1.0000 0.42110  0.19810  0.35350  Biso   1.000  C
  C115     1.0000 0.57890  0.19810  0.64650  Biso   1.000  C
  C116     1.0000 0.42110  0.80190  0.64650  Biso   1.000  C
  C117     1.0000 0.92110  0.69810  0.14650  Biso   1.000  C
  C118     1.0000 0.07890  0.30190  0.14650  Biso   1.000  C
  C119     1.0000 0.92110  0.30190  0.85350  Biso   1.000  C
  C120     1.0000 0.07890  0.69810  0.85350  Biso   1.000  C
  C121     1.0000 0.42110  0.19810  0.64650  Biso   1.000  C
  C122     1.0000 0.57890  0.80190  0.64650  Biso   1.000  C
  C123     1.0000 0.42110  0.80190  0.35350  Biso   1.000  C
  C124     1.0000 0.57890  0.19810  0.35350  Biso   1.000  C
  H81      1.0000 0.13250  0.26260  0.84850  Biso   1.000  H
  H82      1.0000 0.86750  0.73740  0.84850  Biso   1.000  H
  H83      1.0000 0.13250  0.73740  0.15150  Biso   1.000  H
  H84      1.0000 0.86750  0.26260  0.15150  Biso   1.000  H
  H85      1.0000 0.63250  0.76260  0.34850  Biso   1.000  H
  H86      1.0000 0.36750  0.23740  0.34850  Biso   1.000  H
  H87      1.0000 0.63250  0.23740  0.65150  Biso   1.000  H
  H88      1.0000 0.36750  0.76260  0.65150  Biso   1.000  H
  H89      1.0000 0.86750  0.73740  0.15150  Biso   1.000  H
  H90      1.0000 0.13250  0.26260  0.15150  Biso   1.000  H
  H91      1.0000 0.86750  0.26260  0.84850  Biso   1.000  H
  H92      1.0000 0.13250  0.73740  0.84850  Biso   1.000  H
  H93      1.0000 0.36750  0.23740  0.65150  Biso   1.000  H
  H94      1.0000 0.63250  0.76260  0.65150  Biso   1.000  H
  H95      1.0000 0.36750  0.76260  0.34850  Biso   1.000  H
  H96      1.0000 0.63250  0.23740  0.34850  Biso   1.000  H
