data_image0
_cell_length_a       17.2556
_cell_length_b       17.2556
_cell_length_c       16.6651
_cell_angle_alpha    90
_cell_angle_beta     90
_cell_angle_gamma    90

_symmetry_space_group_name_H-M    "P 1"
_symmetry_int_tables_number       1

loop_
  _symmetry_equiv_pos_as_xyz
  'x, y, z'

loop_
  _atom_site_label
  _atom_site_occupancy
  _atom_site_fract_x
  _atom_site_fract_y
  _atom_site_fract_z
  _atom_site_thermal_displace_type
  _atom_site_B_iso_or_equiv
  _atom_site_type_symbol
  I1       1.0000 0.50000  0.13265  0.25000  Biso   1.000  I
  I2       1.0000 0.50000  0.86735  0.25000  Biso   1.000  I
  I3       1.0000 0.13265  0.50000  0.75000  Biso   1.000  I
  I4       1.0000 0.86735  0.50000  0.75000  Biso   1.000  I
  Cu1      1.0000 0.42510  0.00000  0.25000  Biso   1.000  Cu
  Cu2      1.0000 0.57490  0.00000  0.25000  Biso   1.000  Cu
  Cu3      1.0000 0.00000  0.42510  0.75000  Biso   1.000  Cu
  Cu4      1.0000 0.00000  0.57490  0.75000  Biso   1.000  Cu
  N1       1.0000 0.35240  0.99880  0.15200  Biso   1.000  N
  N2       1.0000 0.64760  0.00120  0.15200  Biso   1.000  N
  N3       1.0000 0.35240  0.00120  0.34800  Biso   1.000  N
  N4       1.0000 0.64760  0.99880  0.34800  Biso   1.000  N
  N5       1.0000 0.99880  0.35240  0.65200  Biso   1.000  N
  N6       1.0000 0.00120  0.64760  0.65200  Biso   1.000  N
  N7       1.0000 0.00120  0.35240  0.84800  Biso   1.000  N
  N8       1.0000 0.99880  0.64760  0.84800  Biso   1.000  N
  C1       1.0000 0.30350  0.05670  0.13970  Biso   1.000  C
  C2       1.0000 0.69650  0.94330  0.13970  Biso   1.000  C
  C3       1.0000 0.30350  0.94330  0.36030  Biso   1.000  C
  C4       1.0000 0.69650  0.05670  0.36030  Biso   1.000  C
  C5       1.0000 0.05670  0.30350  0.63970  Biso   1.000  C
  C6       1.0000 0.94330  0.69650  0.63970  Biso   1.000  C
  C7       1.0000 0.94330  0.30350  0.86030  Biso   1.000  C
  C8       1.0000 0.05670  0.69650  0.86030  Biso   1.000  C
  C9       1.0000 0.35290  0.94660  0.09540  Biso   1.000  C
  C10      1.0000 0.64710  0.05340  0.09540  Biso   1.000  C
  C11      1.0000 0.35290  0.05340  0.40460  Biso   1.000  C
  C12      1.0000 0.64710  0.94660  0.40460  Biso   1.000  C
  C13      1.0000 0.94660  0.35290  0.59540  Biso   1.000  C
  C14      1.0000 0.05340  0.64710  0.59540  Biso   1.000  C
  C15      1.0000 0.05340  0.35290  0.90460  Biso   1.000  C
  C16      1.0000 0.94660  0.64710  0.90460  Biso   1.000  C
  C17      1.0000 0.25210  0.05950  0.07770  Biso   1.000  C
  C18      1.0000 0.74790  0.94050  0.07770  Biso   1.000  C
  C19      1.0000 0.25210  0.94050  0.42230  Biso   1.000  C
  C20      1.0000 0.74790  0.05950  0.42230  Biso   1.000  C
  C21      1.0000 0.05950  0.25210  0.57770  Biso   1.000  C
  C22      1.0000 0.94050  0.74790  0.57770  Biso   1.000  C
  C23      1.0000 0.94050  0.25210  0.92230  Biso   1.000  C
  C24      1.0000 0.05950  0.74790  0.92230  Biso   1.000  C
  H1       1.0000 0.30430  0.09800  0.17550  Biso   1.000  H
  H2       1.0000 0.69570  0.90200  0.17550  Biso   1.000  H
  H3       1.0000 0.30430  0.90200  0.32450  Biso   1.000  H
  H4       1.0000 0.69570  0.09800  0.32450  Biso   1.000  H
  H5       1.0000 0.09800  0.30430  0.67550  Biso   1.000  H
  H6       1.0000 0.90200  0.69570  0.67550  Biso   1.000  H
  H7       1.0000 0.90200  0.30430  0.82450  Biso   1.000  H
  H8       1.0000 0.09800  0.69570  0.82450  Biso   1.000  H
  H9       1.0000 0.39090  0.90850  0.09700  Biso   1.000  H
  H10      1.0000 0.60910  0.09150  0.09700  Biso   1.000  H
  H11      1.0000 0.39090  0.09150  0.40300  Biso   1.000  H
  H12      1.0000 0.60910  0.90850  0.40300  Biso   1.000  H
  H13      1.0000 0.90850  0.39090  0.59700  Biso   1.000  H
  H14      1.0000 0.09150  0.60910  0.59700  Biso   1.000  H
  H15      1.0000 0.09150  0.39090  0.90300  Biso   1.000  H
  H16      1.0000 0.90850  0.60910  0.90300  Biso   1.000  H
  C25      1.0000 0.30050  0.94500  0.03370  Biso   1.000  C
  C26      1.0000 0.69950  0.05500  0.03370  Biso   1.000  C
  C27      1.0000 0.30050  0.05500  0.46630  Biso   1.000  C
  C28      1.0000 0.69950  0.94500  0.46630  Biso   1.000  C
  C29      1.0000 0.94500  0.30050  0.53370  Biso   1.000  C
  C30      1.0000 0.05500  0.69950  0.53370  Biso   1.000  C
  C31      1.0000 0.05500  0.30050  0.96630  Biso   1.000  C
  C32      1.0000 0.94500  0.69950  0.96630  Biso   1.000  C
  C33      1.0000 0.24800  0.00120  0.02190  Biso   1.000  C
  C34      1.0000 0.75200  0.99880  0.02190  Biso   1.000  C
  C35      1.0000 0.24800  0.99880  0.47810  Biso   1.000  C
  C36      1.0000 0.75200  0.00120  0.47810  Biso   1.000  C
  C37      1.0000 0.00120  0.24800  0.52190  Biso   1.000  C
  C38      1.0000 0.99880  0.75200  0.52190  Biso   1.000  C
  C39      1.0000 0.99880  0.24800  0.97810  Biso   1.000  C
  C40      1.0000 0.00120  0.75200  0.97810  Biso   1.000  C
  H17      1.0000 0.21900  0.10180  0.07310  Biso   1.000  H
  H18      1.0000 0.78100  0.89820  0.07310  Biso   1.000  H
  H19      1.0000 0.21900  0.89820  0.42690  Biso   1.000  H
  H20      1.0000 0.78100  0.10180  0.42690  Biso   1.000  H
  H21      1.0000 0.10180  0.21900  0.57310  Biso   1.000  H
  H22      1.0000 0.89820  0.78100  0.57310  Biso   1.000  H
  H23      1.0000 0.89820  0.21900  0.92690  Biso   1.000  H
  H24      1.0000 0.10180  0.78100  0.92690  Biso   1.000  H
  H25      1.0000 0.30130  0.90320  0.99860  Biso   1.000  H
  H26      1.0000 0.69870  0.09680  0.99860  Biso   1.000  H
  H27      1.0000 0.30130  0.09680  0.50140  Biso   1.000  H
  H28      1.0000 0.69870  0.90320  0.50140  Biso   1.000  H
  H29      1.0000 0.90320  0.30130  0.49860  Biso   1.000  H
  H30      1.0000 0.09680  0.69870  0.49860  Biso   1.000  H
  H31      1.0000 0.09680  0.30130  0.00140  Biso   1.000  H
  H32      1.0000 0.90320  0.69870  0.00140  Biso   1.000  H
  C41      1.0000 0.19170  0.00140  0.95490  Biso   1.000  C
  C42      1.0000 0.80830  0.99860  0.95490  Biso   1.000  C
  C43      1.0000 0.19170  0.99860  0.54510  Biso   1.000  C
  C44      1.0000 0.80830  0.00140  0.54510  Biso   1.000  C
  C45      1.0000 0.00140  0.19170  0.45490  Biso   1.000  C
  C46      1.0000 0.99860  0.80830  0.45490  Biso   1.000  C
  C47      1.0000 0.99860  0.19170  0.04510  Biso   1.000  C
  C48      1.0000 0.00140  0.80830  0.04510  Biso   1.000  C
  C49      1.0000 0.13140  0.05620  0.95150  Biso   1.000  C
  C50      1.0000 0.86860  0.94380  0.95150  Biso   1.000  C
  C51      1.0000 0.13140  0.94380  0.54850  Biso   1.000  C
  C52      1.0000 0.86860  0.05620  0.54850  Biso   1.000  C
  C53      1.0000 0.05620  0.13140  0.45150  Biso   1.000  C
  C54      1.0000 0.94380  0.86860  0.45150  Biso   1.000  C
  C55      1.0000 0.94380  0.13140  0.04850  Biso   1.000  C
  C56      1.0000 0.05620  0.86860  0.04850  Biso   1.000  C
  C57      1.0000 0.19680  0.94760  0.89480  Biso   1.000  C
  C58      1.0000 0.80320  0.05240  0.89480  Biso   1.000  C
  C59      1.0000 0.19680  0.05240  0.60520  Biso   1.000  C
  C60      1.0000 0.80320  0.94760  0.60520  Biso   1.000  C
  C61      1.0000 0.94760  0.19680  0.39480  Biso   1.000  C
  C62      1.0000 0.05240  0.80320  0.39480  Biso   1.000  C
  C63      1.0000 0.05240  0.19680  0.10520  Biso   1.000  C
  C64      1.0000 0.94760  0.80320  0.10520  Biso   1.000  C
  C65      1.0000 0.07930  0.05730  0.88960  Biso   1.000  C
  C66      1.0000 0.92070  0.94270  0.88960  Biso   1.000  C
  C67      1.0000 0.07930  0.94270  0.61040  Biso   1.000  C
  C68      1.0000 0.92070  0.05730  0.61040  Biso   1.000  C
  C69      1.0000 0.05730  0.07930  0.38960  Biso   1.000  C
  C70      1.0000 0.94270  0.92070  0.38960  Biso   1.000  C
  C71      1.0000 0.94270  0.07930  0.11040  Biso   1.000  C
  C72      1.0000 0.05730  0.92070  0.11040  Biso   1.000  C
  H33      1.0000 0.12690  0.09260  0.99230  Biso   1.000  H
  H34      1.0000 0.87310  0.90740  0.99230  Biso   1.000  H
  H35      1.0000 0.12690  0.90740  0.50770  Biso   1.000  H
  H36      1.0000 0.87310  0.09260  0.50770  Biso   1.000  H
  H37      1.0000 0.09260  0.12690  0.49230  Biso   1.000  H
  H38      1.0000 0.90740  0.87310  0.49230  Biso   1.000  H
  H39      1.0000 0.90740  0.12690  0.00770  Biso   1.000  H
  H40      1.0000 0.09260  0.87310  0.00770  Biso   1.000  H
  H41      1.0000 0.23590  0.91060  0.89550  Biso   1.000  H
  H42      1.0000 0.76410  0.08940  0.89550  Biso   1.000  H
  H43      1.0000 0.23590  0.08940  0.60450  Biso   1.000  H
  H44      1.0000 0.76410  0.91060  0.60450  Biso   1.000  H
  H45      1.0000 0.91060  0.23590  0.39550  Biso   1.000  H
  H46      1.0000 0.08940  0.76410  0.39550  Biso   1.000  H
  H47      1.0000 0.08940  0.23590  0.10450  Biso   1.000  H
  H48      1.0000 0.91060  0.76410  0.10450  Biso   1.000  H
  C73      1.0000 0.14250  0.94870  0.83210  Biso   1.000  C
  C74      1.0000 0.85750  0.05130  0.83210  Biso   1.000  C
  C75      1.0000 0.14250  0.05130  0.66790  Biso   1.000  C
  C76      1.0000 0.85750  0.94870  0.66790  Biso   1.000  C
  C77      1.0000 0.94870  0.14250  0.33210  Biso   1.000  C
  C78      1.0000 0.05130  0.85750  0.33210  Biso   1.000  C
  C79      1.0000 0.05130  0.14250  0.16790  Biso   1.000  C
  C80      1.0000 0.94870  0.85750  0.16790  Biso   1.000  C
  C81      1.0000 0.08460  0.00010  0.82760  Biso   1.000  C
  C82      1.0000 0.91540  0.99990  0.82760  Biso   1.000  C
  C83      1.0000 0.08460  0.99990  0.67240  Biso   1.000  C
  C84      1.0000 0.91540  0.00010  0.67240  Biso   1.000  C
  C85      1.0000 0.00010  0.08460  0.32760  Biso   1.000  C
  C86      1.0000 0.99990  0.91540  0.32760  Biso   1.000  C
  C87      1.0000 0.99990  0.08460  0.17240  Biso   1.000  C
  C88      1.0000 0.00010  0.91540  0.17240  Biso   1.000  C
  H49      1.0000 0.04070  0.09500  0.88770  Biso   1.000  H
  H50      1.0000 0.95930  0.90500  0.88770  Biso   1.000  H
  H51      1.0000 0.04070  0.90500  0.61230  Biso   1.000  H
  H52      1.0000 0.95930  0.09500  0.61230  Biso   1.000  H
  H53      1.0000 0.09500  0.04070  0.38770  Biso   1.000  H
  H54      1.0000 0.90500  0.95930  0.38770  Biso   1.000  H
  H55      1.0000 0.90500  0.04070  0.11230  Biso   1.000  H
  H56      1.0000 0.09500  0.95930  0.11230  Biso   1.000  H
  H57      1.0000 0.14710  0.91190  0.79170  Biso   1.000  H
  H58      1.0000 0.85290  0.08810  0.79170  Biso   1.000  H
  H59      1.0000 0.14710  0.08810  0.70830  Biso   1.000  H
  H60      1.0000 0.85290  0.91190  0.70830  Biso   1.000  H
  H61      1.0000 0.91190  0.14710  0.29170  Biso   1.000  H
  H62      1.0000 0.08810  0.85290  0.29170  Biso   1.000  H
  H63      1.0000 0.08810  0.14710  0.20830  Biso   1.000  H
  H64      1.0000 0.91190  0.85290  0.20830  Biso   1.000  H
  C89      1.0000 0.03830  0.00000  0.75000  Biso   1.000  C
  C90      1.0000 0.96170  0.00000  0.75000  Biso   1.000  C
  C91      1.0000 0.00000  0.03830  0.25000  Biso   1.000  C
  C92      1.0000 0.00000  0.96170  0.25000  Biso   1.000  C
  Cu5      1.0000 0.50000  0.00000  0.83033  Biso   1.000  Cu
  Cu6      1.0000 0.50000  0.00000  0.66967  Biso   1.000  Cu
  Cu7      1.0000 0.00000  0.50000  0.33033  Biso   1.000  Cu
  Cu8      1.0000 0.00000  0.50000  0.16967  Biso   1.000  Cu
  C93      1.0000 0.50000  0.50000  0.20850  Biso   1.000  C
  C94      1.0000 0.50000  0.50000  0.29150  Biso   1.000  C
  C95      1.0000 0.50000  0.50000  0.70850  Biso   1.000  C
  C96      1.0000 0.50000  0.50000  0.79150  Biso   1.000  C
  C97      1.0000 0.49950  0.42760  0.15990  Biso   1.000  C
  C98      1.0000 0.50050  0.57240  0.15990  Biso   1.000  C
  C99      1.0000 0.49950  0.57240  0.34010  Biso   1.000  C
  C100     1.0000 0.50050  0.42760  0.34010  Biso   1.000  C
  C101     1.0000 0.42760  0.49950  0.65990  Biso   1.000  C
  C102     1.0000 0.57240  0.50050  0.65990  Biso   1.000  C
  C103     1.0000 0.57240  0.49950  0.84010  Biso   1.000  C
  C104     1.0000 0.42760  0.50050  0.84010  Biso   1.000  C
  C105     1.0000 0.55580  0.41890  0.10100  Biso   1.000  C
  C106     1.0000 0.44420  0.58110  0.10100  Biso   1.000  C
  C107     1.0000 0.55580  0.58110  0.39900  Biso   1.000  C
  C108     1.0000 0.44420  0.41890  0.39900  Biso   1.000  C
  C109     1.0000 0.41890  0.55580  0.60100  Biso   1.000  C
  C110     1.0000 0.58110  0.44420  0.60100  Biso   1.000  C
  C111     1.0000 0.58110  0.55580  0.89900  Biso   1.000  C
  C112     1.0000 0.41890  0.44420  0.89900  Biso   1.000  C
  H65      1.0000 0.59430  0.45620  0.09490  Biso   1.000  H
  H66      1.0000 0.40570  0.54380  0.09490  Biso   1.000  H
  H67      1.0000 0.59430  0.54380  0.40510  Biso   1.000  H
  H68      1.0000 0.40570  0.45620  0.40510  Biso   1.000  H
  H69      1.0000 0.45620  0.59430  0.59490  Biso   1.000  H
  H70      1.0000 0.54380  0.40570  0.59490  Biso   1.000  H
  H71      1.0000 0.54380  0.59430  0.90510  Biso   1.000  H
  H72      1.0000 0.45620  0.40570  0.90510  Biso   1.000  H
  C113     1.0000 0.55420  0.35430  0.05130  Biso   1.000  C
  C114     1.0000 0.44580  0.64570  0.05130  Biso   1.000  C
  C115     1.0000 0.55420  0.64570  0.44870  Biso   1.000  C
  C116     1.0000 0.44580  0.35430  0.44870  Biso   1.000  C
  C117     1.0000 0.35430  0.55420  0.55130  Biso   1.000  C
  C118     1.0000 0.64570  0.44580  0.55130  Biso   1.000  C
  C119     1.0000 0.64570  0.55420  0.94870  Biso   1.000  C
  C120     1.0000 0.35430  0.44580  0.94870  Biso   1.000  C
  H73      1.0000 0.59190  0.34960  0.01170  Biso   1.000  H
  H74      1.0000 0.40810  0.65040  0.01170  Biso   1.000  H
  H75      1.0000 0.59190  0.65040  0.48830  Biso   1.000  H
  H76      1.0000 0.40810  0.34960  0.48830  Biso   1.000  H
  H77      1.0000 0.34960  0.59190  0.51170  Biso   1.000  H
  H78      1.0000 0.65040  0.40810  0.51170  Biso   1.000  H
  H79      1.0000 0.65040  0.59190  0.98830  Biso   1.000  H
  H80      1.0000 0.34960  0.40810  0.98830  Biso   1.000  H
  C121     1.0000 0.49920  0.29740  0.05840  Biso   1.000  C
  C122     1.0000 0.50080  0.70260  0.05840  Biso   1.000  C
  C123     1.0000 0.49920  0.70260  0.44160  Biso   1.000  C
  C124     1.0000 0.50080  0.29740  0.44160  Biso   1.000  C
  C125     1.0000 0.29740  0.49920  0.55840  Biso   1.000  C
  C126     1.0000 0.70260  0.50080  0.55840  Biso   1.000  C
  C127     1.0000 0.70260  0.49920  0.94160  Biso   1.000  C
  C128     1.0000 0.29740  0.50080  0.94160  Biso   1.000  C
  C129     1.0000 0.44300  0.30740  0.11650  Biso   1.000  C
  C130     1.0000 0.55700  0.69260  0.11650  Biso   1.000  C
  C131     1.0000 0.44300  0.69260  0.38350  Biso   1.000  C
  C132     1.0000 0.55700  0.30740  0.38350  Biso   1.000  C
  C133     1.0000 0.30740  0.44300  0.61650  Biso   1.000  C
  C134     1.0000 0.69260  0.55700  0.61650  Biso   1.000  C
  C135     1.0000 0.69260  0.44300  0.88350  Biso   1.000  C
  C136     1.0000 0.30740  0.55700  0.88350  Biso   1.000  C
  H81      1.0000 0.40420  0.27030  0.12200  Biso   1.000  H
  H82      1.0000 0.59580  0.72970  0.12200  Biso   1.000  H
  H83      1.0000 0.40420  0.72970  0.37800  Biso   1.000  H
  H84      1.0000 0.59580  0.27030  0.37800  Biso   1.000  H
  H85      1.0000 0.27030  0.40420  0.62200  Biso   1.000  H
  H86      1.0000 0.72970  0.59580  0.62200  Biso   1.000  H
  H87      1.0000 0.72970  0.40420  0.87800  Biso   1.000  H
  H88      1.0000 0.27030  0.59580  0.87800  Biso   1.000  H
  C137     1.0000 0.44290  0.37130  0.16690  Biso   1.000  C
  C138     1.0000 0.55710  0.62870  0.16690  Biso   1.000  C
  C139     1.0000 0.44290  0.62870  0.33310  Biso   1.000  C
  C140     1.0000 0.55710  0.37130  0.33310  Biso   1.000  C
  C141     1.0000 0.37130  0.44290  0.66690  Biso   1.000  C
  C142     1.0000 0.62870  0.55710  0.66690  Biso   1.000  C
  C143     1.0000 0.62870  0.44290  0.83310  Biso   1.000  C
  C144     1.0000 0.37130  0.55710  0.83310  Biso   1.000  C
  H89      1.0000 0.40450  0.37630  0.20570  Biso   1.000  H
  H90      1.0000 0.59550  0.62370  0.20570  Biso   1.000  H
  H91      1.0000 0.40450  0.62370  0.29430  Biso   1.000  H
  H92      1.0000 0.59550  0.37630  0.29430  Biso   1.000  H
  H93      1.0000 0.37630  0.40450  0.70570  Biso   1.000  H
  H94      1.0000 0.62370  0.59550  0.70570  Biso   1.000  H
  H95      1.0000 0.62370  0.40450  0.79430  Biso   1.000  H
  H96      1.0000 0.37630  0.59550  0.79430  Biso   1.000  H
  C145     1.0000 0.49940  0.22800  0.00480  Biso   1.000  C
  C146     1.0000 0.50060  0.77200  0.00480  Biso   1.000  C
  C147     1.0000 0.49940  0.77200  0.49520  Biso   1.000  C
  C148     1.0000 0.50060  0.22800  0.49520  Biso   1.000  C
  C149     1.0000 0.22800  0.49940  0.50480  Biso   1.000  C
  C150     1.0000 0.77200  0.50060  0.50480  Biso   1.000  C
  C151     1.0000 0.77200  0.49940  0.99520  Biso   1.000  C
  C152     1.0000 0.22800  0.50060  0.99520  Biso   1.000  C
  C153     1.0000 0.45570  0.16450  0.01970  Biso   1.000  C
  C154     1.0000 0.54430  0.83550  0.01970  Biso   1.000  C
  C155     1.0000 0.45570  0.83550  0.48030  Biso   1.000  C
  C156     1.0000 0.54430  0.16450  0.48030  Biso   1.000  C
  C157     1.0000 0.16450  0.45570  0.51970  Biso   1.000  C
  C158     1.0000 0.83550  0.54430  0.51970  Biso   1.000  C
  C159     1.0000 0.83550  0.45570  0.98030  Biso   1.000  C
  C160     1.0000 0.16450  0.54430  0.98030  Biso   1.000  C
  H97      1.0000 0.42370  0.16370  0.06460  Biso   1.000  H
  H98      1.0000 0.57630  0.83630  0.06460  Biso   1.000  H
  H99      1.0000 0.42370  0.83630  0.43540  Biso   1.000  H
  H100     1.0000 0.57630  0.16370  0.43540  Biso   1.000  H
  H101     1.0000 0.16370  0.42370  0.56460  Biso   1.000  H
  H102     1.0000 0.83630  0.57630  0.56460  Biso   1.000  H
  H103     1.0000 0.83630  0.42370  0.93540  Biso   1.000  H
  H104     1.0000 0.16370  0.57630  0.93540  Biso   1.000  H
  C161     1.0000 0.45760  0.10050  0.96930  Biso   1.000  C
  C162     1.0000 0.54240  0.89950  0.96930  Biso   1.000  C
  C163     1.0000 0.45760  0.89950  0.53070  Biso   1.000  C
  C164     1.0000 0.54240  0.10050  0.53070  Biso   1.000  C
  C165     1.0000 0.10050  0.45760  0.46930  Biso   1.000  C
  C166     1.0000 0.89950  0.54240  0.46930  Biso   1.000  C
  C167     1.0000 0.89950  0.45760  0.03070  Biso   1.000  C
  C168     1.0000 0.10050  0.54240  0.03070  Biso   1.000  C
  H105     1.0000 0.42430  0.05940  0.97970  Biso   1.000  H
  H106     1.0000 0.57570  0.94060  0.97970  Biso   1.000  H
  H107     1.0000 0.42430  0.94060  0.52030  Biso   1.000  H
  H108     1.0000 0.57570  0.05940  0.52030  Biso   1.000  H
  H109     1.0000 0.05940  0.42430  0.47970  Biso   1.000  H
  H110     1.0000 0.94060  0.57570  0.47970  Biso   1.000  H
  H111     1.0000 0.94060  0.42430  0.02030  Biso   1.000  H
  H112     1.0000 0.05940  0.57570  0.02030  Biso   1.000  H
  C169     1.0000 0.54750  0.15650  0.89230  Biso   1.000  C
  C170     1.0000 0.45250  0.84350  0.89230  Biso   1.000  C
  C171     1.0000 0.54750  0.84350  0.60770  Biso   1.000  C
  C172     1.0000 0.45250  0.15650  0.60770  Biso   1.000  C
  C173     1.0000 0.15650  0.54750  0.39230  Biso   1.000  C
  C174     1.0000 0.84350  0.45250  0.39230  Biso   1.000  C
  C175     1.0000 0.84350  0.54750  0.10770  Biso   1.000  C
  C176     1.0000 0.15650  0.45250  0.10770  Biso   1.000  C
  H113     1.0000 0.58060  0.15550  0.84830  Biso   1.000  H
  H114     1.0000 0.41940  0.84450  0.84830  Biso   1.000  H
  H115     1.0000 0.58060  0.84450  0.65170  Biso   1.000  H
  H116     1.0000 0.41940  0.15550  0.65170  Biso   1.000  H
  H117     1.0000 0.15550  0.58060  0.34830  Biso   1.000  H
  H118     1.0000 0.84450  0.41940  0.34830  Biso   1.000  H
  H119     1.0000 0.84450  0.58060  0.15170  Biso   1.000  H
  H120     1.0000 0.15550  0.41940  0.15170  Biso   1.000  H
  C177     1.0000 0.54650  0.22240  0.93810  Biso   1.000  C
  C178     1.0000 0.45350  0.77760  0.93810  Biso   1.000  C
  C179     1.0000 0.54650  0.77760  0.56190  Biso   1.000  C
  C180     1.0000 0.45350  0.22240  0.56190  Biso   1.000  C
  C181     1.0000 0.22240  0.54650  0.43810  Biso   1.000  C
  C182     1.0000 0.77760  0.45350  0.43810  Biso   1.000  C
  C183     1.0000 0.77760  0.54650  0.06190  Biso   1.000  C
  C184     1.0000 0.22240  0.45350  0.06190  Biso   1.000  C
  H121     1.0000 0.57800  0.26400  0.92410  Biso   1.000  H
  H122     1.0000 0.42200  0.73600  0.92410  Biso   1.000  H
  H123     1.0000 0.57800  0.73600  0.57590  Biso   1.000  H
  H124     1.0000 0.42200  0.26400  0.57590  Biso   1.000  H
  H125     1.0000 0.26400  0.57800  0.42410  Biso   1.000  H
  H126     1.0000 0.73600  0.42200  0.42410  Biso   1.000  H
  H127     1.0000 0.73600  0.57800  0.07590  Biso   1.000  H
  H128     1.0000 0.26400  0.42200  0.07590  Biso   1.000  H
  N9       1.0000 0.50590  0.09550  0.90570  Biso   1.000  N
  N10      1.0000 0.49410  0.90450  0.90570  Biso   1.000  N
  N11      1.0000 0.50590  0.90450  0.59430  Biso   1.000  N
  N12      1.0000 0.49410  0.09550  0.59430  Biso   1.000  N
  N13      1.0000 0.09550  0.50590  0.40570  Biso   1.000  N
  N14      1.0000 0.90450  0.49410  0.40570  Biso   1.000  N
  N15      1.0000 0.90450  0.50590  0.09430  Biso   1.000  N
  N16      1.0000 0.09550  0.49410  0.09430  Biso   1.000  N
  I5       1.0000 0.36922  0.00000  0.75000  Biso   1.000  I
  I6       1.0000 0.63078  0.00000  0.75000  Biso   1.000  I
  I7       1.0000 0.00000  0.36922  0.25000  Biso   1.000  I
  I8       1.0000 0.00000  0.63078  0.25000  Biso   1.000  I
