data_image0
_cell_length_a       17.314
_cell_length_b       17.314
_cell_length_c       16.701
_cell_angle_alpha    90
_cell_angle_beta     90
_cell_angle_gamma    90

_symmetry_space_group_name_H-M    "P 1"
_symmetry_int_tables_number       1

loop_
  _symmetry_equiv_pos_as_xyz
  'x, y, z'

loop_
  _atom_site_label
  _atom_site_occupancy
  _atom_site_fract_x
  _atom_site_fract_y
  _atom_site_fract_z
  _atom_site_thermal_displace_type
  _atom_site_B_iso_or_equiv
  _atom_site_type_symbol
  I1       1.0000 0.86722  0.50000  0.75000  Biso   1.000  I
  I2       1.0000 0.13278  0.50000  0.75000  Biso   1.000  I
  I3       1.0000 0.50000  0.86722  0.25000  Biso   1.000  I
  I4       1.0000 0.50000  0.13278  0.25000  Biso   1.000  I
  Cu1      1.0000 0.00000  0.57524  0.75000  Biso   1.000  Cu
  Cu2      1.0000 0.00000  0.42476  0.75000  Biso   1.000  Cu
  Cu3      1.0000 0.57524  0.00000  0.25000  Biso   1.000  Cu
  Cu4      1.0000 0.42476  0.00000  0.25000  Biso   1.000  Cu
  N1       1.0000 0.99980  0.64660  0.84740  Biso   1.000  N
  N2       1.0000 0.00020  0.35340  0.84740  Biso   1.000  N
  N3       1.0000 0.99980  0.35340  0.65260  Biso   1.000  N
  N4       1.0000 0.00020  0.64660  0.65260  Biso   1.000  N
  N5       1.0000 0.64660  0.99980  0.34740  Biso   1.000  N
  N6       1.0000 0.35340  0.00020  0.34740  Biso   1.000  N
  N7       1.0000 0.35340  0.99980  0.15260  Biso   1.000  N
  N8       1.0000 0.64660  0.00020  0.15260  Biso   1.000  N
  C1       1.0000 0.94670  0.64850  0.90380  Biso   1.000  C
  C2       1.0000 0.05330  0.35150  0.90380  Biso   1.000  C
  C3       1.0000 0.94670  0.35150  0.59620  Biso   1.000  C
  C4       1.0000 0.05330  0.64850  0.59620  Biso   1.000  C
  C5       1.0000 0.64850  0.94670  0.40380  Biso   1.000  C
  C6       1.0000 0.35150  0.05330  0.40380  Biso   1.000  C
  C7       1.0000 0.35150  0.94670  0.09620  Biso   1.000  C
  C8       1.0000 0.64850  0.05330  0.09620  Biso   1.000  C
  C9       1.0000 0.05460  0.70260  0.85580  Biso   1.000  C
  C10      1.0000 0.94540  0.29740  0.85580  Biso   1.000  C
  C11      1.0000 0.05460  0.29740  0.64420  Biso   1.000  C
  C12      1.0000 0.94540  0.70260  0.64420  Biso   1.000  C
  C13      1.0000 0.70260  0.05460  0.35580  Biso   1.000  C
  C14      1.0000 0.29740  0.94540  0.35580  Biso   1.000  C
  C15      1.0000 0.29740  0.05460  0.14420  Biso   1.000  C
  C16      1.0000 0.70260  0.94540  0.14420  Biso   1.000  C
  C17      1.0000 0.94820  0.69230  0.96800  Biso   1.000  C
  C18      1.0000 0.05180  0.30770  0.96800  Biso   1.000  C
  C19      1.0000 0.94820  0.30770  0.53200  Biso   1.000  C
  C20      1.0000 0.05180  0.69230  0.53200  Biso   1.000  C
  C21      1.0000 0.69230  0.94820  0.46800  Biso   1.000  C
  C22      1.0000 0.30770  0.05180  0.46800  Biso   1.000  C
  C23      1.0000 0.30770  0.94820  0.03200  Biso   1.000  C
  C24      1.0000 0.69230  0.05180  0.03200  Biso   1.000  C
  H1       1.0000 0.90340  0.61520  0.89750  Biso   1.000  H
  H2       1.0000 0.09660  0.38480  0.89750  Biso   1.000  H
  H3       1.0000 0.90340  0.38480  0.60250  Biso   1.000  H
  H4       1.0000 0.09660  0.61520  0.60250  Biso   1.000  H
  H5       1.0000 0.61520  0.90340  0.39750  Biso   1.000  H
  H6       1.0000 0.38480  0.09660  0.39750  Biso   1.000  H
  H7       1.0000 0.38480  0.90340  0.10250  Biso   1.000  H
  H8       1.0000 0.61520  0.09660  0.10250  Biso   1.000  H
  H9       1.0000 0.09220  0.70690  0.81460  Biso   1.000  H
  H10      1.0000 0.90780  0.29310  0.81460  Biso   1.000  H
  H11      1.0000 0.09220  0.29310  0.68540  Biso   1.000  H
  H12      1.0000 0.90780  0.70690  0.68540  Biso   1.000  H
  H13      1.0000 0.70690  0.09220  0.31460  Biso   1.000  H
  H14      1.0000 0.29310  0.90780  0.31460  Biso   1.000  H
  H15      1.0000 0.29310  0.09220  0.18540  Biso   1.000  H
  H16      1.0000 0.70690  0.90780  0.18540  Biso   1.000  H
  C25      1.0000 0.05980  0.75220  0.91740  Biso   1.000  C
  C26      1.0000 0.94020  0.24780  0.91740  Biso   1.000  C
  C27      1.0000 0.05980  0.24780  0.58260  Biso   1.000  C
  C28      1.0000 0.94020  0.75220  0.58260  Biso   1.000  C
  C29      1.0000 0.75220  0.05980  0.41740  Biso   1.000  C
  C30      1.0000 0.24780  0.94020  0.41740  Biso   1.000  C
  C31      1.0000 0.24780  0.05980  0.08260  Biso   1.000  C
  C32      1.0000 0.75220  0.94020  0.08260  Biso   1.000  C
  C33      1.0000 0.00810  0.75150  0.97710  Biso   1.000  C
  C34      1.0000 0.99190  0.24850  0.97710  Biso   1.000  C
  C35      1.0000 0.00810  0.24850  0.52290  Biso   1.000  C
  C36      1.0000 0.99190  0.75150  0.52290  Biso   1.000  C
  C37      1.0000 0.75150  0.00810  0.47710  Biso   1.000  C
  C38      1.0000 0.24850  0.99190  0.47710  Biso   1.000  C
  C39      1.0000 0.24850  0.00810  0.02290  Biso   1.000  C
  C40      1.0000 0.75150  0.99190  0.02290  Biso   1.000  C
  H17      1.0000 0.91040  0.68560  0.00860  Biso   1.000  H
  H18      1.0000 0.08960  0.31440  0.00860  Biso   1.000  H
  H19      1.0000 0.91040  0.31440  0.49140  Biso   1.000  H
  H20      1.0000 0.08960  0.68560  0.49140  Biso   1.000  H
  H21      1.0000 0.68560  0.91040  0.50860  Biso   1.000  H
  H22      1.0000 0.31440  0.08960  0.50860  Biso   1.000  H
  H23      1.0000 0.31440  0.91040  0.99140  Biso   1.000  H
  H24      1.0000 0.68560  0.08960  0.99140  Biso   1.000  H
  H25      1.0000 0.10100  0.78840  0.91870  Biso   1.000  H
  H26      1.0000 0.89900  0.21160  0.91870  Biso   1.000  H
  H27      1.0000 0.10100  0.21160  0.58130  Biso   1.000  H
  H28      1.0000 0.89900  0.78840  0.58130  Biso   1.000  H
  H29      1.0000 0.78840  0.10100  0.41870  Biso   1.000  H
  H30      1.0000 0.21160  0.89900  0.41870  Biso   1.000  H
  H31      1.0000 0.21160  0.10100  0.08130  Biso   1.000  H
  H32      1.0000 0.78840  0.89900  0.08130  Biso   1.000  H
  C41      1.0000 0.00790  0.80900  0.04510  Biso   1.000  C
  C42      1.0000 0.99210  0.19100  0.04510  Biso   1.000  C
  C43      1.0000 0.00790  0.19100  0.45490  Biso   1.000  C
  C44      1.0000 0.99210  0.80900  0.45490  Biso   1.000  C
  C45      1.0000 0.80900  0.00790  0.54510  Biso   1.000  C
  C46      1.0000 0.19100  0.99210  0.54510  Biso   1.000  C
  C47      1.0000 0.19100  0.00790  0.95490  Biso   1.000  C
  C48      1.0000 0.80900  0.99210  0.95490  Biso   1.000  C
  C49      1.0000 0.94760  0.80260  0.10630  Biso   1.000  C
  C50      1.0000 0.05240  0.19740  0.10630  Biso   1.000  C
  C51      1.0000 0.94760  0.19740  0.39370  Biso   1.000  C
  C52      1.0000 0.05240  0.80260  0.39370  Biso   1.000  C
  C53      1.0000 0.80260  0.94760  0.60630  Biso   1.000  C
  C54      1.0000 0.19740  0.05240  0.60630  Biso   1.000  C
  C55      1.0000 0.19740  0.94760  0.89370  Biso   1.000  C
  C56      1.0000 0.80260  0.05240  0.89370  Biso   1.000  C
  C57      1.0000 0.05510  0.86990  0.05050  Biso   1.000  C
  C58      1.0000 0.94490  0.13010  0.05050  Biso   1.000  C
  C59      1.0000 0.05510  0.13010  0.44950  Biso   1.000  C
  C60      1.0000 0.94490  0.86990  0.44950  Biso   1.000  C
  C61      1.0000 0.86990  0.05510  0.55050  Biso   1.000  C
  C62      1.0000 0.13010  0.94490  0.55050  Biso   1.000  C
  C63      1.0000 0.13010  0.05510  0.94950  Biso   1.000  C
  C64      1.0000 0.86990  0.94490  0.94950  Biso   1.000  C
  C65      1.0000 0.94910  0.85540  0.16620  Biso   1.000  C
  C66      1.0000 0.05090  0.14460  0.16620  Biso   1.000  C
  C67      1.0000 0.94910  0.14460  0.33380  Biso   1.000  C
  C68      1.0000 0.05090  0.85540  0.33380  Biso   1.000  C
  C69      1.0000 0.85540  0.94910  0.66620  Biso   1.000  C
  C70      1.0000 0.14460  0.05090  0.66620  Biso   1.000  C
  C71      1.0000 0.14460  0.94910  0.83380  Biso   1.000  C
  C72      1.0000 0.85540  0.05090  0.83380  Biso   1.000  C
  H33      1.0000 0.90930  0.76330  0.10400  Biso   1.000  H
  H34      1.0000 0.09070  0.23670  0.10400  Biso   1.000  H
  H35      1.0000 0.90930  0.23670  0.39600  Biso   1.000  H
  H36      1.0000 0.09070  0.76330  0.39600  Biso   1.000  H
  H37      1.0000 0.76330  0.90930  0.60400  Biso   1.000  H
  H38      1.0000 0.23670  0.09070  0.60400  Biso   1.000  H
  H39      1.0000 0.23670  0.90930  0.89600  Biso   1.000  H
  H40      1.0000 0.76330  0.09070  0.89600  Biso   1.000  H
  H41      1.0000 0.08980  0.87980  0.00770  Biso   1.000  H
  H42      1.0000 0.91020  0.12020  0.00770  Biso   1.000  H
  H43      1.0000 0.08980  0.12020  0.49230  Biso   1.000  H
  H44      1.0000 0.91020  0.87980  0.49230  Biso   1.000  H
  H45      1.0000 0.87980  0.08980  0.50770  Biso   1.000  H
  H46      1.0000 0.12020  0.91020  0.50770  Biso   1.000  H
  H47      1.0000 0.12020  0.08980  0.99230  Biso   1.000  H
  H48      1.0000 0.87980  0.91020  0.99230  Biso   1.000  H
  C73      1.0000 0.05550  0.91790  0.11430  Biso   1.000  C
  C74      1.0000 0.94450  0.08210  0.11430  Biso   1.000  C
  C75      1.0000 0.05550  0.08210  0.38570  Biso   1.000  C
  C76      1.0000 0.94450  0.91790  0.38570  Biso   1.000  C
  C77      1.0000 0.91790  0.05550  0.61430  Biso   1.000  C
  C78      1.0000 0.08210  0.94450  0.61430  Biso   1.000  C
  C79      1.0000 0.08210  0.05550  0.88570  Biso   1.000  C
  C80      1.0000 0.91790  0.94450  0.88570  Biso   1.000  C
  C81      1.0000 0.00100  0.91510  0.17280  Biso   1.000  C
  C82      1.0000 0.99900  0.08490  0.17280  Biso   1.000  C
  C83      1.0000 0.00100  0.08490  0.32720  Biso   1.000  C
  C84      1.0000 0.99900  0.91510  0.32720  Biso   1.000  C
  C85      1.0000 0.91510  0.00100  0.67280  Biso   1.000  C
  C86      1.0000 0.08490  0.99900  0.67280  Biso   1.000  C
  C87      1.0000 0.08490  0.00100  0.82720  Biso   1.000  C
  C88      1.0000 0.91510  0.99900  0.82720  Biso   1.000  C
  H49      1.0000 0.91120  0.85050  0.20710  Biso   1.000  H
  H50      1.0000 0.08880  0.14950  0.20710  Biso   1.000  H
  H51      1.0000 0.91120  0.14950  0.29290  Biso   1.000  H
  H52      1.0000 0.08880  0.85050  0.29290  Biso   1.000  H
  H53      1.0000 0.85050  0.91120  0.70710  Biso   1.000  H
  H54      1.0000 0.14950  0.08880  0.70710  Biso   1.000  H
  H55      1.0000 0.14950  0.91120  0.79290  Biso   1.000  H
  H56      1.0000 0.85050  0.08880  0.79290  Biso   1.000  H
  H57      1.0000 0.09570  0.95510  0.11860  Biso   1.000  H
  H58      1.0000 0.90430  0.04490  0.11860  Biso   1.000  H
  H59      1.0000 0.09570  0.04490  0.38140  Biso   1.000  H
  H60      1.0000 0.90430  0.95510  0.38140  Biso   1.000  H
  H61      1.0000 0.95510  0.09570  0.61860  Biso   1.000  H
  H62      1.0000 0.04490  0.90430  0.61860  Biso   1.000  H
  H63      1.0000 0.04490  0.09570  0.88140  Biso   1.000  H
  H64      1.0000 0.95510  0.90430  0.88140  Biso   1.000  H
  C89      1.0000 0.00000  0.96380  0.25000  Biso   1.000  C
  C90      1.0000 0.00000  0.03620  0.25000  Biso   1.000  C
  C91      1.0000 0.96380  0.00000  0.75000  Biso   1.000  C
  C92      1.0000 0.03620  0.00000  0.75000  Biso   1.000  C
  Cu5      1.0000 0.00000  0.50000  0.16829  Biso   1.000  Cu
  Cu6      1.0000 0.00000  0.50000  0.33171  Biso   1.000  Cu
  Cu7      1.0000 0.50000  0.00000  0.66829  Biso   1.000  Cu
  Cu8      1.0000 0.50000  0.00000  0.83171  Biso   1.000  Cu
  C93      1.0000 0.50000  0.50000  0.79090  Biso   1.000  C
  C94      1.0000 0.50000  0.50000  0.70910  Biso   1.000  C
  C95      1.0000 0.50000  0.50000  0.29090  Biso   1.000  C
  C96      1.0000 0.50000  0.50000  0.20910  Biso   1.000  C
  C97      1.0000 0.57090  0.49140  0.84110  Biso   1.000  C
  C98      1.0000 0.42910  0.50860  0.84110  Biso   1.000  C
  C99      1.0000 0.57090  0.50860  0.65890  Biso   1.000  C
  C100     1.0000 0.42910  0.49140  0.65890  Biso   1.000  C
  C101     1.0000 0.49140  0.57090  0.34110  Biso   1.000  C
  C102     1.0000 0.50860  0.42910  0.34110  Biso   1.000  C
  C103     1.0000 0.50860  0.57090  0.15890  Biso   1.000  C
  C104     1.0000 0.49140  0.42910  0.15890  Biso   1.000  C
  C105     1.0000 0.62830  0.44010  0.83270  Biso   1.000  C
  C106     1.0000 0.37170  0.55990  0.83270  Biso   1.000  C
  C107     1.0000 0.62830  0.55990  0.66730  Biso   1.000  C
  C108     1.0000 0.37170  0.44010  0.66730  Biso   1.000  C
  C109     1.0000 0.44010  0.62830  0.33270  Biso   1.000  C
  C110     1.0000 0.55990  0.37170  0.33270  Biso   1.000  C
  C111     1.0000 0.55990  0.62830  0.16730  Biso   1.000  C
  C112     1.0000 0.44010  0.37170  0.16730  Biso   1.000  C
  H65      1.0000 0.62450  0.40180  0.79220  Biso   1.000  H
  H66      1.0000 0.37550  0.59820  0.79220  Biso   1.000  H
  H67      1.0000 0.62450  0.59820  0.70780  Biso   1.000  H
  H68      1.0000 0.37550  0.40180  0.70780  Biso   1.000  H
  H69      1.0000 0.40180  0.62450  0.29220  Biso   1.000  H
  H70      1.0000 0.59820  0.37550  0.29220  Biso   1.000  H
  H71      1.0000 0.59820  0.62450  0.20780  Biso   1.000  H
  H72      1.0000 0.40180  0.37550  0.20780  Biso   1.000  H
  C113     1.0000 0.69340  0.44130  0.88200  Biso   1.000  C
  C114     1.0000 0.30660  0.55870  0.88200  Biso   1.000  C
  C115     1.0000 0.69340  0.55870  0.61800  Biso   1.000  C
  C116     1.0000 0.30660  0.44130  0.61800  Biso   1.000  C
  C117     1.0000 0.44130  0.69340  0.38200  Biso   1.000  C
  C118     1.0000 0.55870  0.30660  0.38200  Biso   1.000  C
  C119     1.0000 0.55870  0.69340  0.11800  Biso   1.000  C
  C120     1.0000 0.44130  0.30660  0.11800  Biso   1.000  C
  H73      1.0000 0.73160  0.40230  0.87650  Biso   1.000  H
  H74      1.0000 0.26840  0.59770  0.87650  Biso   1.000  H
  H75      1.0000 0.73160  0.59770  0.62350  Biso   1.000  H
  H76      1.0000 0.26840  0.40230  0.62350  Biso   1.000  H
  H77      1.0000 0.40230  0.73160  0.37650  Biso   1.000  H
  H78      1.0000 0.59770  0.26840  0.37650  Biso   1.000  H
  H79      1.0000 0.59770  0.73160  0.12350  Biso   1.000  H
  H80      1.0000 0.40230  0.26840  0.12350  Biso   1.000  H
  C121     1.0000 0.70350  0.50280  0.94260  Biso   1.000  C
  C122     1.0000 0.29650  0.49720  0.94260  Biso   1.000  C
  C123     1.0000 0.70350  0.49720  0.55740  Biso   1.000  C
  C124     1.0000 0.29650  0.50280  0.55740  Biso   1.000  C
  C125     1.0000 0.50280  0.70350  0.44260  Biso   1.000  C
  C126     1.0000 0.49720  0.29650  0.44260  Biso   1.000  C
  C127     1.0000 0.49720  0.70350  0.05740  Biso   1.000  C
  C128     1.0000 0.50280  0.29650  0.05740  Biso   1.000  C
  C129     1.0000 0.64680  0.55410  0.95130  Biso   1.000  C
  C130     1.0000 0.35320  0.44590  0.95130  Biso   1.000  C
  C131     1.0000 0.64680  0.44590  0.54870  Biso   1.000  C
  C132     1.0000 0.35320  0.55410  0.54870  Biso   1.000  C
  C133     1.0000 0.55410  0.64680  0.45130  Biso   1.000  C
  C134     1.0000 0.44590  0.35320  0.45130  Biso   1.000  C
  C135     1.0000 0.44590  0.64680  0.04870  Biso   1.000  C
  C136     1.0000 0.55410  0.35320  0.04870  Biso   1.000  C
  H81      1.0000 0.65020  0.59080  0.99350  Biso   1.000  H
  H82      1.0000 0.34980  0.40920  0.99350  Biso   1.000  H
  H83      1.0000 0.65020  0.40920  0.50650  Biso   1.000  H
  H84      1.0000 0.34980  0.59080  0.50650  Biso   1.000  H
  H85      1.0000 0.59080  0.65020  0.49350  Biso   1.000  H
  H86      1.0000 0.40920  0.34980  0.49350  Biso   1.000  H
  H87      1.0000 0.40920  0.65020  0.00650  Biso   1.000  H
  H88      1.0000 0.59080  0.34980  0.00650  Biso   1.000  H
  C137     1.0000 0.58080  0.55590  0.89930  Biso   1.000  C
  C138     1.0000 0.41920  0.44410  0.89930  Biso   1.000  C
  C139     1.0000 0.58080  0.44410  0.60070  Biso   1.000  C
  C140     1.0000 0.41920  0.55590  0.60070  Biso   1.000  C
  C141     1.0000 0.55590  0.58080  0.39930  Biso   1.000  C
  C142     1.0000 0.44410  0.41920  0.39930  Biso   1.000  C
  C143     1.0000 0.44410  0.58080  0.10070  Biso   1.000  C
  C144     1.0000 0.55590  0.41920  0.10070  Biso   1.000  C
  H89      1.0000 0.54450  0.59700  0.90190  Biso   1.000  H
  H90      1.0000 0.45550  0.40300  0.90190  Biso   1.000  H
  H91      1.0000 0.54450  0.40300  0.59810  Biso   1.000  H
  H92      1.0000 0.45550  0.59700  0.59810  Biso   1.000  H
  H93      1.0000 0.59700  0.54450  0.40190  Biso   1.000  H
  H94      1.0000 0.40300  0.45550  0.40190  Biso   1.000  H
  H95      1.0000 0.40300  0.54450  0.09810  Biso   1.000  H
  H96      1.0000 0.59700  0.45550  0.09810  Biso   1.000  H
  C145     1.0000 0.77080  0.49770  0.99580  Biso   1.000  C
  C146     1.0000 0.22920  0.50230  0.99580  Biso   1.000  C
  C147     1.0000 0.77080  0.50230  0.50420  Biso   1.000  C
  C148     1.0000 0.22920  0.49770  0.50420  Biso   1.000  C
  C149     1.0000 0.49770  0.77080  0.49580  Biso   1.000  C
  C150     1.0000 0.50230  0.22920  0.49580  Biso   1.000  C
  C151     1.0000 0.50230  0.77080  0.00420  Biso   1.000  C
  C152     1.0000 0.49770  0.22920  0.00420  Biso   1.000  C
  C153     1.0000 0.77500  0.54190  0.06480  Biso   1.000  C
  C154     1.0000 0.22500  0.45810  0.06480  Biso   1.000  C
  C155     1.0000 0.77500  0.45810  0.43520  Biso   1.000  C
  C156     1.0000 0.22500  0.54190  0.43520  Biso   1.000  C
  C157     1.0000 0.54190  0.77500  0.56480  Biso   1.000  C
  C158     1.0000 0.45810  0.22500  0.56480  Biso   1.000  C
  C159     1.0000 0.45810  0.77500  0.93520  Biso   1.000  C
  C160     1.0000 0.54190  0.22500  0.93520  Biso   1.000  C
  H97      1.0000 0.73280  0.57440  0.07820  Biso   1.000  H
  H98      1.0000 0.26720  0.42560  0.07820  Biso   1.000  H
  H99      1.0000 0.73280  0.42560  0.42180  Biso   1.000  H
  H100     1.0000 0.26720  0.57440  0.42180  Biso   1.000  H
  H101     1.0000 0.57440  0.73280  0.57820  Biso   1.000  H
  H102     1.0000 0.42560  0.26720  0.57820  Biso   1.000  H
  H103     1.0000 0.42560  0.73280  0.92180  Biso   1.000  H
  H104     1.0000 0.57440  0.26720  0.92180  Biso   1.000  H
  C161     1.0000 0.83960  0.54020  0.11550  Biso   1.000  C
  C162     1.0000 0.16040  0.45980  0.11550  Biso   1.000  C
  C163     1.0000 0.83960  0.45980  0.38450  Biso   1.000  C
  C164     1.0000 0.16040  0.54020  0.38450  Biso   1.000  C
  C165     1.0000 0.54020  0.83960  0.61550  Biso   1.000  C
  C166     1.0000 0.45980  0.16040  0.61550  Biso   1.000  C
  C167     1.0000 0.45980  0.83960  0.88450  Biso   1.000  C
  C168     1.0000 0.54020  0.16040  0.88450  Biso   1.000  C
  H105     1.0000 0.83850  0.56880  0.16410  Biso   1.000  H
  H106     1.0000 0.16150  0.43120  0.16410  Biso   1.000  H
  H107     1.0000 0.83850  0.43120  0.33590  Biso   1.000  H
  H108     1.0000 0.16150  0.56880  0.33590  Biso   1.000  H
  H109     1.0000 0.56880  0.83850  0.66410  Biso   1.000  H
  H110     1.0000 0.43120  0.16150  0.66410  Biso   1.000  H
  H111     1.0000 0.43120  0.83850  0.83590  Biso   1.000  H
  H112     1.0000 0.56880  0.16150  0.83590  Biso   1.000  H
  C169     1.0000 0.89900  0.46040  0.03310  Biso   1.000  C
  C170     1.0000 0.10100  0.53960  0.03310  Biso   1.000  C
  C171     1.0000 0.89900  0.53960  0.46690  Biso   1.000  C
  C172     1.0000 0.10100  0.46040  0.46690  Biso   1.000  C
  C173     1.0000 0.46040  0.89900  0.53310  Biso   1.000  C
  C174     1.0000 0.53960  0.10100  0.53310  Biso   1.000  C
  C175     1.0000 0.53960  0.89900  0.96690  Biso   1.000  C
  C176     1.0000 0.46040  0.10100  0.96690  Biso   1.000  C
  H113     1.0000 0.94370  0.43190  0.01860  Biso   1.000  H
  H114     1.0000 0.05630  0.56810  0.01860  Biso   1.000  H
  H115     1.0000 0.94370  0.56810  0.48140  Biso   1.000  H
  H116     1.0000 0.05630  0.43190  0.48140  Biso   1.000  H
  H117     1.0000 0.43190  0.94370  0.51860  Biso   1.000  H
  H118     1.0000 0.56810  0.05630  0.51860  Biso   1.000  H
  H119     1.0000 0.56810  0.94370  0.98140  Biso   1.000  H
  H120     1.0000 0.43190  0.05630  0.98140  Biso   1.000  H
  C177     1.0000 0.83790  0.45450  0.98160  Biso   1.000  C
  C178     1.0000 0.16210  0.54550  0.98160  Biso   1.000  C
  C179     1.0000 0.83790  0.54550  0.51840  Biso   1.000  C
  C180     1.0000 0.16210  0.45450  0.51840  Biso   1.000  C
  C181     1.0000 0.45450  0.83790  0.48160  Biso   1.000  C
  C182     1.0000 0.54550  0.16210  0.48160  Biso   1.000  C
  C183     1.0000 0.54550  0.83790  0.01840  Biso   1.000  C
  C184     1.0000 0.45450  0.16210  0.01840  Biso   1.000  C
  H121     1.0000 0.84080  0.42120  0.93640  Biso   1.000  H
  H122     1.0000 0.15920  0.57880  0.93640  Biso   1.000  H
  H123     1.0000 0.84080  0.57880  0.56360  Biso   1.000  H
  H124     1.0000 0.15920  0.42120  0.56360  Biso   1.000  H
  H125     1.0000 0.42120  0.84080  0.43640  Biso   1.000  H
  H126     1.0000 0.57880  0.15920  0.43640  Biso   1.000  H
  H127     1.0000 0.57880  0.84080  0.06360  Biso   1.000  H
  H128     1.0000 0.42120  0.15920  0.06360  Biso   1.000  H
  N9       1.0000 0.90410  0.49830  0.09670  Biso   1.000  N
  N10      1.0000 0.09590  0.50170  0.09670  Biso   1.000  N
  N11      1.0000 0.90410  0.50170  0.40330  Biso   1.000  N
  N12      1.0000 0.09590  0.49830  0.40330  Biso   1.000  N
  N13      1.0000 0.49830  0.90410  0.59670  Biso   1.000  N
  N14      1.0000 0.50170  0.09590  0.59670  Biso   1.000  N
  N15      1.0000 0.50170  0.90410  0.90330  Biso   1.000  N
  N16      1.0000 0.49830  0.09590  0.90330  Biso   1.000  N
  I5       1.0000 0.00000  0.63052  0.25000  Biso   1.000  I
  I6       1.0000 0.00000  0.36948  0.25000  Biso   1.000  I
  I7       1.0000 0.63052  0.00000  0.75000  Biso   1.000  I
  I8       1.0000 0.36948  0.00000  0.75000  Biso   1.000  I
  I9       1.0000 0.68290  0.76830  0.30040  Biso   1.000  I
  I10      1.0000 0.31710  0.23170  0.30040  Biso   1.000  I
  I11      1.0000 0.68290  0.23170  0.19960  Biso   1.000  I
  I12      1.0000 0.31710  0.76830  0.19960  Biso   1.000  I
  I13      1.0000 0.76830  0.68290  0.80040  Biso   1.000  I
  I14      1.0000 0.23170  0.31710  0.80040  Biso   1.000  I
  I15      1.0000 0.23170  0.68290  0.69960  Biso   1.000  I
  I16      1.0000 0.76830  0.31710  0.69960  Biso   1.000  I
  I17      1.0000 0.82926  0.70060  0.29350  Biso   1.000  I
  I18      1.0000 0.17074  0.29940  0.29350  Biso   1.000  I
  I19      1.0000 0.82926  0.29940  0.20650  Biso   1.000  I
  I20      1.0000 0.17074  0.70060  0.20650  Biso   1.000  I
  I21      1.0000 0.70060  0.82926  0.79350  Biso   1.000  I
  I22      1.0000 0.29940  0.17074  0.79350  Biso   1.000  I
  I23      1.0000 0.29940  0.82926  0.70650  Biso   1.000  I
  I24      1.0000 0.70060  0.17074  0.70650  Biso   1.000  I
