data_image0
_cell_length_a       12.1092
_cell_length_b       8.4377
_cell_length_c       8.9288
_cell_angle_alpha    90
_cell_angle_beta     127.421
_cell_angle_gamma    90

_symmetry_space_group_name_H-M    "P 1"
_symmetry_int_tables_number       1

loop_
  _symmetry_equiv_pos_as_xyz
  'x, y, z'

loop_
  _atom_site_label
  _atom_site_occupancy
  _atom_site_fract_x
  _atom_site_fract_y
  _atom_site_fract_z
  _atom_site_thermal_displace_type
  _atom_site_B_iso_or_equiv
  _atom_site_type_symbol
  Cu1      1.0000 0.14336  0.12748  0.41760  Biso   1.000  Cu
  Cu2      1.0000 0.14336  0.87252  0.91760  Biso   1.000  Cu
  Cu3      1.0000 0.64336  0.62748  0.41760  Biso   1.000  Cu
  Cu4      1.0000 0.64336  0.37252  0.91760  Biso   1.000  Cu
  Cl1      1.0000 0.31521  0.42112  0.71413  Biso   1.000  Cl
  Cl2      1.0000 0.31521  0.57888  0.21413  Biso   1.000  Cl
  Cl3      1.0000 0.81521  0.92112  0.71413  Biso   1.000  Cl
  Cl4      1.0000 0.81521  0.07888  0.21413  Biso   1.000  Cl
  N1       1.0000 0.15020  0.95770  0.72270  Biso   1.000  N
  N2       1.0000 0.15020  0.04230  0.22270  Biso   1.000  N
  N3       1.0000 0.65020  0.45770  0.72270  Biso   1.000  N
  N4       1.0000 0.65020  0.54230  0.22270  Biso   1.000  N
  N5       1.0000 0.10958  0.36672  0.36120  Biso   1.000  N
  N6       1.0000 0.10958  0.63328  0.86120  Biso   1.000  N
  N7       1.0000 0.60958  0.86672  0.36120  Biso   1.000  N
  N8       1.0000 0.60958  0.13328  0.86120  Biso   1.000  N
  C1       1.0000 0.14920  0.02370  0.60890  Biso   1.000  C
  C2       1.0000 0.14920  0.97630  0.10890  Biso   1.000  C
  C3       1.0000 0.64920  0.52370  0.60890  Biso   1.000  C
  C4       1.0000 0.64920  0.47630  0.10890  Biso   1.000  C
  C5       1.0000 0.17660  0.48050  0.48890  Biso   1.000  C
  C6       1.0000 0.17660  0.51950  0.98890  Biso   1.000  C
  C7       1.0000 0.67660  0.98050  0.48890  Biso   1.000  C
  C8       1.0000 0.67660  0.01950  0.98890  Biso   1.000  C
  C9       1.0000 0.14650  0.63980  0.45510  Biso   1.000  C
  C10      1.0000 0.14650  0.36020  0.95510  Biso   1.000  C
  C11      1.0000 0.64650  0.13980  0.45510  Biso   1.000  C
  C12      1.0000 0.64650  0.86020  0.95510  Biso   1.000  C
  H1       1.0000 0.19930  0.71580  0.55280  Biso   1.000  H
  H2       1.0000 0.19930  0.28420  0.05280  Biso   1.000  H
  H3       1.0000 0.69930  0.21580  0.55280  Biso   1.000  H
  H4       1.0000 0.69930  0.78420  0.05280  Biso   1.000  H
  C13      1.0000 0.03680  0.68540  0.27420  Biso   1.000  C
  C14      1.0000 0.03680  0.31460  0.77420  Biso   1.000  C
  C15      1.0000 0.53680  0.18540  0.27420  Biso   1.000  C
  C16      1.0000 0.53680  0.81460  0.77420  Biso   1.000  C
  H5       1.0000 0.01110  0.79380  0.24510  Biso   1.000  H
  H6       1.0000 0.01110  0.20620  0.74510  Biso   1.000  H
  H7       1.0000 0.51110  0.29380  0.24510  Biso   1.000  H
  H8       1.0000 0.51110  0.70620  0.74510  Biso   1.000  H
  C17      1.0000 0.96470  0.56910  0.13550  Biso   1.000  C
  C18      1.0000 0.96470  0.43090  0.63550  Biso   1.000  C
  C19      1.0000 0.46470  0.06910  0.13550  Biso   1.000  C
  C20      1.0000 0.46470  0.93090  0.63550  Biso   1.000  C
  H9       1.0000 0.89000  0.59670  0.00950  Biso   1.000  H
  H10      1.0000 0.89000  0.40330  0.50950  Biso   1.000  H
  H11      1.0000 0.39000  0.09670  0.00950  Biso   1.000  H
  H12      1.0000 0.39000  0.90330  0.50950  Biso   1.000  H
  C21      1.0000 0.00420  0.41330  0.18530  Biso   1.000  C
  C22      1.0000 0.00420  0.58670  0.68530  Biso   1.000  C
  C23      1.0000 0.50420  0.91330  0.18530  Biso   1.000  C
  C24      1.0000 0.50420  0.08670  0.68530  Biso   1.000  C
  H13      1.0000 0.95440  0.33450  0.09050  Biso   1.000  H
  H14      1.0000 0.95440  0.66550  0.59050  Biso   1.000  H
  H15      1.0000 0.45440  0.83450  0.09050  Biso   1.000  H
  H16      1.0000 0.45440  0.16550  0.59050  Biso   1.000  H
