data_image0
_cell_length_a       8.5285
_cell_length_b       9.3445
_cell_length_c       16.6446
_cell_angle_alpha    90
_cell_angle_beta     91.58
_cell_angle_gamma    90

_symmetry_space_group_name_H-M    "P 1"
_symmetry_int_tables_number       1

loop_
  _symmetry_equiv_pos_as_xyz
  'x, y, z'

loop_
  _atom_site_label
  _atom_site_occupancy
  _atom_site_fract_x
  _atom_site_fract_y
  _atom_site_fract_z
  _atom_site_thermal_displace_type
  _atom_site_B_iso_or_equiv
  _atom_site_type_symbol
  Cu1      1.0000 0.91764  0.23453  0.27985  Biso   1.000  Cu
  Cu2      1.0000 0.08236  0.73453  0.22015  Biso   1.000  Cu
  Cu3      1.0000 0.08236  0.76547  0.72015  Biso   1.000  Cu
  Cu4      1.0000 0.91764  0.26547  0.77985  Biso   1.000  Cu
  O1       1.0000 0.45790  0.41919  0.07968  Biso   1.000  O
  O2       1.0000 0.54210  0.91919  0.42032  Biso   1.000  O
  O3       1.0000 0.54210  0.58081  0.92032  Biso   1.000  O
  O4       1.0000 0.45790  0.08081  0.57968  Biso   1.000  O
  O5       1.0000 0.67626  0.57748  0.50009  Biso   1.000  O
  O6       1.0000 0.32374  0.07748  0.99991  Biso   1.000  O
  O7       1.0000 0.32374  0.42252  0.49991  Biso   1.000  O
  O8       1.0000 0.67626  0.92252  0.00009  Biso   1.000  O
  N1       1.0000 0.01479  0.92286  0.26084  Biso   1.000  N
  N2       1.0000 0.98521  0.42286  0.23916  Biso   1.000  N
  N3       1.0000 0.98521  0.07714  0.73916  Biso   1.000  N
  N4       1.0000 0.01479  0.57714  0.76084  Biso   1.000  N
  C1       1.0000 0.98480  0.04170  0.26976  Biso   1.000  C
  C2       1.0000 0.01520  0.54170  0.23024  Biso   1.000  C
  C3       1.0000 0.01520  0.95830  0.73024  Biso   1.000  C
  C4       1.0000 0.98480  0.45830  0.76976  Biso   1.000  C
  N5       1.0000 0.67400  0.25038  0.24106  Biso   1.000  N
  N6       1.0000 0.32600  0.75038  0.25894  Biso   1.000  N
  N7       1.0000 0.32600  0.74962  0.75894  Biso   1.000  N
  N8       1.0000 0.67400  0.24962  0.74106  Biso   1.000  N
  N9       1.0000 0.88270  0.29708  0.40167  Biso   1.000  N
  N10      1.0000 0.11730  0.79708  0.09833  Biso   1.000  N
  N11      1.0000 0.11730  0.70292  0.59833  Biso   1.000  N
  N12      1.0000 0.88270  0.20292  0.90167  Biso   1.000  N
  C5       1.0000 0.63250  0.32710  0.17630  Biso   1.000  C
  C6       1.0000 0.36750  0.82710  0.32370  Biso   1.000  C
  C7       1.0000 0.36750  0.67290  0.82370  Biso   1.000  C
  C8       1.0000 0.63250  0.17290  0.67630  Biso   1.000  C
  H1       1.0000 0.71140  0.37930  0.14970  Biso   1.000  H
  H2       1.0000 0.28860  0.87930  0.35030  Biso   1.000  H
  H3       1.0000 0.28860  0.62070  0.85030  Biso   1.000  H
  H4       1.0000 0.71140  0.12070  0.64970  Biso   1.000  H
  C9       1.0000 0.47870  0.33420  0.14593  Biso   1.000  C
  C10      1.0000 0.52130  0.83420  0.35407  Biso   1.000  C
  C11      1.0000 0.52130  0.66580  0.85407  Biso   1.000  C
  C12      1.0000 0.47870  0.16580  0.64593  Biso   1.000  C
  C13      1.0000 0.36140  0.26060  0.18420  Biso   1.000  C
  C14      1.0000 0.63860  0.76060  0.31580  Biso   1.000  C
  C15      1.0000 0.63860  0.73940  0.81580  Biso   1.000  C
  C16      1.0000 0.36140  0.23940  0.68420  Biso   1.000  C
  H5       1.0000 0.25520  0.26520  0.16560  Biso   1.000  H
  H6       1.0000 0.74480  0.76520  0.33440  Biso   1.000  H
  H7       1.0000 0.74480  0.73480  0.83440  Biso   1.000  H
  H8       1.0000 0.25520  0.23480  0.66560  Biso   1.000  H
  C17      1.0000 0.40580  0.17980  0.25118  Biso   1.000  C
  C18      1.0000 0.59420  0.67980  0.24882  Biso   1.000  C
  C19      1.0000 0.59420  0.82020  0.74882  Biso   1.000  C
  C20      1.0000 0.40580  0.32020  0.75118  Biso   1.000  C
  H9       1.0000 0.32940  0.12650  0.27890  Biso   1.000  H
  H10      1.0000 0.67060  0.62650  0.22110  Biso   1.000  H
  H11      1.0000 0.67060  0.87350  0.72110  Biso   1.000  H
  H12      1.0000 0.32940  0.37350  0.77890  Biso   1.000  H
  C21      1.0000 0.56040  0.17660  0.27746  Biso   1.000  C
  C22      1.0000 0.43960  0.67660  0.22254  Biso   1.000  C
  C23      1.0000 0.43960  0.82340  0.72254  Biso   1.000  C
  C24      1.0000 0.56040  0.32340  0.77746  Biso   1.000  C
  H13      1.0000 0.58800  0.12010  0.32310  Biso   1.000  H
  H14      1.0000 0.41200  0.62010  0.17690  Biso   1.000  H
  H15      1.0000 0.41200  0.87990  0.67690  Biso   1.000  H
  H16      1.0000 0.58800  0.37990  0.82310  Biso   1.000  H
  C25      1.0000 0.30020  0.43390  0.04884  Biso   1.000  C
  C26      1.0000 0.69980  0.93390  0.45116  Biso   1.000  C
  C27      1.0000 0.69980  0.56610  0.95116  Biso   1.000  C
  C28      1.0000 0.30020  0.06610  0.54884  Biso   1.000  C
  H17      1.0000 0.26120  0.34050  0.03050  Biso   1.000  H
  H18      1.0000 0.73880  0.84050  0.46950  Biso   1.000  H
  H19      1.0000 0.73880  0.65950  0.96950  Biso   1.000  H
  H20      1.0000 0.26120  0.15950  0.53050  Biso   1.000  H
  H21      1.0000 0.29820  0.50120  0.00360  Biso   1.000  H
  H22      1.0000 0.70180  0.00120  0.49640  Biso   1.000  H
  H23      1.0000 0.70180  0.49880  0.99640  Biso   1.000  H
  H24      1.0000 0.29820  0.99880  0.50360  Biso   1.000  H
  H25      1.0000 0.23350  0.47030  0.09130  Biso   1.000  H
  H26      1.0000 0.76650  0.97030  0.40870  Biso   1.000  H
  H27      1.0000 0.76650  0.52970  0.90870  Biso   1.000  H
  H28      1.0000 0.23350  0.02970  0.59130  Biso   1.000  H
  C29      1.0000 0.79490  0.41080  0.41719  Biso   1.000  C
  C30      1.0000 0.20510  0.91080  0.08281  Biso   1.000  C
  C31      1.0000 0.20510  0.58920  0.58281  Biso   1.000  C
  C32      1.0000 0.79490  0.08920  0.91719  Biso   1.000  C
  H29      1.0000 0.74630  0.46030  0.37330  Biso   1.000  H
  H30      1.0000 0.25370  0.96030  0.12670  Biso   1.000  H
  H31      1.0000 0.25370  0.53970  0.62670  Biso   1.000  H
  H32      1.0000 0.74630  0.03970  0.87330  Biso   1.000  H
  C33      1.0000 0.77080  0.46100  0.49505  Biso   1.000  C
  C34      1.0000 0.22920  0.96100  0.00495  Biso   1.000  C
  C35      1.0000 0.22920  0.53900  0.50495  Biso   1.000  C
  C36      1.0000 0.77080  0.03900  0.99505  Biso   1.000  C
  C37      1.0000 0.84340  0.39070  0.55906  Biso   1.000  C
  C38      1.0000 0.15660  0.89070  0.94094  Biso   1.000  C
  C39      1.0000 0.15660  0.60930  0.44094  Biso   1.000  C
  C40      1.0000 0.84340  0.10930  0.05906  Biso   1.000  C
  H33      1.0000 0.83130  0.42280  0.61270  Biso   1.000  H
  H34      1.0000 0.16870  0.92280  0.88730  Biso   1.000  H
  H35      1.0000 0.16870  0.57720  0.38730  Biso   1.000  H
  H36      1.0000 0.83130  0.07720  0.11270  Biso   1.000  H
  C41      1.0000 0.93430  0.27240  0.54263  Biso   1.000  C
  C42      1.0000 0.06570  0.77240  0.95737  Biso   1.000  C
  C43      1.0000 0.06570  0.72760  0.45737  Biso   1.000  C
  C44      1.0000 0.93430  0.22760  0.04263  Biso   1.000  C
  H37      1.0000 0.98480  0.22120  0.58530  Biso   1.000  H
  H38      1.0000 0.01520  0.72120  0.91470  Biso   1.000  H
  H39      1.0000 0.01520  0.77880  0.41470  Biso   1.000  H
  H40      1.0000 0.98480  0.27880  0.08530  Biso   1.000  H
  C45      1.0000 0.95170  0.22830  0.46407  Biso   1.000  C
  C46      1.0000 0.04830  0.72830  0.03593  Biso   1.000  C
  C47      1.0000 0.04830  0.77170  0.53593  Biso   1.000  C
  C48      1.0000 0.95170  0.27170  0.96407  Biso   1.000  C
  H41      1.0000 0.01450  0.14670  0.45390  Biso   1.000  H
  H42      1.0000 0.98550  0.64670  0.04610  Biso   1.000  H
  H43      1.0000 0.98550  0.85330  0.54610  Biso   1.000  H
  H44      1.0000 0.01450  0.35330  0.95390  Biso   1.000  H
  C49      1.0000 0.63800  0.62360  0.57945  Biso   1.000  C
  C50      1.0000 0.36200  0.12360  0.92055  Biso   1.000  C
  C51      1.0000 0.36200  0.37640  0.42055  Biso   1.000  C
  C52      1.0000 0.63800  0.87640  0.07945  Biso   1.000  C
  H45      1.0000 0.58820  0.54470  0.60800  Biso   1.000  H
  H46      1.0000 0.41180  0.04470  0.89200  Biso   1.000  H
  H47      1.0000 0.41180  0.45530  0.39200  Biso   1.000  H
  H48      1.0000 0.58820  0.95530  0.10800  Biso   1.000  H
  H49      1.0000 0.56560  0.70490  0.57570  Biso   1.000  H
  H50      1.0000 0.43440  0.20490  0.92430  Biso   1.000  H
  H51      1.0000 0.43440  0.29510  0.42430  Biso   1.000  H
  H52      1.0000 0.56560  0.79510  0.07570  Biso   1.000  H
  H53      1.0000 0.73400  0.65260  0.60880  Biso   1.000  H
  H54      1.0000 0.26600  0.15260  0.89120  Biso   1.000  H
  H55      1.0000 0.26600  0.34740  0.39120  Biso   1.000  H
  H56      1.0000 0.73400  0.84740  0.10880  Biso   1.000  H
