data_image0
_cell_length_a       8.5254
_cell_length_b       9.5699
_cell_length_c       17.395
_cell_angle_alpha    98.71
_cell_angle_beta     97.85
_cell_angle_gamma    108.07

_symmetry_space_group_name_H-M    "P 1"
_symmetry_int_tables_number       1

loop_
  _symmetry_equiv_pos_as_xyz
  'x, y, z'

loop_
  _atom_site_label
  _atom_site_occupancy
  _atom_site_fract_x
  _atom_site_fract_y
  _atom_site_fract_z
  _atom_site_thermal_displace_type
  _atom_site_B_iso_or_equiv
  _atom_site_type_symbol
  C1       1.0000 0.20380  0.49410  0.66270  Biso   1.000  C
  C2       1.0000 0.79620  0.50590  0.33730  Biso   1.000  C
  H1       1.0000 0.12160  0.47870  0.61810  Biso   1.000  H
  H2       1.0000 0.87840  0.52130  0.38190  Biso   1.000  H
  C3       1.0000 0.43960  0.53400  0.73770  Biso   1.000  C
  C4       1.0000 0.56040  0.46600  0.26230  Biso   1.000  C
  C5       1.0000 0.60800  0.56340  0.76980  Biso   1.000  C
  C6       1.0000 0.39200  0.43660  0.23020  Biso   1.000  C
  H3       1.0000 0.68810  0.57120  0.73790  Biso   1.000  H
  H4       1.0000 0.31190  0.42880  0.26210  Biso   1.000  H
  C7       1.0000 0.65130  0.58050  0.85080  Biso   1.000  C
  C8       1.0000 0.34870  0.41950  0.14920  Biso   1.000  C
  H5       1.0000 0.76280  0.59820  0.87340  Biso   1.000  H
  H6       1.0000 0.23720  0.40180  0.12660  Biso   1.000  H
  C9       1.0000 0.53560  0.57230  0.89940  Biso   1.000  C
  C10      1.0000 0.46440  0.42770  0.10060  Biso   1.000  C
  H7       1.0000 0.57150  0.58630  0.95380  Biso   1.000  H
  H8       1.0000 0.42850  0.41370  0.04620  Biso   1.000  H
  C11      1.0000 0.36680  0.54390  0.86950  Biso   1.000  C
  C12      1.0000 0.63320  0.45610  0.13050  Biso   1.000  C
  H9       1.0000 0.28820  0.53890  0.90210  Biso   1.000  H
  H10      1.0000 0.71180  0.46110  0.09790  Biso   1.000  H
  C13      1.0000 0.32300  0.52340  0.78780  Biso   1.000  C
  C14      1.0000 0.67700  0.47660  0.21220  Biso   1.000  C
  C15      1.0000 0.01240  0.49280  0.76010  Biso   1.000  C
  C16      1.0000 0.98760  0.50720  0.23990  Biso   1.000  C
  H11      1.0000 0.93430  0.49400  0.71430  Biso   1.000  H
  H12      1.0000 0.06570  0.50600  0.28570  Biso   1.000  H
  H13      1.0000 0.03130  0.58240  0.79970  Biso   1.000  H
  H14      1.0000 0.96870  0.41760  0.20030  Biso   1.000  H
  C17      1.0000 0.93510  0.35770  0.79290  Biso   1.000  C
  C18      1.0000 0.06490  0.64230  0.20710  Biso   1.000  C
  C19      1.0000 0.89590  0.25730  0.90360  Biso   1.000  C
  C20      1.0000 0.10410  0.74270  0.09640  Biso   1.000  C
  C21      1.0000 0.91890  0.27390  0.98700  Biso   1.000  C
  C22      1.0000 0.08110  0.72610  0.01300  Biso   1.000  C
  H15      1.0000 0.97240  0.36840  0.01950  Biso   1.000  H
  H16      1.0000 0.02760  0.63160  0.98050  Biso   1.000  H
  C23      1.0000 0.86390  0.15350  0.01890  Biso   1.000  C
  C24      1.0000 0.13610  0.84650  0.98110  Biso   1.000  C
  H17      1.0000 0.87840  0.16580  0.07380  Biso   1.000  H
  H18      1.0000 0.12160  0.83420  0.92620  Biso   1.000  H
  C25      1.0000 0.78420  0.00830  0.97140  Biso   1.000  C
  C26      1.0000 0.21580  0.99170  0.02860  Biso   1.000  C
  H19      1.0000 0.74950  0.92540  0.99460  Biso   1.000  H
  H20      1.0000 0.25050  0.07460  0.00540  Biso   1.000  H
  C27      1.0000 0.75890  0.99120  0.89110  Biso   1.000  C
  C28      1.0000 0.24110  0.00880  0.10890  Biso   1.000  C
  H21      1.0000 0.70570  0.89590  0.85930  Biso   1.000  H
  H22      1.0000 0.29430  0.10410  0.14070  Biso   1.000  H
  C29      1.0000 0.81180  0.11490  0.85570  Biso   1.000  C
  C30      1.0000 0.18820  0.88510  0.14430  Biso   1.000  C
  C31      1.0000 0.84230  0.21370  0.74450  Biso   1.000  C
  C32      1.0000 0.15770  0.78630  0.25550  Biso   1.000  C
  C33      1.0000 0.81160  0.18860  0.65420  Biso   1.000  C
  C34      1.0000 0.18840  0.81140  0.34580  Biso   1.000  C
  H23      1.0000 0.79160  0.27500  0.63770  Biso   1.000  H
  H24      1.0000 0.20840  0.72500  0.36230  Biso   1.000  H
  H25      1.0000 0.91100  0.17880  0.63590  Biso   1.000  H
  H26      1.0000 0.08900  0.82120  0.36410  Biso   1.000  H
  C35      1.0000 0.50140  0.04570  0.60220  Biso   1.000  C
  C36      1.0000 0.49860  0.95430  0.39780  Biso   1.000  C
  C37      1.0000 0.42640  0.15350  0.60200  Biso   1.000  C
  C38      1.0000 0.57360  0.84650  0.39800  Biso   1.000  C
  H27      1.0000 0.48890  0.25540  0.61530  Biso   1.000  H
  H28      1.0000 0.51110  0.74460  0.38470  Biso   1.000  H
  C39      1.0000 0.25500  0.10300  0.58120  Biso   1.000  C
  C40      1.0000 0.74500  0.89700  0.41880  Biso   1.000  C
  H29      1.0000 0.19930  0.17240  0.58030  Biso   1.000  H
  H30      1.0000 0.80070  0.82760  0.41970  Biso   1.000  H
  C41      1.0000 0.16080  0.94930  0.56120  Biso   1.000  C
  C42      1.0000 0.83920  0.05070  0.43880  Biso   1.000  C
  H31      1.0000 0.04420  0.91960  0.54730  Biso   1.000  H
  H32      1.0000 0.95580  0.08040  0.45270  Biso   1.000  H
  C43      1.0000 0.23570  0.84150  0.56160  Biso   1.000  C
  C44      1.0000 0.76430  0.15850  0.43840  Biso   1.000  C
  H33      1.0000 0.17250  0.73970  0.54870  Biso   1.000  H
  H34      1.0000 0.82750  0.26030  0.45130  Biso   1.000  H
  C45      1.0000 0.40970  0.89090  0.58210  Biso   1.000  C
  C46      1.0000 0.59030  0.10910  0.41790  Biso   1.000  C
  C47      1.0000 0.66850  0.91220  0.60900  Biso   1.000  C
  C48      1.0000 0.33150  0.08780  0.39100  Biso   1.000  C
  H35      1.0000 0.76670  0.88880  0.61760  Biso   1.000  H
  H36      1.0000 0.23330  0.11120  0.38240  Biso   1.000  H
  C49      1.0000 0.26900  0.00250  0.76900  Biso   1.000  C
  C50      1.0000 0.73100  0.99750  0.23100  Biso   1.000  C
  Cl1      1.0000 0.28120  0.16360  0.82250  Biso   1.000  Cl
  Cl2      1.0000 0.71880  0.83640  0.17750  Biso   1.000  Cl
  Cl3      1.0000 0.35110  0.87680  0.79830  Biso   1.000  Cl
  Cl4      1.0000 0.64890  0.12320  0.20170  Biso   1.000  Cl
  Cl5      1.0000 0.03150  0.88550  0.75330  Biso   1.000  Cl
  Cl6      1.0000 0.96850  0.11450  0.24670  Biso   1.000  Cl
  Cu1      1.0000 0.47046  0.58393  0.56639  Biso   1.000  Cu
  Cu2      1.0000 0.52954  0.41607  0.43361  Biso   1.000  Cu
  I1       1.0000 0.76967  0.55630  0.56040  Biso   1.000  I
  I2       1.0000 0.23033  0.44370  0.43960  Biso   1.000  I
  N1       1.0000 0.36260  0.51570  0.65970  Biso   1.000  N
  N2       1.0000 0.63740  0.48430  0.34030  Biso   1.000  N
  N3       1.0000 0.17130  0.49640  0.73690  Biso   1.000  N
  N4       1.0000 0.82870  0.50360  0.26310  Biso   1.000  N
  N5       1.0000 0.95700  0.37880  0.87090  Biso   1.000  N
  N6       1.0000 0.04300  0.62120  0.12910  Biso   1.000  N
  N7       1.0000 0.78390  0.09550  0.77470  Biso   1.000  N
  N8       1.0000 0.21610  0.90450  0.22530  Biso   1.000  N
  N9       1.0000 0.66810  0.05450  0.61840  Biso   1.000  N
  N10      1.0000 0.33190  0.94550  0.38160  Biso   1.000  N
  N11      1.0000 0.51980  0.81030  0.58680  Biso   1.000  N
  N12      1.0000 0.48020  0.18970  0.41320  Biso   1.000  N
  Cl7      1.0000 0.42340  0.17870  0.84230  Biso   1.000  Cl
  Cl8      1.0000 0.57660  0.82130  0.15770  Biso   1.000  Cl
  Cl9      1.0000 0.09090  0.99660  0.77470  Biso   1.000  Cl
  Cl10     1.0000 0.90910  0.00340  0.22530  Biso   1.000  Cl
