data_image0
_cell_length_a       12.6564
_cell_length_b       22.9398
_cell_length_c       24.7425
_cell_angle_alpha    90
_cell_angle_beta     99.04
_cell_angle_gamma    90

_symmetry_space_group_name_H-M    "P 1"
_symmetry_int_tables_number       1

loop_
  _symmetry_equiv_pos_as_xyz
  'x, y, z'

loop_
  _atom_site_label
  _atom_site_occupancy
  _atom_site_fract_x
  _atom_site_fract_y
  _atom_site_fract_z
  _atom_site_thermal_displace_type
  _atom_site_B_iso_or_equiv
  _atom_site_type_symbol
  Cu1      1.0000 0.44675  0.28450  0.07818  Biso   1.000  Cu
  Cu2      1.0000 0.55325  0.28450  0.42182  Biso   1.000  Cu
  Cu3      1.0000 0.94675  0.78450  0.07818  Biso   1.000  Cu
  Cu4      1.0000 0.05325  0.78450  0.42182  Biso   1.000  Cu
  Cu5      1.0000 0.55325  0.71550  0.92182  Biso   1.000  Cu
  Cu6      1.0000 0.44675  0.71550  0.57818  Biso   1.000  Cu
  Cu7      1.0000 0.05325  0.21550  0.92182  Biso   1.000  Cu
  Cu8      1.0000 0.94675  0.21550  0.57818  Biso   1.000  Cu
  Cu9      1.0000 0.19771  0.53381  0.08683  Biso   1.000  Cu
  Cu10     1.0000 0.80229  0.53381  0.41317  Biso   1.000  Cu
  Cu11     1.0000 0.69771  0.03381  0.08683  Biso   1.000  Cu
  Cu12     1.0000 0.30229  0.03381  0.41317  Biso   1.000  Cu
  Cu13     1.0000 0.80229  0.46619  0.91317  Biso   1.000  Cu
  Cu14     1.0000 0.19771  0.46619  0.58683  Biso   1.000  Cu
  Cu15     1.0000 0.30229  0.96619  0.91317  Biso   1.000  Cu
  Cu16     1.0000 0.69771  0.96619  0.58683  Biso   1.000  Cu
  W1       1.0000 0.77375  0.28016  0.14831  Biso   1.000  W
  W2       1.0000 0.22625  0.28016  0.35169  Biso   1.000  W
  W3       1.0000 0.27375  0.78016  0.14831  Biso   1.000  W
  W4       1.0000 0.72625  0.78016  0.35169  Biso   1.000  W
  W5       1.0000 0.22625  0.71984  0.85169  Biso   1.000  W
  W6       1.0000 0.77375  0.71984  0.64831  Biso   1.000  W
  W7       1.0000 0.72625  0.21984  0.85169  Biso   1.000  W
  W8       1.0000 0.27375  0.21984  0.64831  Biso   1.000  W
  W9       1.0000 0.16678  0.29019  0.14936  Biso   1.000  W
  W10      1.0000 0.83322  0.29019  0.35064  Biso   1.000  W
  W11      1.0000 0.66678  0.79019  0.14936  Biso   1.000  W
  W12      1.0000 0.33322  0.79019  0.35064  Biso   1.000  W
  W13      1.0000 0.83322  0.70981  0.85064  Biso   1.000  W
  W14      1.0000 0.16678  0.70981  0.64936  Biso   1.000  W
  W15      1.0000 0.33322  0.20981  0.85064  Biso   1.000  W
  W16      1.0000 0.66678  0.20981  0.64936  Biso   1.000  W
  W17      1.0000 0.98050  0.39372  0.14768  Biso   1.000  W
  W18      1.0000 0.01950  0.39372  0.35232  Biso   1.000  W
  W19      1.0000 0.48050  0.89372  0.14768  Biso   1.000  W
  W20      1.0000 0.51950  0.89372  0.35232  Biso   1.000  W
  W21      1.0000 0.01950  0.60628  0.85232  Biso   1.000  W
  W22      1.0000 0.98050  0.60628  0.64768  Biso   1.000  W
  W23      1.0000 0.51950  0.10628  0.85232  Biso   1.000  W
  W24      1.0000 0.48050  0.10628  0.64768  Biso   1.000  W
  W25      1.0000 0.95941  0.17695  0.14753  Biso   1.000  W
  W26      1.0000 0.04059  0.17695  0.35247  Biso   1.000  W
  W27      1.0000 0.45941  0.67695  0.14753  Biso   1.000  W
  W28      1.0000 0.54059  0.67695  0.35247  Biso   1.000  W
  W29      1.0000 0.04059  0.82305  0.85247  Biso   1.000  W
  W30      1.0000 0.95941  0.82305  0.64753  Biso   1.000  W
  W31      1.0000 0.54059  0.32305  0.85247  Biso   1.000  W
  W32      1.0000 0.45941  0.32305  0.64753  Biso   1.000  W
  W33      1.0000 0.80550  0.39420  0.25431  Biso   1.000  W
  W34      1.0000 0.19450  0.39420  0.24569  Biso   1.000  W
  W35      1.0000 0.30550  0.89420  0.25431  Biso   1.000  W
  W36      1.0000 0.69450  0.89420  0.24569  Biso   1.000  W
  W37      1.0000 0.19450  0.60580  0.74569  Biso   1.000  W
  W38      1.0000 0.80550  0.60580  0.75431  Biso   1.000  W
  W39      1.0000 0.69450  0.10580  0.74569  Biso   1.000  W
  W40      1.0000 0.30550  0.10580  0.75431  Biso   1.000  W
  W41      1.0000 0.80292  0.17613  0.24439  Biso   1.000  W
  W42      1.0000 0.19708  0.17613  0.25561  Biso   1.000  W
  W43      1.0000 0.30292  0.67613  0.24439  Biso   1.000  W
  W44      1.0000 0.69708  0.67613  0.25561  Biso   1.000  W
  W45      1.0000 0.19708  0.82387  0.75561  Biso   1.000  W
  W46      1.0000 0.80292  0.82387  0.74439  Biso   1.000  W
  W47      1.0000 0.69708  0.32387  0.75561  Biso   1.000  W
  W48      1.0000 0.30292  0.32387  0.74439  Biso   1.000  W
  C1       1.0000 0.30340  0.37590  0.03590  Biso   1.000  C
  C2       1.0000 0.69660  0.37590  0.46410  Biso   1.000  C
  C3       1.0000 0.80340  0.87590  0.03590  Biso   1.000  C
  C4       1.0000 0.19660  0.87590  0.46410  Biso   1.000  C
  C5       1.0000 0.69660  0.62410  0.96410  Biso   1.000  C
  C6       1.0000 0.30340  0.62410  0.53590  Biso   1.000  C
  C7       1.0000 0.19660  0.12410  0.96410  Biso   1.000  C
  C8       1.0000 0.80340  0.12410  0.53590  Biso   1.000  C
  C9       1.0000 0.24680  0.42630  0.04130  Biso   1.000  C
  C10      1.0000 0.75320  0.42630  0.45870  Biso   1.000  C
  C11      1.0000 0.74680  0.92630  0.04130  Biso   1.000  C
  C12      1.0000 0.25320  0.92630  0.45870  Biso   1.000  C
  C13      1.0000 0.75320  0.57370  0.95870  Biso   1.000  C
  C14      1.0000 0.24680  0.57370  0.54130  Biso   1.000  C
  C15      1.0000 0.25320  0.07370  0.95870  Biso   1.000  C
  C16      1.0000 0.74680  0.07370  0.54130  Biso   1.000  C
  C17      1.0000 0.35880  0.45150  0.12010  Biso   1.000  C
  C18      1.0000 0.64120  0.45150  0.37990  Biso   1.000  C
  C19      1.0000 0.85880  0.95150  0.12010  Biso   1.000  C
  C20      1.0000 0.14120  0.95150  0.37990  Biso   1.000  C
  C21      1.0000 0.64120  0.54850  0.87990  Biso   1.000  C
  C22      1.0000 0.35880  0.54850  0.62010  Biso   1.000  C
  C23      1.0000 0.14120  0.04850  0.87990  Biso   1.000  C
  C24      1.0000 0.85880  0.04850  0.62010  Biso   1.000  C
  C25      1.0000 0.41280  0.39950  0.11680  Biso   1.000  C
  C26      1.0000 0.58720  0.39950  0.38320  Biso   1.000  C
  C27      1.0000 0.91280  0.89950  0.11680  Biso   1.000  C
  C28      1.0000 0.08720  0.89950  0.38320  Biso   1.000  C
  C29      1.0000 0.58720  0.60050  0.88320  Biso   1.000  C
  C30      1.0000 0.41280  0.60050  0.61680  Biso   1.000  C
  C31      1.0000 0.08720  0.10050  0.88320  Biso   1.000  C
  C32      1.0000 0.91280  0.10050  0.61680  Biso   1.000  C
  C33      1.0000 0.27950  0.33400  0.98900  Biso   1.000  C
  C34      1.0000 0.72050  0.33400  0.51100  Biso   1.000  C
  C35      1.0000 0.77950  0.83400  0.98900  Biso   1.000  C
  C36      1.0000 0.22050  0.83400  0.51100  Biso   1.000  C
  C37      1.0000 0.72050  0.66600  0.01100  Biso   1.000  C
  C38      1.0000 0.27950  0.66600  0.48900  Biso   1.000  C
  C39      1.0000 0.22050  0.16600  0.01100  Biso   1.000  C
  C40      1.0000 0.77950  0.16600  0.48900  Biso   1.000  C
  H1       1.0000 0.21310  0.31440  0.99090  Biso   1.000  H
  H2       1.0000 0.78690  0.31440  0.50910  Biso   1.000  H
  H3       1.0000 0.71310  0.81440  0.99090  Biso   1.000  H
  H4       1.0000 0.28690  0.81440  0.50910  Biso   1.000  H
  H5       1.0000 0.78690  0.68560  0.00910  Biso   1.000  H
  H6       1.0000 0.21310  0.68560  0.49090  Biso   1.000  H
  H7       1.0000 0.28690  0.18560  0.00910  Biso   1.000  H
  H8       1.0000 0.71310  0.18560  0.49090  Biso   1.000  H
  H9       1.0000 0.33600  0.30580  0.99110  Biso   1.000  H
  H10      1.0000 0.66400  0.30580  0.50890  Biso   1.000  H
  H11      1.0000 0.83600  0.80580  0.99110  Biso   1.000  H
  H12      1.0000 0.16400  0.80580  0.50890  Biso   1.000  H
  H13      1.0000 0.66400  0.69420  0.00890  Biso   1.000  H
  H14      1.0000 0.33600  0.69420  0.49110  Biso   1.000  H
  H15      1.0000 0.16400  0.19420  0.00890  Biso   1.000  H
  H16      1.0000 0.83600  0.19420  0.49110  Biso   1.000  H
  H17      1.0000 0.27410  0.35490  0.95510  Biso   1.000  H
  H18      1.0000 0.72590  0.35490  0.54490  Biso   1.000  H
  H19      1.0000 0.77410  0.85490  0.95510  Biso   1.000  H
  H20      1.0000 0.22590  0.85490  0.54490  Biso   1.000  H
  H21      1.0000 0.72590  0.64510  0.04490  Biso   1.000  H
  H22      1.0000 0.27410  0.64510  0.45510  Biso   1.000  H
  H23      1.0000 0.22590  0.14510  0.04490  Biso   1.000  H
  H24      1.0000 0.77410  0.14510  0.45510  Biso   1.000  H
  C41      1.0000 0.14580  0.44120  0.00210  Biso   1.000  C
  C42      1.0000 0.85420  0.44120  0.49790  Biso   1.000  C
  C43      1.0000 0.64580  0.94120  0.00210  Biso   1.000  C
  C44      1.0000 0.35420  0.94120  0.49790  Biso   1.000  C
  C45      1.0000 0.85420  0.55880  0.99790  Biso   1.000  C
  C46      1.0000 0.14580  0.55880  0.50210  Biso   1.000  C
  C47      1.0000 0.35420  0.05880  0.99790  Biso   1.000  C
  C48      1.0000 0.64580  0.05880  0.50210  Biso   1.000  C
  H25      1.0000 0.12590  0.48090  0.00780  Biso   1.000  H
  H26      1.0000 0.87410  0.48090  0.49220  Biso   1.000  H
  H27      1.0000 0.62590  0.98090  0.00780  Biso   1.000  H
  H28      1.0000 0.37410  0.98090  0.49220  Biso   1.000  H
  H29      1.0000 0.87410  0.51910  0.99220  Biso   1.000  H
  H30      1.0000 0.12590  0.51910  0.50780  Biso   1.000  H
  H31      1.0000 0.37410  0.01910  0.99220  Biso   1.000  H
  H32      1.0000 0.62590  0.01910  0.50780  Biso   1.000  H
  H33      1.0000 0.08900  0.41570  0.00860  Biso   1.000  H
  H34      1.0000 0.91100  0.41570  0.49140  Biso   1.000  H
  H35      1.0000 0.58900  0.91570  0.00860  Biso   1.000  H
  H36      1.0000 0.41100  0.91570  0.49140  Biso   1.000  H
  H37      1.0000 0.91100  0.58430  0.99140  Biso   1.000  H
  H38      1.0000 0.08900  0.58430  0.50860  Biso   1.000  H
  H39      1.0000 0.41100  0.08430  0.99140  Biso   1.000  H
  H40      1.0000 0.58900  0.08430  0.50860  Biso   1.000  H
  H41      1.0000 0.15840  0.43650  0.96510  Biso   1.000  H
  H42      1.0000 0.84160  0.43650  0.53490  Biso   1.000  H
  H43      1.0000 0.65840  0.93650  0.96510  Biso   1.000  H
  H44      1.0000 0.34160  0.93650  0.53490  Biso   1.000  H
  H45      1.0000 0.84160  0.56350  0.03490  Biso   1.000  H
  H46      1.0000 0.15840  0.56350  0.46510  Biso   1.000  H
  H47      1.0000 0.34160  0.06350  0.03490  Biso   1.000  H
  H48      1.0000 0.65840  0.06350  0.46510  Biso   1.000  H
  C49      1.0000 0.39350  0.49700  0.16150  Biso   1.000  C
  C50      1.0000 0.60650  0.49700  0.33850  Biso   1.000  C
  C51      1.0000 0.89350  0.99700  0.16150  Biso   1.000  C
  C52      1.0000 0.10650  0.99700  0.33850  Biso   1.000  C
  C53      1.0000 0.60650  0.50300  0.83850  Biso   1.000  C
  C54      1.0000 0.39350  0.50300  0.66150  Biso   1.000  C
  C55      1.0000 0.10650  0.00300  0.83850  Biso   1.000  C
  C56      1.0000 0.89350  0.00300  0.66150  Biso   1.000  C
  H49      1.0000 0.38000  0.53480  0.14530  Biso   1.000  H
  H50      1.0000 0.62000  0.53480  0.35470  Biso   1.000  H
  H51      1.0000 0.88000  0.03480  0.14530  Biso   1.000  H
  H52      1.0000 0.12000  0.03480  0.35470  Biso   1.000  H
  H53      1.0000 0.62000  0.46520  0.85470  Biso   1.000  H
  H54      1.0000 0.38000  0.46520  0.64530  Biso   1.000  H
  H55      1.0000 0.12000  0.96520  0.85470  Biso   1.000  H
  H56      1.0000 0.88000  0.96520  0.64530  Biso   1.000  H
  H57      1.0000 0.46860  0.49280  0.17460  Biso   1.000  H
  H58      1.0000 0.53140  0.49280  0.32540  Biso   1.000  H
  H59      1.0000 0.96860  0.99280  0.17460  Biso   1.000  H
  H60      1.0000 0.03140  0.99280  0.32540  Biso   1.000  H
  H61      1.0000 0.53140  0.50720  0.82540  Biso   1.000  H
  H62      1.0000 0.46860  0.50720  0.67460  Biso   1.000  H
  H63      1.0000 0.03140  0.00720  0.82540  Biso   1.000  H
  H64      1.0000 0.96860  0.00720  0.67460  Biso   1.000  H
  H65      1.0000 0.35430  0.49290  0.19150  Biso   1.000  H
  H66      1.0000 0.64570  0.49290  0.30850  Biso   1.000  H
  H67      1.0000 0.85430  0.99290  0.19150  Biso   1.000  H
  H68      1.0000 0.14570  0.99290  0.30850  Biso   1.000  H
  H69      1.0000 0.64570  0.50710  0.80850  Biso   1.000  H
  H70      1.0000 0.35430  0.50710  0.69150  Biso   1.000  H
  H71      1.0000 0.14570  0.00710  0.80850  Biso   1.000  H
  H72      1.0000 0.85430  0.00710  0.69150  Biso   1.000  H
  C57      1.0000 0.50570  0.38000  0.16340  Biso   1.000  C
  C58      1.0000 0.49430  0.38000  0.33660  Biso   1.000  C
  C59      1.0000 0.00570  0.88000  0.16340  Biso   1.000  C
  C60      1.0000 0.99430  0.88000  0.33660  Biso   1.000  C
  C61      1.0000 0.49430  0.62000  0.83660  Biso   1.000  C
  C62      1.0000 0.50570  0.62000  0.66340  Biso   1.000  C
  C63      1.0000 0.99430  0.12000  0.83660  Biso   1.000  C
  C64      1.0000 0.00570  0.12000  0.66340  Biso   1.000  C
  H73      1.0000 0.49490  0.34010  0.17300  Biso   1.000  H
  H74      1.0000 0.50510  0.34010  0.32700  Biso   1.000  H
  H75      1.0000 0.99490  0.84010  0.17300  Biso   1.000  H
  H76      1.0000 0.00510  0.84010  0.32700  Biso   1.000  H
  H77      1.0000 0.50510  0.65990  0.82700  Biso   1.000  H
  H78      1.0000 0.49490  0.65990  0.67300  Biso   1.000  H
  H79      1.0000 0.00510  0.15990  0.82700  Biso   1.000  H
  H80      1.0000 0.99490  0.15990  0.67300  Biso   1.000  H
  H81      1.0000 0.50570  0.40430  0.19490  Biso   1.000  H
  H82      1.0000 0.49430  0.40430  0.30510  Biso   1.000  H
  H83      1.0000 0.00570  0.90430  0.19490  Biso   1.000  H
  H84      1.0000 0.99430  0.90430  0.30510  Biso   1.000  H
  H85      1.0000 0.49430  0.59570  0.80510  Biso   1.000  H
  H86      1.0000 0.50570  0.59570  0.69490  Biso   1.000  H
  H87      1.0000 0.99430  0.09570  0.80510  Biso   1.000  H
  H88      1.0000 0.00570  0.09570  0.69490  Biso   1.000  H
  H89      1.0000 0.57320  0.38360  0.15050  Biso   1.000  H
  H90      1.0000 0.42680  0.38360  0.34950  Biso   1.000  H
  H91      1.0000 0.07320  0.88360  0.15050  Biso   1.000  H
  H92      1.0000 0.92680  0.88360  0.34950  Biso   1.000  H
  H93      1.0000 0.42680  0.61640  0.84950  Biso   1.000  H
  H94      1.0000 0.57320  0.61640  0.65050  Biso   1.000  H
  H95      1.0000 0.92680  0.11640  0.84950  Biso   1.000  H
  H96      1.0000 0.07320  0.11640  0.65050  Biso   1.000  H
  C65      1.0000 0.50020  0.17060  0.11900  Biso   1.000  C
  C66      1.0000 0.49980  0.17060  0.38100  Biso   1.000  C
  C67      1.0000 0.00020  0.67060  0.11900  Biso   1.000  C
  C68      1.0000 0.99980  0.67060  0.38100  Biso   1.000  C
  C69      1.0000 0.49980  0.82940  0.88100  Biso   1.000  C
  C70      1.0000 0.50020  0.82940  0.61900  Biso   1.000  C
  C71      1.0000 0.99980  0.32940  0.88100  Biso   1.000  C
  C72      1.0000 0.00020  0.32940  0.61900  Biso   1.000  C
  C73      1.0000 0.55410  0.11640  0.12120  Biso   1.000  C
  C74      1.0000 0.44590  0.11640  0.37880  Biso   1.000  C
  C75      1.0000 0.05410  0.61640  0.12120  Biso   1.000  C
  C76      1.0000 0.94590  0.61640  0.37880  Biso   1.000  C
  C77      1.0000 0.44590  0.88360  0.87880  Biso   1.000  C
  C78      1.0000 0.55410  0.88360  0.62120  Biso   1.000  C
  C79      1.0000 0.94590  0.38360  0.87880  Biso   1.000  C
  C80      1.0000 0.05410  0.38360  0.62120  Biso   1.000  C
  C81      1.0000 0.62810  0.14350  0.04540  Biso   1.000  C
  C82      1.0000 0.37190  0.14350  0.45460  Biso   1.000  C
  C83      1.0000 0.12810  0.64350  0.04540  Biso   1.000  C
  C84      1.0000 0.87190  0.64350  0.45460  Biso   1.000  C
  C85      1.0000 0.37190  0.85650  0.95460  Biso   1.000  C
  C86      1.0000 0.62810  0.85650  0.54540  Biso   1.000  C
  C87      1.0000 0.87190  0.35650  0.95460  Biso   1.000  C
  C88      1.0000 0.12810  0.35650  0.54540  Biso   1.000  C
  C89      1.0000 0.56770  0.19330  0.03930  Biso   1.000  C
  C90      1.0000 0.43230  0.19330  0.46070  Biso   1.000  C
  C91      1.0000 0.06770  0.69330  0.03930  Biso   1.000  C
  C92      1.0000 0.93230  0.69330  0.46070  Biso   1.000  C
  C93      1.0000 0.43230  0.80670  0.96070  Biso   1.000  C
  C94      1.0000 0.56770  0.80670  0.53930  Biso   1.000  C
  C95      1.0000 0.93230  0.30670  0.96070  Biso   1.000  C
  C96      1.0000 0.06770  0.30670  0.53930  Biso   1.000  C
  C97      1.0000 0.44120  0.18830  0.16390  Biso   1.000  C
  C98      1.0000 0.55880  0.18830  0.33610  Biso   1.000  C
  C99      1.0000 0.94120  0.68830  0.16390  Biso   1.000  C
  C100     1.0000 0.05880  0.68830  0.33610  Biso   1.000  C
  C101     1.0000 0.55880  0.81170  0.83610  Biso   1.000  C
  C102     1.0000 0.44120  0.81170  0.66390  Biso   1.000  C
  C103     1.0000 0.05880  0.31170  0.83610  Biso   1.000  C
  C104     1.0000 0.94120  0.31170  0.66390  Biso   1.000  C
  H97      1.0000 0.47740  0.22050  0.18350  Biso   1.000  H
  H98      1.0000 0.52260  0.22050  0.31650  Biso   1.000  H
  H99      1.0000 0.97740  0.72050  0.18350  Biso   1.000  H
  H100     1.0000 0.02260  0.72050  0.31650  Biso   1.000  H
  H101     1.0000 0.52260  0.77950  0.81650  Biso   1.000  H
  H102     1.0000 0.47740  0.77950  0.68350  Biso   1.000  H
  H103     1.0000 0.02260  0.27950  0.81650  Biso   1.000  H
  H104     1.0000 0.97740  0.27950  0.68350  Biso   1.000  H
  H105     1.0000 0.43850  0.15610  0.18840  Biso   1.000  H
  H106     1.0000 0.56150  0.15610  0.31160  Biso   1.000  H
  H107     1.0000 0.93850  0.65610  0.18840  Biso   1.000  H
  H108     1.0000 0.06150  0.65610  0.31160  Biso   1.000  H
  H109     1.0000 0.56150  0.84390  0.81160  Biso   1.000  H
  H110     1.0000 0.43850  0.84390  0.68840  Biso   1.000  H
  H111     1.0000 0.06150  0.34390  0.81160  Biso   1.000  H
  H112     1.0000 0.93850  0.34390  0.68840  Biso   1.000  H
  H113     1.0000 0.36980  0.19980  0.14860  Biso   1.000  H
  H114     1.0000 0.63020  0.19980  0.35140  Biso   1.000  H
  H115     1.0000 0.86980  0.69980  0.14860  Biso   1.000  H
  H116     1.0000 0.13020  0.69980  0.35140  Biso   1.000  H
  H117     1.0000 0.63020  0.80020  0.85140  Biso   1.000  H
  H118     1.0000 0.36980  0.80020  0.64860  Biso   1.000  H
  H119     1.0000 0.13020  0.30020  0.85140  Biso   1.000  H
  H120     1.0000 0.86980  0.30020  0.64860  Biso   1.000  H
  C105     1.0000 0.54380  0.07080  0.16360  Biso   1.000  C
  C106     1.0000 0.45620  0.07080  0.33640  Biso   1.000  C
  C107     1.0000 0.04380  0.57080  0.16360  Biso   1.000  C
  C108     1.0000 0.95620  0.57080  0.33640  Biso   1.000  C
  C109     1.0000 0.45620  0.92920  0.83640  Biso   1.000  C
  C110     1.0000 0.54380  0.92920  0.66360  Biso   1.000  C
  C111     1.0000 0.95620  0.42920  0.83640  Biso   1.000  C
  C112     1.0000 0.04380  0.42920  0.66360  Biso   1.000  C
  H121     1.0000 0.48870  0.04360  0.14940  Biso   1.000  H
  H122     1.0000 0.51130  0.04360  0.35060  Biso   1.000  H
  H123     1.0000 0.98870  0.54360  0.14940  Biso   1.000  H
  H124     1.0000 0.01130  0.54360  0.35060  Biso   1.000  H
  H125     1.0000 0.51130  0.95640  0.85060  Biso   1.000  H
  H126     1.0000 0.48870  0.95640  0.64940  Biso   1.000  H
  H127     1.0000 0.01130  0.45640  0.85060  Biso   1.000  H
  H128     1.0000 0.98870  0.45640  0.64940  Biso   1.000  H
  H129     1.0000 0.52580  0.08910  0.19580  Biso   1.000  H
  H130     1.0000 0.47420  0.08910  0.30420  Biso   1.000  H
  H131     1.0000 0.02580  0.58910  0.19580  Biso   1.000  H
  H132     1.0000 0.97420  0.58910  0.30420  Biso   1.000  H
  H133     1.0000 0.47420  0.91090  0.80420  Biso   1.000  H
  H134     1.0000 0.52580  0.91090  0.69580  Biso   1.000  H
  H135     1.0000 0.97420  0.41090  0.80420  Biso   1.000  H
  H136     1.0000 0.02580  0.41090  0.69580  Biso   1.000  H
  H137     1.0000 0.61060  0.05040  0.17270  Biso   1.000  H
  H138     1.0000 0.38940  0.05040  0.32730  Biso   1.000  H
  H139     1.0000 0.11060  0.55040  0.17270  Biso   1.000  H
  H140     1.0000 0.88940  0.55040  0.32730  Biso   1.000  H
  H141     1.0000 0.38940  0.94960  0.82730  Biso   1.000  H
  H142     1.0000 0.61060  0.94960  0.67270  Biso   1.000  H
  H143     1.0000 0.88940  0.44960  0.82730  Biso   1.000  H
  H144     1.0000 0.11060  0.44960  0.67270  Biso   1.000  H
  C113     1.0000 0.56720  0.23750  0.99500  Biso   1.000  C
  C114     1.0000 0.43280  0.23750  0.50500  Biso   1.000  C
  C115     1.0000 0.06720  0.73750  0.99500  Biso   1.000  C
  C116     1.0000 0.93280  0.73750  0.50500  Biso   1.000  C
  C117     1.0000 0.43280  0.76250  0.00500  Biso   1.000  C
  C118     1.0000 0.56720  0.76250  0.49500  Biso   1.000  C
  C119     1.0000 0.93280  0.26250  0.00500  Biso   1.000  C
  C120     1.0000 0.06720  0.26250  0.49500  Biso   1.000  C
  H145     1.0000 0.57850  0.21840  0.96190  Biso   1.000  H
  H146     1.0000 0.42150  0.21840  0.53810  Biso   1.000  H
  H147     1.0000 0.07850  0.71840  0.96190  Biso   1.000  H
  H148     1.0000 0.92150  0.71840  0.53810  Biso   1.000  H
  H149     1.0000 0.42150  0.78160  0.03810  Biso   1.000  H
  H150     1.0000 0.57850  0.78160  0.46190  Biso   1.000  H
  H151     1.0000 0.92150  0.28160  0.03810  Biso   1.000  H
  H152     1.0000 0.07850  0.28160  0.46190  Biso   1.000  H
  H153     1.0000 0.62320  0.26530  0.00560  Biso   1.000  H
  H154     1.0000 0.37680  0.26530  0.49440  Biso   1.000  H
  H155     1.0000 0.12320  0.76530  0.00560  Biso   1.000  H
  H156     1.0000 0.87680  0.76530  0.49440  Biso   1.000  H
  H157     1.0000 0.37680  0.73470  0.99440  Biso   1.000  H
  H158     1.0000 0.62320  0.73470  0.50560  Biso   1.000  H
  H159     1.0000 0.87680  0.23470  0.99440  Biso   1.000  H
  H160     1.0000 0.12320  0.23470  0.50560  Biso   1.000  H
  H161     1.0000 0.49940  0.25720  0.98910  Biso   1.000  H
  H162     1.0000 0.50060  0.25720  0.51090  Biso   1.000  H
  H163     1.0000 0.99940  0.75720  0.98910  Biso   1.000  H
  H164     1.0000 0.00060  0.75720  0.51090  Biso   1.000  H
  H165     1.0000 0.50060  0.74280  0.01090  Biso   1.000  H
  H166     1.0000 0.49940  0.74280  0.48910  Biso   1.000  H
  H167     1.0000 0.00060  0.24280  0.01090  Biso   1.000  H
  H168     1.0000 0.99940  0.24280  0.48910  Biso   1.000  H
  C121     1.0000 0.70790  0.12720  0.00700  Biso   1.000  C
  C122     1.0000 0.29210  0.12720  0.49300  Biso   1.000  C
  C123     1.0000 0.20790  0.62720  0.00700  Biso   1.000  C
  C124     1.0000 0.79210  0.62720  0.49300  Biso   1.000  C
  C125     1.0000 0.29210  0.87280  0.99300  Biso   1.000  C
  C126     1.0000 0.70790  0.87280  0.50700  Biso   1.000  C
  C127     1.0000 0.79210  0.37280  0.99300  Biso   1.000  C
  C128     1.0000 0.20790  0.37280  0.50700  Biso   1.000  C
  H169     1.0000 0.75660  0.15890  0.00520  Biso   1.000  H
  H170     1.0000 0.24340  0.15890  0.49480  Biso   1.000  H
  H171     1.0000 0.25660  0.65890  0.00520  Biso   1.000  H
  H172     1.0000 0.74340  0.65890  0.49480  Biso   1.000  H
  H173     1.0000 0.24340  0.84110  0.99480  Biso   1.000  H
  H174     1.0000 0.75660  0.84110  0.50520  Biso   1.000  H
  H175     1.0000 0.74340  0.34110  0.99480  Biso   1.000  H
  H176     1.0000 0.25660  0.34110  0.50520  Biso   1.000  H
  H177     1.0000 0.66970  0.11930  0.97110  Biso   1.000  H
  H178     1.0000 0.33030  0.11930  0.52890  Biso   1.000  H
  H179     1.0000 0.16970  0.61930  0.97110  Biso   1.000  H
  H180     1.0000 0.83030  0.61930  0.52890  Biso   1.000  H
  H181     1.0000 0.33030  0.88070  0.02890  Biso   1.000  H
  H182     1.0000 0.66970  0.88070  0.47110  Biso   1.000  H
  H183     1.0000 0.83030  0.38070  0.02890  Biso   1.000  H
  H184     1.0000 0.16970  0.38070  0.47110  Biso   1.000  H
  H185     1.0000 0.74730  0.09310  0.02080  Biso   1.000  H
  H186     1.0000 0.25270  0.09310  0.47920  Biso   1.000  H
  H187     1.0000 0.24730  0.59310  0.02080  Biso   1.000  H
  H188     1.0000 0.75270  0.59310  0.47920  Biso   1.000  H
  H189     1.0000 0.25270  0.90690  0.97920  Biso   1.000  H
  H190     1.0000 0.74730  0.90690  0.52080  Biso   1.000  H
  H191     1.0000 0.75270  0.40690  0.97920  Biso   1.000  H
  H192     1.0000 0.24730  0.40690  0.52080  Biso   1.000  H
  N1       1.0000 0.38660  0.36040  0.07490  Biso   1.000  N
  N2       1.0000 0.61340  0.36040  0.42510  Biso   1.000  N
  N3       1.0000 0.88660  0.86040  0.07490  Biso   1.000  N
  N4       1.0000 0.11340  0.86040  0.42510  Biso   1.000  N
  N5       1.0000 0.61340  0.63960  0.92510  Biso   1.000  N
  N6       1.0000 0.38660  0.63960  0.57490  Biso   1.000  N
  N7       1.0000 0.11340  0.13960  0.92510  Biso   1.000  N
  N8       1.0000 0.88660  0.13960  0.57490  Biso   1.000  N
  N9       1.0000 0.27250  0.46410  0.08250  Biso   1.000  N
  N10      1.0000 0.72750  0.46410  0.41750  Biso   1.000  N
  N11      1.0000 0.77250  0.96410  0.08250  Biso   1.000  N
  N12      1.0000 0.22750  0.96410  0.41750  Biso   1.000  N
  N13      1.0000 0.72750  0.53590  0.91750  Biso   1.000  N
  N14      1.0000 0.27250  0.53590  0.58250  Biso   1.000  N
  N15      1.0000 0.22750  0.03590  0.91750  Biso   1.000  N
  N16      1.0000 0.77250  0.03590  0.58250  Biso   1.000  N
  N17      1.0000 0.50780  0.20790  0.07860  Biso   1.000  N
  N18      1.0000 0.49220  0.20790  0.42140  Biso   1.000  N
  N19      1.0000 0.00780  0.70790  0.07860  Biso   1.000  N
  N20      1.0000 0.99220  0.70790  0.42140  Biso   1.000  N
  N21      1.0000 0.49220  0.79210  0.92140  Biso   1.000  N
  N22      1.0000 0.50780  0.79210  0.57860  Biso   1.000  N
  N23      1.0000 0.99220  0.29210  0.92140  Biso   1.000  N
  N24      1.0000 0.00780  0.29210  0.57860  Biso   1.000  N
  N25      1.0000 0.61920  0.10400  0.08370  Biso   1.000  N
  N26      1.0000 0.38080  0.10400  0.41630  Biso   1.000  N
  N27      1.0000 0.11920  0.60400  0.08370  Biso   1.000  N
  N28      1.0000 0.88080  0.60400  0.41630  Biso   1.000  N
  N29      1.0000 0.38080  0.89600  0.91630  Biso   1.000  N
  N30      1.0000 0.61920  0.89600  0.58370  Biso   1.000  N
  N31      1.0000 0.88080  0.39600  0.91630  Biso   1.000  N
  N32      1.0000 0.11920  0.39600  0.58370  Biso   1.000  N
  O1       1.0000 0.71610  0.22040  0.18850  Biso   1.000  O
  O2       1.0000 0.28390  0.22040  0.31150  Biso   1.000  O
  O3       1.0000 0.21610  0.72040  0.18850  Biso   1.000  O
  O4       1.0000 0.78390  0.72040  0.31150  Biso   1.000  O
  O5       1.0000 0.28390  0.77960  0.81150  Biso   1.000  O
  O6       1.0000 0.71610  0.77960  0.68850  Biso   1.000  O
  O7       1.0000 0.78390  0.27960  0.81150  Biso   1.000  O
  O8       1.0000 0.21610  0.27960  0.68850  Biso   1.000  O
  O9       1.0000 0.05150  0.23770  0.13050  Biso   1.000  O
  O10      1.0000 0.94850  0.23770  0.36950  Biso   1.000  O
  O11      1.0000 0.55150  0.73770  0.13050  Biso   1.000  O
  O12      1.0000 0.44850  0.73770  0.36950  Biso   1.000  O
  O13      1.0000 0.94850  0.76230  0.86950  Biso   1.000  O
  O14      1.0000 0.05150  0.76230  0.63050  Biso   1.000  O
  O15      1.0000 0.44850  0.26230  0.86950  Biso   1.000  O
  O16      1.0000 0.55150  0.26230  0.63050  Biso   1.000  O
  O17      1.0000 0.10000  0.43400  0.18930  Biso   1.000  O
  O18      1.0000 0.90000  0.43400  0.31070  Biso   1.000  O
  O19      1.0000 0.60000  0.93400  0.18930  Biso   1.000  O
  O20      1.0000 0.40000  0.93400  0.31070  Biso   1.000  O
  O21      1.0000 0.90000  0.56600  0.81070  Biso   1.000  O
  O22      1.0000 0.10000  0.56600  0.68930  Biso   1.000  O
  O23      1.0000 0.40000  0.06600  0.81070  Biso   1.000  O
  O24      1.0000 0.60000  0.06600  0.68930  Biso   1.000  O
  O25      1.0000 0.70770  0.44670  0.23890  Biso   1.000  O
  O26      1.0000 0.29230  0.44670  0.26110  Biso   1.000  O
  O27      1.0000 0.20770  0.94670  0.23890  Biso   1.000  O
  O28      1.0000 0.79230  0.94670  0.26110  Biso   1.000  O
  O29      1.0000 0.29230  0.55330  0.76110  Biso   1.000  O
  O30      1.0000 0.70770  0.55330  0.73890  Biso   1.000  O
  O31      1.0000 0.79230  0.05330  0.76110  Biso   1.000  O
  O32      1.0000 0.20770  0.05330  0.73890  Biso   1.000  O
  O33      1.0000 0.71540  0.12380  0.25840  Biso   1.000  O
  O34      1.0000 0.28460  0.12380  0.24160  Biso   1.000  O
  O35      1.0000 0.21540  0.62380  0.25840  Biso   1.000  O
  O36      1.0000 0.78460  0.62380  0.24160  Biso   1.000  O
  O37      1.0000 0.28460  0.87620  0.74160  Biso   1.000  O
  O38      1.0000 0.71540  0.87620  0.75840  Biso   1.000  O
  O39      1.0000 0.78460  0.37620  0.74160  Biso   1.000  O
  O40      1.0000 0.21540  0.37620  0.75840  Biso   1.000  O
  O41      1.0000 0.66750  0.29800  0.09880  Biso   1.000  O
  O42      1.0000 0.33250  0.29800  0.40120  Biso   1.000  O
  O43      1.0000 0.16750  0.79800  0.09880  Biso   1.000  O
  O44      1.0000 0.83250  0.79800  0.40120  Biso   1.000  O
  O45      1.0000 0.33250  0.70200  0.90120  Biso   1.000  O
  O46      1.0000 0.66750  0.70200  0.59880  Biso   1.000  O
  O47      1.0000 0.83250  0.20200  0.90120  Biso   1.000  O
  O48      1.0000 0.16750  0.20200  0.59880  Biso   1.000  O
  O49      1.0000 0.94070  0.44440  0.09950  Biso   1.000  O
  O50      1.0000 0.05930  0.44440  0.40050  Biso   1.000  O
  O51      1.0000 0.44070  0.94440  0.09950  Biso   1.000  O
  O52      1.0000 0.55930  0.94440  0.40050  Biso   1.000  O
  O53      1.0000 0.05930  0.55560  0.90050  Biso   1.000  O
  O54      1.0000 0.94070  0.55560  0.59950  Biso   1.000  O
  O55      1.0000 0.55930  0.05560  0.90050  Biso   1.000  O
  O56      1.0000 0.44070  0.05560  0.59950  Biso   1.000  O
  O57      1.0000 0.24420  0.27270  0.10060  Biso   1.000  O
  O58      1.0000 0.75580  0.27270  0.39940  Biso   1.000  O
  O59      1.0000 0.74420  0.77270  0.10060  Biso   1.000  O
  O60      1.0000 0.25580  0.77270  0.39940  Biso   1.000  O
  O61      1.0000 0.75580  0.72730  0.89940  Biso   1.000  O
  O62      1.0000 0.24420  0.72730  0.60060  Biso   1.000  O
  O63      1.0000 0.25580  0.22730  0.89940  Biso   1.000  O
  O64      1.0000 0.74420  0.22730  0.60060  Biso   1.000  O
  O65      1.0000 0.97150  0.12680  0.09880  Biso   1.000  O
  O66      1.0000 0.02850  0.12680  0.40120  Biso   1.000  O
  O67      1.0000 0.47150  0.62680  0.09880  Biso   1.000  O
  O68      1.0000 0.52850  0.62680  0.40120  Biso   1.000  O
  O69      1.0000 0.02850  0.87320  0.90120  Biso   1.000  O
  O70      1.0000 0.97150  0.87320  0.59880  Biso   1.000  O
  O71      1.0000 0.52850  0.37320  0.90120  Biso   1.000  O
  O72      1.0000 0.47150  0.37320  0.59880  Biso   1.000  O
  O73      1.0000 0.06430  0.32600  0.21100  Biso   1.000  O
  O74      1.0000 0.93570  0.32600  0.28900  Biso   1.000  O
  O75      1.0000 0.56430  0.82600  0.21100  Biso   1.000  O
  O76      1.0000 0.43570  0.82600  0.28900  Biso   1.000  O
  O77      1.0000 0.93570  0.67400  0.78900  Biso   1.000  O
  O78      1.0000 0.06430  0.67400  0.71100  Biso   1.000  O
  O79      1.0000 0.43570  0.17400  0.78900  Biso   1.000  O
  O80      1.0000 0.56430  0.17400  0.71100  Biso   1.000  O
  O81      1.0000 0.91520  0.24410  0.21080  Biso   1.000  O
  O82      1.0000 0.08480  0.24410  0.28920  Biso   1.000  O
  O83      1.0000 0.41520  0.74410  0.21080  Biso   1.000  O
  O84      1.0000 0.58480  0.74410  0.28920  Biso   1.000  O
  O85      1.0000 0.08480  0.75590  0.78920  Biso   1.000  O
  O86      1.0000 0.91520  0.75590  0.71080  Biso   1.000  O
  O87      1.0000 0.58480  0.25590  0.78920  Biso   1.000  O
  O88      1.0000 0.41520  0.25590  0.71080  Biso   1.000  O
  O89      1.0000 0.21780  0.23670  0.20500  Biso   1.000  O
  O90      1.0000 0.78220  0.23670  0.29500  Biso   1.000  O
  O91      1.0000 0.71780  0.73670  0.20500  Biso   1.000  O
  O92      1.0000 0.28220  0.73670  0.29500  Biso   1.000  O
  O93      1.0000 0.78220  0.76330  0.79500  Biso   1.000  O
  O94      1.0000 0.21780  0.76330  0.70500  Biso   1.000  O
  O95      1.0000 0.28220  0.26330  0.79500  Biso   1.000  O
  O96      1.0000 0.71780  0.26330  0.70500  Biso   1.000  O
  O97      1.0000 0.07700  0.35040  0.11170  Biso   1.000  O
  O98      1.0000 0.92300  0.35040  0.38830  Biso   1.000  O
  O99      1.0000 0.57700  0.85040  0.11170  Biso   1.000  O
  O100     1.0000 0.42300  0.85040  0.38830  Biso   1.000  O
  O101     1.0000 0.92300  0.64960  0.88830  Biso   1.000  O
  O102     1.0000 0.07700  0.64960  0.61170  Biso   1.000  O
  O103     1.0000 0.42300  0.14960  0.88830  Biso   1.000  O
  O104     1.0000 0.57700  0.14960  0.61170  Biso   1.000  O
  O105     1.0000 0.75580  0.33320  0.20370  Biso   1.000  O
  O106     1.0000 0.24420  0.33320  0.29630  Biso   1.000  O
  O107     1.0000 0.25580  0.83320  0.20370  Biso   1.000  O
  O108     1.0000 0.74420  0.83320  0.29630  Biso   1.000  O
  O109     1.0000 0.24420  0.66680  0.79630  Biso   1.000  O
  O110     1.0000 0.75580  0.66680  0.70370  Biso   1.000  O
  O111     1.0000 0.74420  0.16680  0.79630  Biso   1.000  O
  O112     1.0000 0.25580  0.16680  0.70370  Biso   1.000  O
  O113     1.0000 0.87690  0.33400  0.12920  Biso   1.000  O
  O114     1.0000 0.12310  0.33400  0.37080  Biso   1.000  O
  O115     1.0000 0.37690  0.83400  0.12920  Biso   1.000  O
  O116     1.0000 0.62310  0.83400  0.37080  Biso   1.000  O
  O117     1.0000 0.12310  0.66600  0.87080  Biso   1.000  O
  O118     1.0000 0.87690  0.66600  0.62920  Biso   1.000  O
  O119     1.0000 0.62310  0.16600  0.87080  Biso   1.000  O
  O120     1.0000 0.37690  0.16600  0.62920  Biso   1.000  O
  O121     1.0000 0.83860  0.22100  0.11170  Biso   1.000  O
  O122     1.0000 0.16140  0.22100  0.38830  Biso   1.000  O
  O123     1.0000 0.33860  0.72100  0.11170  Biso   1.000  O
  O124     1.0000 0.66140  0.72100  0.38830  Biso   1.000  O
  O125     1.0000 0.16140  0.77900  0.88830  Biso   1.000  O
  O126     1.0000 0.83860  0.77900  0.61170  Biso   1.000  O
  O127     1.0000 0.66140  0.27900  0.88830  Biso   1.000  O
  O128     1.0000 0.33860  0.27900  0.61170  Biso   1.000  O
  O129     1.0000 0.89910  0.41500  0.20360  Biso   1.000  O
  O130     1.0000 0.10090  0.41500  0.29640  Biso   1.000  O
  O131     1.0000 0.39910  0.91500  0.20360  Biso   1.000  O
  O132     1.0000 0.60090  0.91500  0.29640  Biso   1.000  O
  O133     1.0000 0.10090  0.58500  0.79640  Biso   1.000  O
  O134     1.0000 0.89910  0.58500  0.70360  Biso   1.000  O
  O135     1.0000 0.60090  0.08500  0.79640  Biso   1.000  O
  O136     1.0000 0.39910  0.08500  0.70360  Biso   1.000  O
  O137     1.0000 0.86270  0.13760  0.18760  Biso   1.000  O
  O138     1.0000 0.13730  0.13760  0.31240  Biso   1.000  O
  O139     1.0000 0.36270  0.63760  0.18760  Biso   1.000  O
  O140     1.0000 0.63730  0.63760  0.31240  Biso   1.000  O
  O141     1.0000 0.13730  0.86240  0.81240  Biso   1.000  O
  O142     1.0000 0.86270  0.86240  0.68760  Biso   1.000  O
  O143     1.0000 0.63730  0.36240  0.81240  Biso   1.000  O
  O144     1.0000 0.36270  0.36240  0.68760  Biso   1.000  O
  O145     1.0000 0.07520  0.15540  0.20520  Biso   1.000  O
  O146     1.0000 0.92480  0.15540  0.29480  Biso   1.000  O
  O147     1.0000 0.57520  0.65540  0.20520  Biso   1.000  O
  O148     1.0000 0.42480  0.65540  0.29480  Biso   1.000  O
  O149     1.0000 0.92480  0.84460  0.79480  Biso   1.000  O
  O150     1.0000 0.07520  0.84460  0.70520  Biso   1.000  O
  O151     1.0000 0.42480  0.34460  0.79480  Biso   1.000  O
  O152     1.0000 0.57520  0.34460  0.70520  Biso   1.000  O
  O153     1.0000 0.24960  0.35030  0.19000  Biso   1.000  O
  O154     1.0000 0.75040  0.35030  0.31000  Biso   1.000  O
  O155     1.0000 0.74960  0.85030  0.19000  Biso   1.000  O
  O156     1.0000 0.25040  0.85030  0.31000  Biso   1.000  O
  O157     1.0000 0.75040  0.64970  0.81000  Biso   1.000  O
  O158     1.0000 0.24960  0.64970  0.69000  Biso   1.000  O
  O159     1.0000 0.25040  0.14970  0.81000  Biso   1.000  O
  O160     1.0000 0.74960  0.14970  0.69000  Biso   1.000  O
  Si1      1.0000 0.00000  0.28520  0.25000  Biso   1.000  Si
  Si2      1.0000 0.50000  0.78520  0.25000  Biso   1.000  Si
  Si3      1.0000 0.00000  0.71480  0.75000  Biso   1.000  Si
  Si4      1.0000 0.50000  0.21480  0.75000  Biso   1.000  Si
  O161     1.0000 0.22300  0.03950  0.13170  Biso   1.000  O
  O162     1.0000 0.77700  0.03950  0.36830  Biso   1.000  O
  O163     1.0000 0.72300  0.53950  0.13170  Biso   1.000  O
  O164     1.0000 0.27700  0.53950  0.36830  Biso   1.000  O
  O165     1.0000 0.77700  0.96050  0.86830  Biso   1.000  O
  O166     1.0000 0.22300  0.96050  0.63170  Biso   1.000  O
  O167     1.0000 0.27700  0.46050  0.86830  Biso   1.000  O
  O168     1.0000 0.72300  0.46050  0.63170  Biso   1.000  O
