data_image0
_cell_length_a       12.8567
_cell_length_b       11.8861
_cell_length_c       22.4652
_cell_angle_alpha    90
_cell_angle_beta     92.158
_cell_angle_gamma    90

_symmetry_space_group_name_H-M    "P 1"
_symmetry_int_tables_number       1

loop_
  _symmetry_equiv_pos_as_xyz
  'x, y, z'

loop_
  _atom_site_label
  _atom_site_occupancy
  _atom_site_fract_x
  _atom_site_fract_y
  _atom_site_fract_z
  _atom_site_thermal_displace_type
  _atom_site_B_iso_or_equiv
  _atom_site_type_symbol
  Cu1      1.0000 0.64434  0.00291  0.27570  Biso   1.000  Cu
  Cu2      1.0000 0.85566  0.50291  0.22430  Biso   1.000  Cu
  Cu3      1.0000 0.35566  0.99709  0.72430  Biso   1.000  Cu
  Cu4      1.0000 0.14434  0.49709  0.77570  Biso   1.000  Cu
  Cu5      1.0000 0.22607  0.97696  0.43892  Biso   1.000  Cu
  Cu6      1.0000 0.27393  0.47696  0.06108  Biso   1.000  Cu
  Cu7      1.0000 0.77393  0.02304  0.56108  Biso   1.000  Cu
  Cu8      1.0000 0.72607  0.52304  0.93892  Biso   1.000  Cu
  Mo1      1.0000 0.43754  0.33484  0.36992  Biso   1.000  Mo
  Mo2      1.0000 0.06246  0.83484  0.13008  Biso   1.000  Mo
  Mo3      1.0000 0.56246  0.66516  0.63008  Biso   1.000  Mo
  Mo4      1.0000 0.93754  0.16516  0.86992  Biso   1.000  Mo
  Mo5      1.0000 0.23408  0.49705  0.54154  Biso   1.000  Mo
  Mo6      1.0000 0.26592  0.99705  0.95846  Biso   1.000  Mo
  Mo7      1.0000 0.76592  0.50295  0.45846  Biso   1.000  Mo
  Mo8      1.0000 0.73408  0.00295  0.04154  Biso   1.000  Mo
  Mo9      1.0000 0.56803  0.59689  0.35508  Biso   1.000  Mo
  Mo10     1.0000 0.93197  0.09689  0.14492  Biso   1.000  Mo
  Mo11     1.0000 0.43197  0.40311  0.64492  Biso   1.000  Mo
  Mo12     1.0000 0.06803  0.90311  0.85508  Biso   1.000  Mo
  Mo13     1.0000 0.30145  0.59099  0.39570  Biso   1.000  Mo
  Mo14     1.0000 0.19855  0.09099  0.10430  Biso   1.000  Mo
  Mo15     1.0000 0.69855  0.40901  0.60430  Biso   1.000  Mo
  Mo16     1.0000 0.80145  0.90901  0.89570  Biso   1.000  Mo
  Mo17     1.0000 0.36704  0.24253  0.51524  Biso   1.000  Mo
  Mo18     1.0000 0.13296  0.74253  0.98476  Biso   1.000  Mo
  Mo19     1.0000 0.63296  0.75747  0.48476  Biso   1.000  Mo
  Mo20     1.0000 0.86704  0.25747  0.01524  Biso   1.000  Mo
  Mo21     1.0000 0.36619  0.75458  0.52462  Biso   1.000  Mo
  Mo22     1.0000 0.13381  0.25458  0.97538  Biso   1.000  Mo
  Mo23     1.0000 0.63381  0.24542  0.47538  Biso   1.000  Mo
  Mo24     1.0000 0.86619  0.74542  0.02462  Biso   1.000  Mo
  C1       1.0000 0.33470  0.94140  0.32860  Biso   1.000  C
  C2       1.0000 0.16530  0.44140  0.17140  Biso   1.000  C
  C3       1.0000 0.66530  0.05860  0.67140  Biso   1.000  C
  C4       1.0000 0.83470  0.55860  0.82860  Biso   1.000  C
  C5       1.0000 0.42140  0.94000  0.29480  Biso   1.000  C
  C6       1.0000 0.07860  0.44000  0.20520  Biso   1.000  C
  C7       1.0000 0.57860  0.06000  0.70520  Biso   1.000  C
  C8       1.0000 0.92140  0.56000  0.79480  Biso   1.000  C
  C9       1.0000 0.43220  0.99360  0.41070  Biso   1.000  C
  C10      1.0000 0.06780  0.49360  0.08930  Biso   1.000  C
  C11      1.0000 0.56780  0.00640  0.58930  Biso   1.000  C
  C12      1.0000 0.93220  0.50640  0.91070  Biso   1.000  C
  H1       1.0000 0.43860  0.01110  0.45100  Biso   1.000  H
  H2       1.0000 0.06140  0.51110  0.04900  Biso   1.000  H
  H3       1.0000 0.56140  0.98890  0.54900  Biso   1.000  H
  H4       1.0000 0.93860  0.48890  0.95100  Biso   1.000  H
  C13      1.0000 0.51980  0.99510  0.37670  Biso   1.000  C
  C14      1.0000 0.98020  0.49510  0.12330  Biso   1.000  C
  C15      1.0000 0.48020  0.00490  0.62330  Biso   1.000  C
  C16      1.0000 0.01980  0.50490  0.87670  Biso   1.000  C
  H5       1.0000 0.58400  0.01370  0.39460  Biso   1.000  H
  H6       1.0000 0.91600  0.51370  0.10540  Biso   1.000  H
  H7       1.0000 0.41600  0.98630  0.60540  Biso   1.000  H
  H8       1.0000 0.08400  0.48630  0.89460  Biso   1.000  H
  C17      1.0000 0.18260  0.01300  0.28780  Biso   1.000  C
  C18      1.0000 0.31740  0.51300  0.21220  Biso   1.000  C
  C19      1.0000 0.81740  0.98700  0.71220  Biso   1.000  C
  C20      1.0000 0.68260  0.48700  0.78780  Biso   1.000  C
  H9       1.0000 0.16160  0.05650  0.32150  Biso   1.000  H
  H10      1.0000 0.33840  0.55650  0.17850  Biso   1.000  H
  H11      1.0000 0.83840  0.94350  0.67850  Biso   1.000  H
  H12      1.0000 0.66160  0.44350  0.82150  Biso   1.000  H
  H13      1.0000 0.12290  0.99820  0.26210  Biso   1.000  H
  H14      1.0000 0.37710  0.49820  0.23790  Biso   1.000  H
  H15      1.0000 0.87710  0.00180  0.73790  Biso   1.000  H
  H16      1.0000 0.62290  0.50180  0.76210  Biso   1.000  H
  H17      1.0000 0.23290  0.05530  0.26640  Biso   1.000  H
  H18      1.0000 0.26710  0.55530  0.23360  Biso   1.000  H
  H19      1.0000 0.76710  0.94470  0.73360  Biso   1.000  H
  H20      1.0000 0.73290  0.44470  0.76640  Biso   1.000  H
  C21      1.0000 0.22720  0.91080  0.30770  Biso   1.000  C
  C22      1.0000 0.27280  0.41080  0.19230  Biso   1.000  C
  C23      1.0000 0.77280  0.08920  0.69230  Biso   1.000  C
  C24      1.0000 0.72720  0.58920  0.80770  Biso   1.000  C
  H21      1.0000 0.22840  0.85640  0.27560  Biso   1.000  H
  H22      1.0000 0.27160  0.35640  0.22440  Biso   1.000  H
  H23      1.0000 0.77160  0.14360  0.72440  Biso   1.000  H
  H24      1.0000 0.72840  0.64360  0.77560  Biso   1.000  H
  H25      1.0000 0.18850  0.87930  0.34000  Biso   1.000  H
  H26      1.0000 0.31150  0.37930  0.16000  Biso   1.000  H
  H27      1.0000 0.81150  0.12070  0.66000  Biso   1.000  H
  H28      1.0000 0.68850  0.62070  0.84000  Biso   1.000  H
  C25      1.0000 0.42180  0.90320  0.23010  Biso   1.000  C
  C26      1.0000 0.07820  0.40320  0.26990  Biso   1.000  C
  C27      1.0000 0.57820  0.09680  0.76990  Biso   1.000  C
  C28      1.0000 0.92180  0.59680  0.73010  Biso   1.000  C
  H29      1.0000 0.48900  0.91780  0.21450  Biso   1.000  H
  H30      1.0000 0.01100  0.41780  0.28550  Biso   1.000  H
  H31      1.0000 0.51100  0.08220  0.78550  Biso   1.000  H
  H32      1.0000 0.98900  0.58220  0.71450  Biso   1.000  H
  H33      1.0000 0.36970  0.94450  0.20750  Biso   1.000  H
  H34      1.0000 0.13030  0.44450  0.29250  Biso   1.000  H
  H35      1.0000 0.63030  0.05550  0.79250  Biso   1.000  H
  H36      1.0000 0.86970  0.55550  0.70750  Biso   1.000  H
  H37      1.0000 0.40700  0.82420  0.22740  Biso   1.000  H
  H38      1.0000 0.09300  0.32420  0.27260  Biso   1.000  H
  H39      1.0000 0.59300  0.17580  0.77260  Biso   1.000  H
  H40      1.0000 0.90700  0.67580  0.72740  Biso   1.000  H
  C29      1.0000 0.74420  0.21470  0.30970  Biso   1.000  C
  C30      1.0000 0.75580  0.71470  0.19030  Biso   1.000  C
  C31      1.0000 0.25580  0.78530  0.69030  Biso   1.000  C
  C32      1.0000 0.24420  0.28530  0.80970  Biso   1.000  C
  H41      1.0000 0.75980  0.17810  0.34560  Biso   1.000  H
  H42      1.0000 0.74020  0.67810  0.15440  Biso   1.000  H
  H43      1.0000 0.24020  0.82190  0.65440  Biso   1.000  H
  H44      1.0000 0.25980  0.32190  0.84560  Biso   1.000  H
  C33      1.0000 0.78600  0.31930  0.29890  Biso   1.000  C
  C34      1.0000 0.71400  0.81930  0.20110  Biso   1.000  C
  C35      1.0000 0.21400  0.68070  0.70110  Biso   1.000  C
  C36      1.0000 0.28600  0.18070  0.79890  Biso   1.000  C
  H45      1.0000 0.82810  0.35260  0.32860  Biso   1.000  H
  H46      1.0000 0.67190  0.85260  0.17140  Biso   1.000  H
  H47      1.0000 0.17190  0.64740  0.67140  Biso   1.000  H
  H48      1.0000 0.32810  0.14740  0.82860  Biso   1.000  H
  C37      1.0000 0.70120  0.32770  0.20800  Biso   1.000  C
  C38      1.0000 0.79880  0.82770  0.29200  Biso   1.000  C
  C39      1.0000 0.29880  0.67230  0.79200  Biso   1.000  C
  C40      1.0000 0.20120  0.17230  0.70800  Biso   1.000  C
  C41      1.0000 0.65640  0.22360  0.21890  Biso   1.000  C
  C42      1.0000 0.84360  0.72360  0.28110  Biso   1.000  C
  C43      1.0000 0.34360  0.77640  0.78110  Biso   1.000  C
  C44      1.0000 0.15640  0.27640  0.71890  Biso   1.000  C
  C45      1.0000 0.57850  0.17340  0.17710  Biso   1.000  C
  C46      1.0000 0.92150  0.67340  0.32290  Biso   1.000  C
  C47      1.0000 0.42150  0.82660  0.82290  Biso   1.000  C
  C48      1.0000 0.07850  0.32660  0.67710  Biso   1.000  C
  H49      1.0000 0.58540  0.09290  0.17770  Biso   1.000  H
  H50      1.0000 0.91460  0.59290  0.32230  Biso   1.000  H
  H51      1.0000 0.41460  0.90710  0.82230  Biso   1.000  H
  H52      1.0000 0.08540  0.40710  0.67770  Biso   1.000  H
  H53      1.0000 0.58930  0.20060  0.13750  Biso   1.000  H
  H54      1.0000 0.91070  0.70060  0.36250  Biso   1.000  H
  H55      1.0000 0.41070  0.79940  0.86250  Biso   1.000  H
  H56      1.0000 0.08930  0.29940  0.63750  Biso   1.000  H
  H57      1.0000 0.50990  0.19380  0.18870  Biso   1.000  H
  H58      1.0000 0.99010  0.69380  0.31130  Biso   1.000  H
  H59      1.0000 0.49010  0.80620  0.81130  Biso   1.000  H
  H60      1.0000 0.00990  0.30620  0.68870  Biso   1.000  H
  C49      1.0000 0.67580  0.39250  0.15140  Biso   1.000  C
  C50      1.0000 0.82420  0.89250  0.34860  Biso   1.000  C
  C51      1.0000 0.32420  0.60750  0.84860  Biso   1.000  C
  C52      1.0000 0.17580  0.10750  0.65140  Biso   1.000  C
  C53      1.0000 0.10490  0.20100  0.45140  Biso   1.000  C
  C54      1.0000 0.39510  0.70100  0.04860  Biso   1.000  C
  C55      1.0000 0.89510  0.79900  0.54860  Biso   1.000  C
  C56      1.0000 0.60490  0.29900  0.95140  Biso   1.000  C
  H61      1.0000 0.14020  0.23640  0.48540  Biso   1.000  H
  H62      1.0000 0.35980  0.73640  0.01460  Biso   1.000  H
  H63      1.0000 0.85980  0.76360  0.51460  Biso   1.000  H
  H64      1.0000 0.64020  0.26360  0.98540  Biso   1.000  H
  H65      1.0000 0.15970  0.16940  0.42800  Biso   1.000  H
  H66      1.0000 0.34030  0.66940  0.07200  Biso   1.000  H
  H67      1.0000 0.84030  0.83060  0.57200  Biso   1.000  H
  H68      1.0000 0.65970  0.33060  0.92800  Biso   1.000  H
  C57      1.0000 0.04910  0.09220  0.47940  Biso   1.000  C
  C58      1.0000 0.45090  0.59220  0.02060  Biso   1.000  C
  C59      1.0000 0.95090  0.90780  0.52060  Biso   1.000  C
  C60      1.0000 0.54910  0.40780  0.97940  Biso   1.000  C
  C61      1.0000 0.95690  0.09970  0.50690  Biso   1.000  C
  C62      1.0000 0.54310  0.59970  0.99310  Biso   1.000  C
  C63      1.0000 0.04310  0.90030  0.49310  Biso   1.000  C
  C64      1.0000 0.45690  0.40030  0.00690  Biso   1.000  C
  C65      1.0000 0.91700  0.22200  0.52260  Biso   1.000  C
  C66      1.0000 0.58300  0.72200  0.97740  Biso   1.000  C
  C67      1.0000 0.08300  0.77800  0.47740  Biso   1.000  C
  C68      1.0000 0.41700  0.27800  0.02260  Biso   1.000  C
  H69      1.0000 0.86090  0.21660  0.54960  Biso   1.000  H
  H70      1.0000 0.63910  0.71660  0.95040  Biso   1.000  H
  H71      1.0000 0.13910  0.78340  0.45040  Biso   1.000  H
  H72      1.0000 0.36090  0.28340  0.04960  Biso   1.000  H
  H73      1.0000 0.97290  0.26470  0.54090  Biso   1.000  H
  H74      1.0000 0.52710  0.76470  0.95910  Biso   1.000  H
  H75      1.0000 0.02710  0.73530  0.45910  Biso   1.000  H
  H76      1.0000 0.47290  0.23530  0.04090  Biso   1.000  H
  H77      1.0000 0.89240  0.25930  0.48670  Biso   1.000  H
  H78      1.0000 0.60760  0.75930  0.01330  Biso   1.000  H
  H79      1.0000 0.10760  0.74070  0.51330  Biso   1.000  H
  H80      1.0000 0.39240  0.24070  0.98670  Biso   1.000  H
  C69      1.0000 0.06300  0.30300  0.41270  Biso   1.000  C
  C70      1.0000 0.43700  0.80300  0.08730  Biso   1.000  C
  C71      1.0000 0.93700  0.69700  0.58730  Biso   1.000  C
  C72      1.0000 0.56300  0.19700  0.91270  Biso   1.000  C
  H81      1.0000 0.02440  0.27530  0.37830  Biso   1.000  H
  H82      1.0000 0.47560  0.77530  0.12170  Biso   1.000  H
  H83      1.0000 0.97560  0.72470  0.62170  Biso   1.000  H
  H84      1.0000 0.52440  0.22470  0.87830  Biso   1.000  H
  H85      1.0000 0.12030  0.34770  0.40020  Biso   1.000  H
  H86      1.0000 0.37970  0.84770  0.09980  Biso   1.000  H
  H87      1.0000 0.87970  0.65230  0.59980  Biso   1.000  H
  H88      1.0000 0.62030  0.15230  0.90020  Biso   1.000  H
  H89      1.0000 0.01800  0.34870  0.43600  Biso   1.000  H
  H90      1.0000 0.48200  0.84870  0.06400  Biso   1.000  H
  H91      1.0000 0.98200  0.65130  0.56400  Biso   1.000  H
  H92      1.0000 0.51800  0.15130  0.93600  Biso   1.000  H
  N1       1.0000 0.34110  0.96820  0.38740  Biso   1.000  N
  N2       1.0000 0.15890  0.46820  0.11260  Biso   1.000  N
  N3       1.0000 0.65890  0.03180  0.61260  Biso   1.000  N
  N4       1.0000 0.84110  0.53180  0.88740  Biso   1.000  N
  N5       1.0000 0.51380  0.97040  0.31870  Biso   1.000  N
  N6       1.0000 0.98620  0.47040  0.18130  Biso   1.000  N
  N7       1.0000 0.48620  0.02960  0.68130  Biso   1.000  N
  N8       1.0000 0.01380  0.52960  0.81870  Biso   1.000  N
  N9       1.0000 0.68090  0.16600  0.26830  Biso   1.000  N
  N10      1.0000 0.81910  0.66600  0.23170  Biso   1.000  N
  N11      1.0000 0.31910  0.83400  0.73170  Biso   1.000  N
  N12      1.0000 0.18090  0.33400  0.76830  Biso   1.000  N
  N13      1.0000 0.76890  0.37500  0.24790  Biso   1.000  N
  N14      1.0000 0.73110  0.87500  0.25210  Biso   1.000  N
  N15      1.0000 0.23110  0.62500  0.75210  Biso   1.000  N
  N16      1.0000 0.26890  0.12500  0.74790  Biso   1.000  N
  N17      1.0000 0.09100  0.99070  0.47180  Biso   1.000  N
  N18      1.0000 0.40900  0.49070  0.02820  Biso   1.000  N
  N19      1.0000 0.90900  0.00930  0.52820  Biso   1.000  N
  N20      1.0000 0.59100  0.50930  0.97180  Biso   1.000  N
  O1       1.0000 0.48040  0.38220  0.46820  Biso   1.000  O
  O2       1.0000 0.01960  0.88220  0.03180  Biso   1.000  O
  O3       1.0000 0.51960  0.61780  0.53180  Biso   1.000  O
  O4       1.0000 0.98040  0.11780  0.96820  Biso   1.000  O
  O5       1.0000 0.47390  0.50480  0.44070  Biso   1.000  O
  O6       1.0000 0.02610  0.00480  0.05930  Biso   1.000  O
  O7       1.0000 0.52610  0.49520  0.55930  Biso   1.000  O
  O8       1.0000 0.97390  0.99520  0.94070  Biso   1.000  O
  O9       1.0000 0.57300  0.56330  0.45830  Biso   1.000  O
  O10      1.0000 0.92700  0.06330  0.04170  Biso   1.000  O
  O11      1.0000 0.42700  0.43670  0.54170  Biso   1.000  O
  O12      1.0000 0.07300  0.93670  0.95830  Biso   1.000  O
  O13      1.0000 0.38500  0.56140  0.48620  Biso   1.000  O
  O14      1.0000 0.11500  0.06140  0.01380  Biso   1.000  O
  O15      1.0000 0.61500  0.43860  0.51380  Biso   1.000  O
  O16      1.0000 0.88500  0.93860  0.98620  Biso   1.000  O
  O17      1.0000 0.20890  0.63550  0.34880  Biso   1.000  O
  O18      1.0000 0.29110  0.13550  0.15120  Biso   1.000  O
  O19      1.0000 0.79110  0.36450  0.65120  Biso   1.000  O
  O20      1.0000 0.70890  0.86450  0.84880  Biso   1.000  O
  O21      1.0000 0.11080  0.49770  0.55970  Biso   1.000  O
  O22      1.0000 0.38920  0.99770  0.94030  Biso   1.000  O
  O23      1.0000 0.88920  0.50230  0.44030  Biso   1.000  O
  O24      1.0000 0.61080  0.00230  0.05970  Biso   1.000  O
  O25      1.0000 0.25610  0.34420  0.51900  Biso   1.000  O
  O26      1.0000 0.24390  0.84420  0.98100  Biso   1.000  O
  O27      1.0000 0.74390  0.65580  0.48100  Biso   1.000  O
  O28      1.0000 0.75610  0.15580  0.01900  Biso   1.000  O
  O29      1.0000 0.30270  0.87510  0.53550  Biso   1.000  O
  O30      1.0000 0.19730  0.37510  0.96450  Biso   1.000  O
  O31      1.0000 0.69730  0.12490  0.46450  Biso   1.000  O
  O32      1.0000 0.80270  0.62490  0.03550  Biso   1.000  O
  O33      1.0000 0.30350  0.46430  0.61620  Biso   1.000  O
  O34      1.0000 0.19650  0.96430  0.88380  Biso   1.000  O
  O35      1.0000 0.69650  0.53570  0.38380  Biso   1.000  O
  O36      1.0000 0.80350  0.03570  0.11620  Biso   1.000  O
  O37      1.0000 0.59780  0.72440  0.40360  Biso   1.000  O
  O38      1.0000 0.90220  0.22440  0.09640  Biso   1.000  O
  O39      1.0000 0.40220  0.27560  0.59640  Biso   1.000  O
  O40      1.0000 0.09780  0.77560  0.90360  Biso   1.000  O
  O41      1.0000 0.52400  0.44790  0.33850  Biso   1.000  O
  O42      1.0000 0.97600  0.94790  0.16150  Biso   1.000  O
  O43      1.0000 0.47600  0.55210  0.66150  Biso   1.000  O
  O44      1.0000 0.02400  0.05210  0.83850  Biso   1.000  O
  O45      1.0000 0.42580  0.63940  0.35840  Biso   1.000  O
  O46      1.0000 0.07420  0.13940  0.14160  Biso   1.000  O
  O47      1.0000 0.57420  0.36060  0.64160  Biso   1.000  O
  O48      1.0000 0.92580  0.86060  0.85840  Biso   1.000  O
  O49      1.0000 0.40790  0.25610  0.31070  Biso   1.000  O
  O50      1.0000 0.09210  0.75610  0.18930  Biso   1.000  O
  O51      1.0000 0.59210  0.74390  0.68930  Biso   1.000  O
  O52      1.0000 0.90790  0.24390  0.81070  Biso   1.000  O
  O53      1.0000 0.32780  0.44340  0.36800  Biso   1.000  O
  O54      1.0000 0.17220  0.94340  0.13200  Biso   1.000  O
  O55      1.0000 0.67220  0.55660  0.63200  Biso   1.000  O
  O56      1.0000 0.82780  0.05660  0.86800  Biso   1.000  O
  O57      1.0000 0.30590  0.12010  0.52040  Biso   1.000  O
  O58      1.0000 0.19410  0.62010  0.97960  Biso   1.000  O
  O59      1.0000 0.69410  0.87990  0.47960  Biso   1.000  O
  O60      1.0000 0.80590  0.37990  0.02040  Biso   1.000  O
  P1       1.0000 0.50000  0.50000  0.50000  Biso   1.000  P
  P2       1.0000 0.00000  0.00000  0.00000  Biso   1.000  P
  O61      1.0000 0.29330  0.72790  0.43970  Biso   1.000  O
  O62      1.0000 0.20670  0.22790  0.06030  Biso   1.000  O
  O63      1.0000 0.70670  0.27210  0.56030  Biso   1.000  O
  O64      1.0000 0.79330  0.77210  0.93970  Biso   1.000  O
  O65      1.0000 0.19900  0.53320  0.44860  Biso   1.000  O
  O66      1.0000 0.30100  0.03320  0.05140  Biso   1.000  O
  O67      1.0000 0.80100  0.46680  0.55140  Biso   1.000  O
  O68      1.0000 0.69900  0.96680  0.94860  Biso   1.000  O
  O69      1.0000 0.29640  0.63810  0.55950  Biso   1.000  O
  O70      1.0000 0.20360  0.13810  0.94050  Biso   1.000  O
  O71      1.0000 0.70360  0.36190  0.44050  Biso   1.000  O
  O72      1.0000 0.79640  0.86190  0.05950  Biso   1.000  O
  O73      1.0000 0.57810  0.64300  0.28010  Biso   1.000  O
  O74      1.0000 0.92190  0.14300  0.21990  Biso   1.000  O
  O75      1.0000 0.42190  0.35700  0.71990  Biso   1.000  O
  O76      1.0000 0.07810  0.85700  0.78010  Biso   1.000  O
  O77      1.0000 0.56570  0.28080  0.41290  Biso   1.000  O
  O78      1.0000 0.93430  0.78080  0.08710  Biso   1.000  O
  O79      1.0000 0.43430  0.71920  0.58710  Biso   1.000  O
  O80      1.0000 0.06570  0.21920  0.91290  Biso   1.000  O
  O81      1.0000 0.37320  0.28280  0.44270  Biso   1.000  O
  O82      1.0000 0.12680  0.78280  0.05730  Biso   1.000  O
  O83      1.0000 0.62680  0.71720  0.55730  Biso   1.000  O
  O84      1.0000 0.87320  0.21720  0.94270  Biso   1.000  O
  O85      1.0000 0.51670  0.21390  0.51930  Biso   1.000  O
  O86      1.0000 0.98330  0.71390  0.98070  Biso   1.000  O
  O87      1.0000 0.48330  0.78610  0.48070  Biso   1.000  O
  O88      1.0000 0.01670  0.28610  0.01930  Biso   1.000  O
  C73      1.0000 0.57430  0.45800  0.16000  Biso   1.000  C
  C74      1.0000 0.92570  0.95800  0.34000  Biso   1.000  C
  C75      1.0000 0.42570  0.54200  0.84000  Biso   1.000  C
  C76      1.0000 0.07430  0.04200  0.66000  Biso   1.000  C
  O89      1.0000 0.64460  0.29530  0.54450  Biso   1.000  O
  O90      1.0000 0.85540  0.79530  0.95550  Biso   1.000  O
  O91      1.0000 0.35540  0.70470  0.45550  Biso   1.000  O
  O92      1.0000 0.14460  0.20470  0.04450  Biso   1.000  O
  O93      1.0000 0.25890  0.51660  0.46960  Biso   1.000  O
  O94      1.0000 0.24110  0.01660  0.03040  Biso   1.000  O
  O95      1.0000 0.74110  0.48340  0.53040  Biso   1.000  O
  O96      1.0000 0.75890  0.98340  0.96960  Biso   1.000  O
  O97      1.0000 0.76310  0.33670  0.45630  Biso   1.000  O
  O98      1.0000 0.73690  0.83670  0.04370  Biso   1.000  O
  O99      1.0000 0.23690  0.66330  0.54370  Biso   1.000  O
  O100     1.0000 0.26310  0.16330  0.95630  Biso   1.000  O
  O101     1.0000 0.62410  0.65000  0.30010  Biso   1.000  O
  O102     1.0000 0.87590  0.15000  0.19990  Biso   1.000  O
  O103     1.0000 0.37590  0.35000  0.69990  Biso   1.000  O
  O104     1.0000 0.12410  0.85000  0.80010  Biso   1.000  O
  O105     1.0000 0.54900  0.23640  0.38690  Biso   1.000  O
  O106     1.0000 0.95100  0.73640  0.11310  Biso   1.000  O
  O107     1.0000 0.45100  0.76360  0.61310  Biso   1.000  O
  O108     1.0000 0.04900  0.26360  0.88690  Biso   1.000  O
  O109     1.0000 0.34700  0.23530  0.41640  Biso   1.000  O
  O110     1.0000 0.15300  0.73530  0.08360  Biso   1.000  O
  O111     1.0000 0.65300  0.76470  0.58360  Biso   1.000  O
  O112     1.0000 0.84700  0.26470  0.91640  Biso   1.000  O
  O113     1.0000 0.49220  0.16900  0.49220  Biso   1.000  O
  O114     1.0000 0.00780  0.66900  0.00780  Biso   1.000  O
  O115     1.0000 0.50780  0.83100  0.50780  Biso   1.000  O
  O116     1.0000 0.99220  0.33100  0.99220  Biso   1.000  O
  C77      1.0000 0.72810  0.44870  0.13020  Biso   1.000  C
  C78      1.0000 0.77190  0.94870  0.36980  Biso   1.000  C
  C79      1.0000 0.27190  0.55130  0.86980  Biso   1.000  C
  C80      1.0000 0.22810  0.05130  0.63020  Biso   1.000  C
