data_image0
_cell_length_a       23.4725
_cell_length_b       12.0745
_cell_length_c       23.1288
_cell_angle_alpha    90
_cell_angle_beta     112.811
_cell_angle_gamma    90

_symmetry_space_group_name_H-M    "P 1"
_symmetry_int_tables_number       1

loop_
  _symmetry_equiv_pos_as_xyz
  'x, y, z'

loop_
  _atom_site_label
  _atom_site_occupancy
  _atom_site_fract_x
  _atom_site_fract_y
  _atom_site_fract_z
  _atom_site_thermal_displace_type
  _atom_site_B_iso_or_equiv
  _atom_site_type_symbol
  Cu1      1.0000 0.69673  0.67035  0.61494  Biso   1.000  Cu
  Cu2      1.0000 0.30327  0.67035  0.88506  Biso   1.000  Cu
  Cu3      1.0000 0.19673  0.17035  0.61494  Biso   1.000  Cu
  Cu4      1.0000 0.80327  0.17035  0.88506  Biso   1.000  Cu
  Cu5      1.0000 0.30327  0.32965  0.38506  Biso   1.000  Cu
  Cu6      1.0000 0.69673  0.32965  0.11494  Biso   1.000  Cu
  Cu7      1.0000 0.80327  0.82965  0.38506  Biso   1.000  Cu
  Cu8      1.0000 0.19673  0.82965  0.11494  Biso   1.000  Cu
  Cu9      1.0000 0.44271  0.81258  0.37729  Biso   1.000  Cu
  Cu10     1.0000 0.55729  0.81258  0.12271  Biso   1.000  Cu
  Cu11     1.0000 0.94271  0.31258  0.37729  Biso   1.000  Cu
  Cu12     1.0000 0.05729  0.31258  0.12271  Biso   1.000  Cu
  Cu13     1.0000 0.55729  0.18742  0.62271  Biso   1.000  Cu
  Cu14     1.0000 0.44271  0.18742  0.87729  Biso   1.000  Cu
  Cu15     1.0000 0.05729  0.68742  0.62271  Biso   1.000  Cu
  Cu16     1.0000 0.94271  0.68742  0.87729  Biso   1.000  Cu
  Mo1      1.0000 0.88887  0.35849  0.61484  Biso   1.000  Mo
  Mo2      1.0000 0.11113  0.35849  0.88516  Biso   1.000  Mo
  Mo3      1.0000 0.38887  0.85849  0.61484  Biso   1.000  Mo
  Mo4      1.0000 0.61113  0.85849  0.88516  Biso   1.000  Mo
  Mo5      1.0000 0.11113  0.64151  0.38516  Biso   1.000  Mo
  Mo6      1.0000 0.88887  0.64151  0.11484  Biso   1.000  Mo
  Mo7      1.0000 0.61113  0.14151  0.38516  Biso   1.000  Mo
  Mo8      1.0000 0.38887  0.14151  0.11484  Biso   1.000  Mo
  Mo9      1.0000 0.78761  0.19633  0.66226  Biso   1.000  Mo
  Mo10     1.0000 0.21239  0.19633  0.83774  Biso   1.000  Mo
  Mo11     1.0000 0.28761  0.69633  0.66226  Biso   1.000  Mo
  Mo12     1.0000 0.71239  0.69633  0.83774  Biso   1.000  Mo
  Mo13     1.0000 0.21239  0.80367  0.33774  Biso   1.000  Mo
  Mo14     1.0000 0.78761  0.80367  0.16226  Biso   1.000  Mo
  Mo15     1.0000 0.71239  0.30367  0.33774  Biso   1.000  Mo
  Mo16     1.0000 0.28761  0.30367  0.16226  Biso   1.000  Mo
  Mo17     1.0000 0.87611  0.06928  0.58352  Biso   1.000  Mo
  Mo18     1.0000 0.12389  0.06928  0.91648  Biso   1.000  Mo
  Mo19     1.0000 0.37611  0.56928  0.58352  Biso   1.000  Mo
  Mo20     1.0000 0.62389  0.56928  0.91648  Biso   1.000  Mo
  Mo21     1.0000 0.12389  0.93072  0.41648  Biso   1.000  Mo
  Mo22     1.0000 0.87611  0.93072  0.08352  Biso   1.000  Mo
  Mo23     1.0000 0.62389  0.43072  0.41648  Biso   1.000  Mo
  Mo24     1.0000 0.37611  0.43072  0.08352  Biso   1.000  Mo
  Mo25     1.0000 0.84966  0.41766  0.45296  Biso   1.000  Mo
  Mo26     1.0000 0.15034  0.41766  0.04704  Biso   1.000  Mo
  Mo27     1.0000 0.34966  0.91766  0.45296  Biso   1.000  Mo
  Mo28     1.0000 0.65034  0.91766  0.04704  Biso   1.000  Mo
  Mo29     1.0000 0.15034  0.58234  0.54704  Biso   1.000  Mo
  Mo30     1.0000 0.84966  0.58234  0.95296  Biso   1.000  Mo
  Mo31     1.0000 0.65034  0.08234  0.54704  Biso   1.000  Mo
  Mo32     1.0000 0.34966  0.08234  0.95296  Biso   1.000  Mo
  Mo33     1.0000 0.76321  0.53746  0.53191  Biso   1.000  Mo
  Mo34     1.0000 0.23679  0.53746  0.96809  Biso   1.000  Mo
  Mo35     1.0000 0.26321  0.03746  0.53191  Biso   1.000  Mo
  Mo36     1.0000 0.73679  0.03746  0.96809  Biso   1.000  Mo
  Mo37     1.0000 0.23679  0.46254  0.46809  Biso   1.000  Mo
  Mo38     1.0000 0.76321  0.46254  0.03191  Biso   1.000  Mo
  Mo39     1.0000 0.73679  0.96254  0.46809  Biso   1.000  Mo
  Mo40     1.0000 0.26321  0.96254  0.03191  Biso   1.000  Mo
  Mo41     1.0000 0.83904  0.12634  0.42182  Biso   1.000  Mo
  Mo42     1.0000 0.16096  0.12634  0.07818  Biso   1.000  Mo
  Mo43     1.0000 0.33904  0.62634  0.42182  Biso   1.000  Mo
  Mo44     1.0000 0.66096  0.62634  0.07818  Biso   1.000  Mo
  Mo45     1.0000 0.16096  0.87366  0.57818  Biso   1.000  Mo
  Mo46     1.0000 0.83904  0.87366  0.92182  Biso   1.000  Mo
  Mo47     1.0000 0.66096  0.37366  0.57818  Biso   1.000  Mo
  Mo48     1.0000 0.33904  0.37366  0.92182  Biso   1.000  Mo
  C1       1.0000 0.62220  0.73710  0.49320  Biso   1.000  C
  C2       1.0000 0.37780  0.73710  0.00680  Biso   1.000  C
  C3       1.0000 0.12220  0.23710  0.49320  Biso   1.000  C
  C4       1.0000 0.87780  0.23710  0.00680  Biso   1.000  C
  C5       1.0000 0.37780  0.26290  0.50680  Biso   1.000  C
  C6       1.0000 0.62220  0.26290  0.99320  Biso   1.000  C
  C7       1.0000 0.87780  0.76290  0.50680  Biso   1.000  C
  C8       1.0000 0.12220  0.76290  0.99320  Biso   1.000  C
  H1       1.0000 0.65970  0.73180  0.48850  Biso   1.000  H
  H2       1.0000 0.34030  0.73180  0.01150  Biso   1.000  H
  H3       1.0000 0.15970  0.23180  0.48850  Biso   1.000  H
  H4       1.0000 0.84030  0.23180  0.01150  Biso   1.000  H
  H5       1.0000 0.34030  0.26820  0.51150  Biso   1.000  H
  H6       1.0000 0.65970  0.26820  0.98850  Biso   1.000  H
  H7       1.0000 0.84030  0.76820  0.51150  Biso   1.000  H
  H8       1.0000 0.15970  0.76820  0.98850  Biso   1.000  H
  C9       1.0000 0.57040  0.76750  0.44210  Biso   1.000  C
  C10      1.0000 0.42960  0.76750  0.05790  Biso   1.000  C
  C11      1.0000 0.07040  0.26750  0.44210  Biso   1.000  C
  C12      1.0000 0.92960  0.26750  0.05790  Biso   1.000  C
  C13      1.0000 0.42960  0.23250  0.55790  Biso   1.000  C
  C14      1.0000 0.57040  0.23250  0.94210  Biso   1.000  C
  C15      1.0000 0.92960  0.73250  0.55790  Biso   1.000  C
  C16      1.0000 0.07040  0.73250  0.94210  Biso   1.000  C
  C17      1.0000 0.57220  0.78830  0.37870  Biso   1.000  C
  C18      1.0000 0.42780  0.78830  0.12130  Biso   1.000  C
  C19      1.0000 0.07220  0.28830  0.37870  Biso   1.000  C
  C20      1.0000 0.92780  0.28830  0.12130  Biso   1.000  C
  C21      1.0000 0.42780  0.21170  0.62130  Biso   1.000  C
  C22      1.0000 0.57220  0.21170  0.87870  Biso   1.000  C
  C23      1.0000 0.92780  0.71170  0.62130  Biso   1.000  C
  C24      1.0000 0.07220  0.71170  0.87870  Biso   1.000  C
  H9       1.0000 0.53180  0.80960  0.34960  Biso   1.000  H
  H10      1.0000 0.46820  0.80960  0.15040  Biso   1.000  H
  H11      1.0000 0.03180  0.30960  0.34960  Biso   1.000  H
  H12      1.0000 0.96820  0.30960  0.15040  Biso   1.000  H
  H13      1.0000 0.46820  0.19040  0.65040  Biso   1.000  H
  H14      1.0000 0.53180  0.19040  0.84960  Biso   1.000  H
  H15      1.0000 0.96820  0.69040  0.65040  Biso   1.000  H
  H16      1.0000 0.03180  0.69040  0.84960  Biso   1.000  H
  H17      1.0000 0.60110  0.84660  0.38190  Biso   1.000  H
  H18      1.0000 0.39890  0.84660  0.11810  Biso   1.000  H
  H19      1.0000 0.10110  0.34660  0.38190  Biso   1.000  H
  H20      1.0000 0.89890  0.34660  0.11810  Biso   1.000  H
  H21      1.0000 0.39890  0.15340  0.61810  Biso   1.000  H
  H22      1.0000 0.60110  0.15340  0.88190  Biso   1.000  H
  H23      1.0000 0.89890  0.65340  0.61810  Biso   1.000  H
  H24      1.0000 0.10110  0.65340  0.88190  Biso   1.000  H
  H25      1.0000 0.58490  0.72200  0.36410  Biso   1.000  H
  H26      1.0000 0.41510  0.72200  0.13590  Biso   1.000  H
  H27      1.0000 0.08490  0.22200  0.36410  Biso   1.000  H
  H28      1.0000 0.91510  0.22200  0.13590  Biso   1.000  H
  H29      1.0000 0.41510  0.27800  0.63590  Biso   1.000  H
  H30      1.0000 0.58490  0.27800  0.86410  Biso   1.000  H
  H31      1.0000 0.91510  0.77800  0.63590  Biso   1.000  H
  H32      1.0000 0.08490  0.77800  0.86410  Biso   1.000  H
  C25      1.0000 0.51620  0.75600  0.50540  Biso   1.000  C
  C26      1.0000 0.48380  0.75600  0.99460  Biso   1.000  C
  C27      1.0000 0.01620  0.25600  0.50540  Biso   1.000  C
  C28      1.0000 0.98380  0.25600  0.99460  Biso   1.000  C
  C29      1.0000 0.48380  0.24400  0.49460  Biso   1.000  C
  C30      1.0000 0.51620  0.24400  0.00540  Biso   1.000  C
  C31      1.0000 0.98380  0.74400  0.49460  Biso   1.000  C
  C32      1.0000 0.01620  0.74400  0.00540  Biso   1.000  C
  H33      1.0000 0.47930  0.76450  0.51080  Biso   1.000  H
  H34      1.0000 0.52070  0.76450  0.98920  Biso   1.000  H
  H35      1.0000 0.97930  0.26450  0.51080  Biso   1.000  H
  H36      1.0000 0.02070  0.26450  0.98920  Biso   1.000  H
  H37      1.0000 0.52070  0.23550  0.48920  Biso   1.000  H
  H38      1.0000 0.47930  0.23550  0.01080  Biso   1.000  H
  H39      1.0000 0.02070  0.73550  0.48920  Biso   1.000  H
  H40      1.0000 0.97930  0.73550  0.01080  Biso   1.000  H
  C33      1.0000 0.56730  0.72250  0.55610  Biso   1.000  C
  C34      1.0000 0.43270  0.72250  0.94390  Biso   1.000  C
  C35      1.0000 0.06730  0.22250  0.55610  Biso   1.000  C
  C36      1.0000 0.93270  0.22250  0.94390  Biso   1.000  C
  C37      1.0000 0.43270  0.27750  0.44390  Biso   1.000  C
  C38      1.0000 0.56730  0.27750  0.05610  Biso   1.000  C
  C39      1.0000 0.93270  0.77750  0.44390  Biso   1.000  C
  C40      1.0000 0.06730  0.77750  0.05610  Biso   1.000  C
  C41      1.0000 0.56360  0.69480  0.61680  Biso   1.000  C
  C42      1.0000 0.43640  0.69480  0.88320  Biso   1.000  C
  C43      1.0000 0.06360  0.19480  0.61680  Biso   1.000  C
  C44      1.0000 0.93640  0.19480  0.88320  Biso   1.000  C
  C45      1.0000 0.43640  0.30520  0.38320  Biso   1.000  C
  C46      1.0000 0.56360  0.30520  0.11680  Biso   1.000  C
  C47      1.0000 0.93640  0.80520  0.38320  Biso   1.000  C
  C48      1.0000 0.06360  0.80520  0.11680  Biso   1.000  C
  H41      1.0000 0.60370  0.67310  0.64630  Biso   1.000  H
  H42      1.0000 0.39630  0.67310  0.85370  Biso   1.000  H
  H43      1.0000 0.10370  0.17310  0.64630  Biso   1.000  H
  H44      1.0000 0.89630  0.17310  0.85370  Biso   1.000  H
  H45      1.0000 0.39630  0.32690  0.35370  Biso   1.000  H
  H46      1.0000 0.60370  0.32690  0.14630  Biso   1.000  H
  H47      1.0000 0.89630  0.82690  0.35370  Biso   1.000  H
  H48      1.0000 0.10370  0.82690  0.14630  Biso   1.000  H
  H49      1.0000 0.54970  0.75840  0.63260  Biso   1.000  H
  H50      1.0000 0.45030  0.75840  0.86740  Biso   1.000  H
  H51      1.0000 0.04970  0.25840  0.63260  Biso   1.000  H
  H52      1.0000 0.95030  0.25840  0.86740  Biso   1.000  H
  H53      1.0000 0.45030  0.24160  0.36740  Biso   1.000  H
  H54      1.0000 0.54970  0.24160  0.13260  Biso   1.000  H
  H55      1.0000 0.95030  0.74160  0.36740  Biso   1.000  H
  H56      1.0000 0.04970  0.74160  0.13260  Biso   1.000  H
  H57      1.0000 0.53500  0.63490  0.61100  Biso   1.000  H
  H58      1.0000 0.46500  0.63490  0.88900  Biso   1.000  H
  H59      1.0000 0.03500  0.13490  0.61100  Biso   1.000  H
  H60      1.0000 0.96500  0.13490  0.88900  Biso   1.000  H
  H61      1.0000 0.46500  0.36510  0.38900  Biso   1.000  H
  H62      1.0000 0.53500  0.36510  0.11100  Biso   1.000  H
  H63      1.0000 0.96500  0.86510  0.38900  Biso   1.000  H
  H64      1.0000 0.03500  0.86510  0.11100  Biso   1.000  H
  C49      1.0000 0.89290  0.47160  0.79170  Biso   1.000  C
  C50      1.0000 0.10710  0.47160  0.70830  Biso   1.000  C
  C51      1.0000 0.39290  0.97160  0.79170  Biso   1.000  C
  C52      1.0000 0.60710  0.97160  0.70830  Biso   1.000  C
  C53      1.0000 0.10710  0.52840  0.20830  Biso   1.000  C
  C54      1.0000 0.89290  0.52840  0.29170  Biso   1.000  C
  C55      1.0000 0.60710  0.02840  0.20830  Biso   1.000  C
  C56      1.0000 0.39290  0.02840  0.29170  Biso   1.000  C
  H65      1.0000 0.92830  0.48870  0.82890  Biso   1.000  H
  H66      1.0000 0.07170  0.48870  0.67110  Biso   1.000  H
  H67      1.0000 0.42830  0.98870  0.82890  Biso   1.000  H
  H68      1.0000 0.57170  0.98870  0.67110  Biso   1.000  H
  H69      1.0000 0.07170  0.51130  0.17110  Biso   1.000  H
  H70      1.0000 0.92830  0.51130  0.32890  Biso   1.000  H
  H71      1.0000 0.57170  0.01130  0.17110  Biso   1.000  H
  H72      1.0000 0.42830  0.01130  0.32890  Biso   1.000  H
  H73      1.0000 0.90620  0.43940  0.76100  Biso   1.000  H
  H74      1.0000 0.09380  0.43940  0.73900  Biso   1.000  H
  H75      1.0000 0.40620  0.93940  0.76100  Biso   1.000  H
  H76      1.0000 0.59380  0.93940  0.73900  Biso   1.000  H
  H77      1.0000 0.09380  0.56060  0.23900  Biso   1.000  H
  H78      1.0000 0.90620  0.56060  0.26100  Biso   1.000  H
  H79      1.0000 0.59380  0.06060  0.23900  Biso   1.000  H
  H80      1.0000 0.40620  0.06060  0.26100  Biso   1.000  H
  H81      1.0000 0.86690  0.42020  0.80160  Biso   1.000  H
  H82      1.0000 0.13310  0.42020  0.69840  Biso   1.000  H
  H83      1.0000 0.36690  0.92020  0.80160  Biso   1.000  H
  H84      1.0000 0.63310  0.92020  0.69840  Biso   1.000  H
  H85      1.0000 0.13310  0.57980  0.19840  Biso   1.000  H
  H86      1.0000 0.86690  0.57980  0.30160  Biso   1.000  H
  H87      1.0000 0.63310  0.07980  0.19840  Biso   1.000  H
  H88      1.0000 0.36690  0.07980  0.30160  Biso   1.000  H
  C57      1.0000 0.85770  0.57490  0.76590  Biso   1.000  C
  C58      1.0000 0.14230  0.57490  0.73410  Biso   1.000  C
  C59      1.0000 0.35770  0.07490  0.76590  Biso   1.000  C
  C60      1.0000 0.64230  0.07490  0.73410  Biso   1.000  C
  C61      1.0000 0.14230  0.42510  0.23410  Biso   1.000  C
  C62      1.0000 0.85770  0.42510  0.26590  Biso   1.000  C
  C63      1.0000 0.64230  0.92510  0.23410  Biso   1.000  C
  C64      1.0000 0.35770  0.92510  0.26590  Biso   1.000  C
  C65      1.0000 0.80440  0.57680  0.71160  Biso   1.000  C
  C66      1.0000 0.19560  0.57680  0.78840  Biso   1.000  C
  C67      1.0000 0.30440  0.07680  0.71160  Biso   1.000  C
  C68      1.0000 0.69560  0.07680  0.78840  Biso   1.000  C
  C69      1.0000 0.19560  0.42320  0.28840  Biso   1.000  C
  C70      1.0000 0.80440  0.42320  0.21160  Biso   1.000  C
  C71      1.0000 0.69560  0.92320  0.28840  Biso   1.000  C
  C72      1.0000 0.30440  0.92320  0.21160  Biso   1.000  C
  H89      1.0000 0.78980  0.51000  0.69110  Biso   1.000  H
  H90      1.0000 0.21020  0.51000  0.80890  Biso   1.000  H
  H91      1.0000 0.28980  0.01000  0.69110  Biso   1.000  H
  H92      1.0000 0.71020  0.01000  0.80890  Biso   1.000  H
  H93      1.0000 0.21020  0.49000  0.30890  Biso   1.000  H
  H94      1.0000 0.78980  0.49000  0.19110  Biso   1.000  H
  H95      1.0000 0.71020  0.99000  0.30890  Biso   1.000  H
  H96      1.0000 0.28980  0.99000  0.19110  Biso   1.000  H
  C73      1.0000 0.79720  0.76470  0.71470  Biso   1.000  C
  C74      1.0000 0.20280  0.76470  0.78530  Biso   1.000  C
  C75      1.0000 0.29720  0.26470  0.71470  Biso   1.000  C
  C76      1.0000 0.70280  0.26470  0.78530  Biso   1.000  C
  C77      1.0000 0.20280  0.23530  0.28530  Biso   1.000  C
  C78      1.0000 0.79720  0.23530  0.21470  Biso   1.000  C
  C79      1.0000 0.70280  0.73530  0.28530  Biso   1.000  C
  C80      1.0000 0.29720  0.73530  0.21470  Biso   1.000  C
  C81      1.0000 0.76550  0.87080  0.68640  Biso   1.000  C
  C82      1.0000 0.23450  0.87080  0.81360  Biso   1.000  C
  C83      1.0000 0.26550  0.37080  0.68640  Biso   1.000  C
  C84      1.0000 0.73450  0.37080  0.81360  Biso   1.000  C
  C85      1.0000 0.23450  0.12920  0.31360  Biso   1.000  C
  C86      1.0000 0.76550  0.12920  0.18640  Biso   1.000  C
  C87      1.0000 0.73450  0.62920  0.31360  Biso   1.000  C
  C88      1.0000 0.26550  0.62920  0.18640  Biso   1.000  C
  H97      1.0000 0.72940  0.85480  0.64960  Biso   1.000  H
  H98      1.0000 0.27060  0.85480  0.85040  Biso   1.000  H
  H99      1.0000 0.22940  0.35480  0.64960  Biso   1.000  H
  H100     1.0000 0.77060  0.35480  0.85040  Biso   1.000  H
  H101     1.0000 0.27060  0.14520  0.35040  Biso   1.000  H
  H102     1.0000 0.72940  0.14520  0.14960  Biso   1.000  H
  H103     1.0000 0.77060  0.64520  0.35040  Biso   1.000  H
  H104     1.0000 0.22940  0.64520  0.14960  Biso   1.000  H
  H105     1.0000 0.79320  0.91630  0.67520  Biso   1.000  H
  H106     1.0000 0.20680  0.91630  0.82480  Biso   1.000  H
  H107     1.0000 0.29320  0.41630  0.67520  Biso   1.000  H
  H108     1.0000 0.70680  0.41630  0.82480  Biso   1.000  H
  H109     1.0000 0.20680  0.08370  0.32480  Biso   1.000  H
  H110     1.0000 0.79320  0.08370  0.17520  Biso   1.000  H
  H111     1.0000 0.70680  0.58370  0.32480  Biso   1.000  H
  H112     1.0000 0.29320  0.58370  0.17520  Biso   1.000  H
  H113     1.0000 0.75370  0.90930  0.71640  Biso   1.000  H
  H114     1.0000 0.24630  0.90930  0.78360  Biso   1.000  H
  H115     1.0000 0.25370  0.40930  0.71640  Biso   1.000  H
  H116     1.0000 0.74630  0.40930  0.78360  Biso   1.000  H
  H117     1.0000 0.24630  0.09070  0.28360  Biso   1.000  H
  H118     1.0000 0.75370  0.09070  0.21640  Biso   1.000  H
  H119     1.0000 0.74630  0.59070  0.28360  Biso   1.000  H
  H120     1.0000 0.25370  0.59070  0.21640  Biso   1.000  H
  C89      1.0000 0.85020  0.76530  0.76870  Biso   1.000  C
  C90      1.0000 0.14980  0.76530  0.73130  Biso   1.000  C
  C91      1.0000 0.35020  0.26530  0.76870  Biso   1.000  C
  C92      1.0000 0.64980  0.26530  0.73130  Biso   1.000  C
  C93      1.0000 0.14980  0.23470  0.23130  Biso   1.000  C
  C94      1.0000 0.85020  0.23470  0.26870  Biso   1.000  C
  C95      1.0000 0.64980  0.73470  0.23130  Biso   1.000  C
  C96      1.0000 0.35020  0.73470  0.26870  Biso   1.000  C
  H121     1.0000 0.86600  0.83270  0.78770  Biso   1.000  H
  H122     1.0000 0.13400  0.83270  0.71230  Biso   1.000  H
  H123     1.0000 0.36600  0.33270  0.78770  Biso   1.000  H
  H124     1.0000 0.63400  0.33270  0.71230  Biso   1.000  H
  H125     1.0000 0.13400  0.16730  0.21230  Biso   1.000  H
  H126     1.0000 0.86600  0.16730  0.28770  Biso   1.000  H
  H127     1.0000 0.63400  0.66730  0.21230  Biso   1.000  H
  H128     1.0000 0.36600  0.66730  0.28770  Biso   1.000  H
  N1       1.0000 0.62080  0.71490  0.54880  Biso   1.000  N
  N2       1.0000 0.37920  0.71490  0.95120  Biso   1.000  N
  N3       1.0000 0.12080  0.21490  0.54880  Biso   1.000  N
  N4       1.0000 0.87920  0.21490  0.95120  Biso   1.000  N
  N5       1.0000 0.37920  0.28510  0.45120  Biso   1.000  N
  N6       1.0000 0.62080  0.28510  0.04880  Biso   1.000  N
  N7       1.0000 0.87920  0.78510  0.45120  Biso   1.000  N
  N8       1.0000 0.12080  0.78510  0.04880  Biso   1.000  N
  N9       1.0000 0.51630  0.77710  0.44840  Biso   1.000  N
  N10      1.0000 0.48370  0.77710  0.05160  Biso   1.000  N
  N11      1.0000 0.01630  0.27710  0.44840  Biso   1.000  N
  N12      1.0000 0.98370  0.27710  0.05160  Biso   1.000  N
  N13      1.0000 0.48370  0.22290  0.55160  Biso   1.000  N
  N14      1.0000 0.51630  0.22290  0.94840  Biso   1.000  N
  N15      1.0000 0.98370  0.72290  0.55160  Biso   1.000  N
  N16      1.0000 0.01630  0.72290  0.94840  Biso   1.000  N
  N17      1.0000 0.87950  0.67100  0.79470  Biso   1.000  N
  N18      1.0000 0.12050  0.67100  0.70530  Biso   1.000  N
  N19      1.0000 0.37950  0.17100  0.79470  Biso   1.000  N
  N20      1.0000 0.62050  0.17100  0.70530  Biso   1.000  N
  N21      1.0000 0.12050  0.32900  0.20530  Biso   1.000  N
  N22      1.0000 0.87950  0.32900  0.29470  Biso   1.000  N
  N23      1.0000 0.62050  0.82900  0.20530  Biso   1.000  N
  N24      1.0000 0.37950  0.82900  0.29470  Biso   1.000  N
  N25      1.0000 0.77290  0.66870  0.68700  Biso   1.000  N
  N26      1.0000 0.22710  0.66870  0.81300  Biso   1.000  N
  N27      1.0000 0.27290  0.16870  0.68700  Biso   1.000  N
  N28      1.0000 0.72710  0.16870  0.81300  Biso   1.000  N
  N29      1.0000 0.22710  0.33130  0.31300  Biso   1.000  N
  N30      1.0000 0.77290  0.33130  0.18700  Biso   1.000  N
  N31      1.0000 0.72710  0.83130  0.31300  Biso   1.000  N
  N32      1.0000 0.27290  0.83130  0.18700  Biso   1.000  N
  O1       1.0000 0.79610  0.35050  0.52000  Biso   1.000  O
  O2       1.0000 0.20390  0.35050  0.98000  Biso   1.000  O
  O3       1.0000 0.29610  0.85050  0.52000  Biso   1.000  O
  O4       1.0000 0.70390  0.85050  0.98000  Biso   1.000  O
  O5       1.0000 0.20390  0.64950  0.48000  Biso   1.000  O
  O6       1.0000 0.79610  0.64950  0.02000  Biso   1.000  O
  O7       1.0000 0.70390  0.14950  0.48000  Biso   1.000  O
  O8       1.0000 0.29610  0.14950  0.02000  Biso   1.000  O
  O9       1.0000 0.78750  0.14670  0.49730  Biso   1.000  O
  O10      1.0000 0.21250  0.14670  0.00270  Biso   1.000  O
  O11      1.0000 0.28750  0.64670  0.49730  Biso   1.000  O
  O12      1.0000 0.71250  0.64670  0.00270  Biso   1.000  O
  O13      1.0000 0.21250  0.85330  0.50270  Biso   1.000  O
  O14      1.0000 0.78750  0.85330  0.99730  Biso   1.000  O
  O15      1.0000 0.71250  0.35330  0.50270  Biso   1.000  O
  O16      1.0000 0.28750  0.35330  0.99730  Biso   1.000  O
  O17      1.0000 0.72560  0.23400  0.55270  Biso   1.000  O
  O18      1.0000 0.27440  0.23400  0.94730  Biso   1.000  O
  O19      1.0000 0.22560  0.73400  0.55270  Biso   1.000  O
  O20      1.0000 0.77440  0.73400  0.94730  Biso   1.000  O
  O21      1.0000 0.27440  0.76600  0.44730  Biso   1.000  O
  O22      1.0000 0.72560  0.76600  0.05270  Biso   1.000  O
  O23      1.0000 0.77440  0.26600  0.44730  Biso   1.000  O
  O24      1.0000 0.22560  0.26600  0.05270  Biso   1.000  O
  O25      1.0000 0.80100  0.22570  0.56090  Biso   1.000  O
  O26      1.0000 0.19900  0.22570  0.93910  Biso   1.000  O
  O27      1.0000 0.30100  0.72570  0.56090  Biso   1.000  O
  O28      1.0000 0.69900  0.72570  0.93910  Biso   1.000  O
  O29      1.0000 0.19900  0.77430  0.43910  Biso   1.000  O
  O30      1.0000 0.80100  0.77430  0.06090  Biso   1.000  O
  O31      1.0000 0.69900  0.27430  0.43910  Biso   1.000  O
  O32      1.0000 0.30100  0.27430  0.06090  Biso   1.000  O
  O33      1.0000 0.72990  0.31220  0.64750  Biso   1.000  O
  O34      1.0000 0.27010  0.31220  0.85250  Biso   1.000  O
  O35      1.0000 0.22990  0.81220  0.64750  Biso   1.000  O
  O36      1.0000 0.77010  0.81220  0.85250  Biso   1.000  O
  O37      1.0000 0.27010  0.68780  0.35250  Biso   1.000  O
  O38      1.0000 0.72990  0.68780  0.14750  Biso   1.000  O
  O39      1.0000 0.77010  0.18780  0.35250  Biso   1.000  O
  O40      1.0000 0.22990  0.18780  0.14750  Biso   1.000  O
  O41      1.0000 0.72100  0.09820  0.62290  Biso   1.000  O
  O42      1.0000 0.27900  0.09820  0.87710  Biso   1.000  O
  O43      1.0000 0.22100  0.59820  0.62290  Biso   1.000  O
  O44      1.0000 0.77900  0.59820  0.87710  Biso   1.000  O
  O45      1.0000 0.27900  0.90180  0.37710  Biso   1.000  O
  O46      1.0000 0.72100  0.90180  0.12290  Biso   1.000  O
  O47      1.0000 0.77900  0.40180  0.37710  Biso   1.000  O
  O48      1.0000 0.22100  0.40180  0.12290  Biso   1.000  O
  O49      1.0000 0.80630  0.16790  0.73750  Biso   1.000  O
  O50      1.0000 0.19370  0.16790  0.76250  Biso   1.000  O
  O51      1.0000 0.30630  0.66790  0.73750  Biso   1.000  O
  O52      1.0000 0.69370  0.66790  0.76250  Biso   1.000  O
  O53      1.0000 0.19370  0.83210  0.26250  Biso   1.000  O
  O54      1.0000 0.80630  0.83210  0.23750  Biso   1.000  O
  O55      1.0000 0.69370  0.33210  0.26250  Biso   1.000  O
  O56      1.0000 0.30630  0.33210  0.23750  Biso   1.000  O
  O57      1.0000 0.83900  0.08900  0.64300  Biso   1.000  O
  O58      1.0000 0.16100  0.08900  0.85700  Biso   1.000  O
  O59      1.0000 0.33900  0.58900  0.64300  Biso   1.000  O
  O60      1.0000 0.66100  0.58900  0.85700  Biso   1.000  O
  O61      1.0000 0.16100  0.91100  0.35700  Biso   1.000  O
  O62      1.0000 0.83900  0.91100  0.14300  Biso   1.000  O
  O63      1.0000 0.66100  0.41100  0.35700  Biso   1.000  O
  O64      1.0000 0.33900  0.41100  0.14300  Biso   1.000  O
  O65      1.0000 0.91310  0.21060  0.60770  Biso   1.000  O
  O66      1.0000 0.08690  0.21060  0.89230  Biso   1.000  O
  O67      1.0000 0.41310  0.71060  0.60770  Biso   1.000  O
  O68      1.0000 0.58690  0.71060  0.89230  Biso   1.000  O
  O69      1.0000 0.08690  0.78940  0.39230  Biso   1.000  O
  O70      1.0000 0.91310  0.78940  0.10770  Biso   1.000  O
  O71      1.0000 0.58690  0.28940  0.39230  Biso   1.000  O
  O72      1.0000 0.41310  0.28940  0.10770  Biso   1.000  O
  O73      1.0000 0.93530  0.98570  0.62180  Biso   1.000  O
  O74      1.0000 0.06470  0.98570  0.87820  Biso   1.000  O
  O75      1.0000 0.43530  0.48570  0.62180  Biso   1.000  O
  O76      1.0000 0.56470  0.48570  0.87820  Biso   1.000  O
  O77      1.0000 0.06470  0.01430  0.37820  Biso   1.000  O
  O78      1.0000 0.93530  0.01430  0.12180  Biso   1.000  O
  O79      1.0000 0.56470  0.51430  0.37820  Biso   1.000  O
  O80      1.0000 0.43530  0.51430  0.12180  Biso   1.000  O
  O81      1.0000 0.81160  0.96840  0.54060  Biso   1.000  O
  O82      1.0000 0.18840  0.96840  0.95940  Biso   1.000  O
  O83      1.0000 0.31160  0.46840  0.54060  Biso   1.000  O
  O84      1.0000 0.68840  0.46840  0.95940  Biso   1.000  O
  O85      1.0000 0.18840  0.03160  0.45940  Biso   1.000  O
  O86      1.0000 0.81160  0.03160  0.04060  Biso   1.000  O
  O87      1.0000 0.68840  0.53160  0.45940  Biso   1.000  O
  O88      1.0000 0.31160  0.53160  0.04060  Biso   1.000  O
  O89      1.0000 0.84780  0.30270  0.66510  Biso   1.000  O
  O90      1.0000 0.15220  0.30270  0.83490  Biso   1.000  O
  O91      1.0000 0.34780  0.80270  0.66510  Biso   1.000  O
  O92      1.0000 0.65220  0.80270  0.83490  Biso   1.000  O
  O93      1.0000 0.15220  0.69730  0.33490  Biso   1.000  O
  O94      1.0000 0.84780  0.69730  0.16510  Biso   1.000  O
  O95      1.0000 0.65220  0.19730  0.33490  Biso   1.000  O
  O96      1.0000 0.34780  0.19730  0.16510  Biso   1.000  O
  O97      1.0000 0.88620  0.09180  0.50510  Biso   1.000  O
  O98      1.0000 0.11380  0.09180  0.99490  Biso   1.000  O
  O99      1.0000 0.38620  0.59180  0.50510  Biso   1.000  O
  O100     1.0000 0.61380  0.59180  0.99490  Biso   1.000  O
  O101     1.0000 0.11380  0.90820  0.49490  Biso   1.000  O
  O102     1.0000 0.88620  0.90820  0.00510  Biso   1.000  O
  O103     1.0000 0.61380  0.40820  0.49490  Biso   1.000  O
  O104     1.0000 0.38620  0.40820  0.00510  Biso   1.000  O
  O105     1.0000 0.88040  0.06820  0.38600  Biso   1.000  O
  O106     1.0000 0.11960  0.06820  0.11400  Biso   1.000  O
  O107     1.0000 0.38040  0.56820  0.38600  Biso   1.000  O
  O108     1.0000 0.61960  0.56820  0.11400  Biso   1.000  O
  O109     1.0000 0.11960  0.93180  0.61400  Biso   1.000  O
  O110     1.0000 0.88040  0.93180  0.88600  Biso   1.000  O
  O111     1.0000 0.61960  0.43180  0.61400  Biso   1.000  O
  O112     1.0000 0.38040  0.43180  0.88600  Biso   1.000  O
  O113     1.0000 0.87250  0.27070  0.43620  Biso   1.000  O
  O114     1.0000 0.12750  0.27070  0.06380  Biso   1.000  O
  O115     1.0000 0.37250  0.77070  0.43620  Biso   1.000  O
  O116     1.0000 0.62750  0.77070  0.06380  Biso   1.000  O
  O117     1.0000 0.12750  0.72930  0.56380  Biso   1.000  O
  O118     1.0000 0.87250  0.72930  0.93620  Biso   1.000  O
  O119     1.0000 0.62750  0.22930  0.56380  Biso   1.000  O
  O120     1.0000 0.37250  0.22930  0.93620  Biso   1.000  O
  O121     1.0000 0.89810  0.39220  0.53870  Biso   1.000  O
  O122     1.0000 0.10190  0.39220  0.96130  Biso   1.000  O
  O123     1.0000 0.39810  0.89220  0.53870  Biso   1.000  O
  O124     1.0000 0.60190  0.89220  0.96130  Biso   1.000  O
  O125     1.0000 0.10190  0.60780  0.46130  Biso   1.000  O
  O126     1.0000 0.89810  0.60780  0.03870  Biso   1.000  O
  O127     1.0000 0.60190  0.10780  0.46130  Biso   1.000  O
  O128     1.0000 0.39810  0.10780  0.03870  Biso   1.000  O
  O129     1.0000 0.80590  0.52700  0.47760  Biso   1.000  O
  O130     1.0000 0.19410  0.52700  0.02240  Biso   1.000  O
  O131     1.0000 0.30590  0.02700  0.47760  Biso   1.000  O
  O132     1.0000 0.69410  0.02700  0.02240  Biso   1.000  O
  O133     1.0000 0.19410  0.47300  0.52240  Biso   1.000  O
  O134     1.0000 0.80590  0.47300  0.97760  Biso   1.000  O
  O135     1.0000 0.69410  0.97300  0.52240  Biso   1.000  O
  O136     1.0000 0.30590  0.97300  0.97760  Biso   1.000  O
  O137     1.0000 0.83350  0.48170  0.59710  Biso   1.000  O
  O138     1.0000 0.16650  0.48170  0.90290  Biso   1.000  O
  O139     1.0000 0.33350  0.98170  0.59710  Biso   1.000  O
  O140     1.0000 0.66650  0.98170  0.90290  Biso   1.000  O
  O141     1.0000 0.16650  0.51830  0.40290  Biso   1.000  O
  O142     1.0000 0.83350  0.51830  0.09710  Biso   1.000  O
  O143     1.0000 0.66650  0.01830  0.40290  Biso   1.000  O
  O144     1.0000 0.33350  0.01830  0.09710  Biso   1.000  O
  O145     1.0000 0.76800  0.67180  0.55010  Biso   1.000  O
  O146     1.0000 0.23200  0.67180  0.94990  Biso   1.000  O
  O147     1.0000 0.26800  0.17180  0.55010  Biso   1.000  O
  O148     1.0000 0.73200  0.17180  0.94990  Biso   1.000  O
  O149     1.0000 0.23200  0.32820  0.44990  Biso   1.000  O
  O150     1.0000 0.76800  0.32820  0.05010  Biso   1.000  O
  O151     1.0000 0.73200  0.82820  0.44990  Biso   1.000  O
  O152     1.0000 0.26800  0.82820  0.05010  Biso   1.000  O
  O153     1.0000 0.71570  0.49100  0.57940  Biso   1.000  O
  O154     1.0000 0.28430  0.49100  0.92060  Biso   1.000  O
  O155     1.0000 0.21570  0.99100  0.57940  Biso   1.000  O
  O156     1.0000 0.78430  0.99100  0.92060  Biso   1.000  O
  O157     1.0000 0.28430  0.50900  0.42060  Biso   1.000  O
  O158     1.0000 0.71570  0.50900  0.07940  Biso   1.000  O
  O159     1.0000 0.78430  0.00900  0.42060  Biso   1.000  O
  O160     1.0000 0.21570  0.00900  0.07940  Biso   1.000  O
  O161     1.0000 0.95300  0.41080  0.66750  Biso   1.000  O
  O162     1.0000 0.04700  0.41080  0.83250  Biso   1.000  O
  O163     1.0000 0.45300  0.91080  0.66750  Biso   1.000  O
  O164     1.0000 0.54700  0.91080  0.83250  Biso   1.000  O
  O165     1.0000 0.04700  0.58920  0.33250  Biso   1.000  O
  O166     1.0000 0.95300  0.58920  0.16750  Biso   1.000  O
  O167     1.0000 0.54700  0.08920  0.33250  Biso   1.000  O
  O168     1.0000 0.45300  0.08920  0.16750  Biso   1.000  O
  O169     1.0000 0.89680  0.49280  0.43150  Biso   1.000  O
  O170     1.0000 0.10320  0.49280  0.06850  Biso   1.000  O
  O171     1.0000 0.39680  0.99280  0.43150  Biso   1.000  O
  O172     1.0000 0.60320  0.99280  0.06850  Biso   1.000  O
  O173     1.0000 0.10320  0.50720  0.56850  Biso   1.000  O
  O174     1.0000 0.89680  0.50720  0.93150  Biso   1.000  O
  O175     1.0000 0.60320  0.00720  0.56850  Biso   1.000  O
  O176     1.0000 0.39680  0.00720  0.93150  Biso   1.000  O
  P1       1.0000 0.75000  0.25000  0.50000  Biso   1.000  P
  P2       1.0000 0.25000  0.25000  0.00000  Biso   1.000  P
  P3       1.0000 0.25000  0.75000  0.50000  Biso   1.000  P
  P4       1.0000 0.75000  0.75000  0.00000  Biso   1.000  P
  O177     1.0000 0.05560  0.96300  0.73680  Biso   1.000  O
  O178     1.0000 0.94440  0.96300  0.76320  Biso   1.000  O
  O179     1.0000 0.55560  0.46300  0.73680  Biso   1.000  O
  O180     1.0000 0.44440  0.46300  0.76320  Biso   1.000  O
  O181     1.0000 0.94440  0.03700  0.26320  Biso   1.000  O
  O182     1.0000 0.05560  0.03700  0.23680  Biso   1.000  O
  O183     1.0000 0.44440  0.53700  0.26320  Biso   1.000  O
  O184     1.0000 0.55560  0.53700  0.23680  Biso   1.000  O
  O185     1.0000 0.00000  0.16000  0.75000  Biso   1.000  O
  O186     1.0000 0.50000  0.66000  0.75000  Biso   1.000  O
  O187     1.0000 0.00000  0.84000  0.25000  Biso   1.000  O
  O188     1.0000 0.50000  0.34000  0.25000  Biso   1.000  O
