data_image0
_cell_length_a       17.592
_cell_length_b       22.091
_cell_length_c       15.733
_cell_angle_alpha    90
_cell_angle_beta     90
_cell_angle_gamma    90

_symmetry_space_group_name_H-M    "P 1"
_symmetry_int_tables_number       1

loop_
  _symmetry_equiv_pos_as_xyz
  'x, y, z'

loop_
  _atom_site_label
  _atom_site_occupancy
  _atom_site_fract_x
  _atom_site_fract_y
  _atom_site_fract_z
  _atom_site_thermal_displace_type
  _atom_site_B_iso_or_equiv
  _atom_site_type_symbol
  Cu1      1.0000 0.00000  0.00000  0.50000  Biso   1.000  Cu
  Cu2      1.0000 0.50000  0.00000  0.00000  Biso   1.000  Cu
  Cu3      1.0000 0.50000  0.50000  0.00000  Biso   1.000  Cu
  Cu4      1.0000 0.00000  0.50000  0.50000  Biso   1.000  Cu
  Cu5      1.0000 0.35770  0.90197  0.53966  Biso   1.000  Cu
  Cu6      1.0000 0.14230  0.09803  0.03966  Biso   1.000  Cu
  Cu7      1.0000 0.85770  0.59803  0.96034  Biso   1.000  Cu
  Cu8      1.0000 0.64230  0.40197  0.46034  Biso   1.000  Cu
  Cu9      1.0000 0.64230  0.09803  0.46034  Biso   1.000  Cu
  Cu10     1.0000 0.85770  0.90197  0.96034  Biso   1.000  Cu
  Cu11     1.0000 0.14230  0.40197  0.03966  Biso   1.000  Cu
  Cu12     1.0000 0.35770  0.59803  0.53966  Biso   1.000  Cu
  Mo1      1.0000 0.25005  0.25000  0.29682  Biso   1.000  Mo
  Mo2      1.0000 0.24995  0.75000  0.79682  Biso   1.000  Mo
  Mo3      1.0000 0.75005  0.25000  0.20318  Biso   1.000  Mo
  Mo4      1.0000 0.74995  0.75000  0.70318  Biso   1.000  Mo
  Mo5      1.0000 0.32611  0.13752  0.43284  Biso   1.000  Mo
  Mo6      1.0000 0.17389  0.86248  0.93284  Biso   1.000  Mo
  Mo7      1.0000 0.82611  0.36248  0.06716  Biso   1.000  Mo
  Mo8      1.0000 0.67389  0.63752  0.56716  Biso   1.000  Mo
  Mo9      1.0000 0.67389  0.86248  0.56716  Biso   1.000  Mo
  Mo10     1.0000 0.82611  0.13752  0.06716  Biso   1.000  Mo
  Mo11     1.0000 0.17389  0.63752  0.93284  Biso   1.000  Mo
  Mo12     1.0000 0.32611  0.36248  0.43284  Biso   1.000  Mo
  Mo13     1.0000 0.13046  0.13422  0.38020  Biso   1.000  Mo
  Mo14     1.0000 0.36954  0.86578  0.88020  Biso   1.000  Mo
  Mo15     1.0000 0.63046  0.36578  0.11980  Biso   1.000  Mo
  Mo16     1.0000 0.86954  0.63422  0.61980  Biso   1.000  Mo
  Mo17     1.0000 0.86954  0.86578  0.61980  Biso   1.000  Mo
  Mo18     1.0000 0.63046  0.13422  0.11980  Biso   1.000  Mo
  Mo19     1.0000 0.36954  0.63422  0.88020  Biso   1.000  Mo
  Mo20     1.0000 0.13046  0.36578  0.38020  Biso   1.000  Mo
  Mo21     1.0000 0.15358  0.25000  0.73572  Biso   1.000  Mo
  Mo22     1.0000 0.34642  0.75000  0.23572  Biso   1.000  Mo
  Mo23     1.0000 0.65358  0.25000  0.76428  Biso   1.000  Mo
  Mo24     1.0000 0.84642  0.75000  0.26428  Biso   1.000  Mo
  Mo25     1.0000 0.00263  0.25000  0.44822  Biso   1.000  Mo
  Mo26     1.0000 0.49737  0.75000  0.94822  Biso   1.000  Mo
  Mo27     1.0000 0.50263  0.25000  0.05178  Biso   1.000  Mo
  Mo28     1.0000 0.99737  0.75000  0.55178  Biso   1.000  Mo
  Mo29     1.0000 0.07079  0.35987  0.59737  Biso   1.000  Mo
  Mo30     1.0000 0.42921  0.64013  0.09737  Biso   1.000  Mo
  Mo31     1.0000 0.57079  0.14013  0.90263  Biso   1.000  Mo
  Mo32     1.0000 0.92921  0.85987  0.40263  Biso   1.000  Mo
  Mo33     1.0000 0.92921  0.64013  0.40263  Biso   1.000  Mo
  Mo34     1.0000 0.57079  0.35987  0.90263  Biso   1.000  Mo
  Mo35     1.0000 0.42921  0.85987  0.09737  Biso   1.000  Mo
  Mo36     1.0000 0.07079  0.14013  0.59737  Biso   1.000  Mo
  Mo37     1.0000 0.39460  0.25000  0.57256  Biso   1.000  Mo
  Mo38     1.0000 0.10540  0.75000  0.07256  Biso   1.000  Mo
  Mo39     1.0000 0.89460  0.25000  0.92744  Biso   1.000  Mo
  Mo40     1.0000 0.60540  0.75000  0.42744  Biso   1.000  Mo
  Mo41     1.0000 0.26675  0.36813  0.64818  Biso   1.000  Mo
  Mo42     1.0000 0.23325  0.63187  0.14818  Biso   1.000  Mo
  Mo43     1.0000 0.76675  0.13187  0.85182  Biso   1.000  Mo
  Mo44     1.0000 0.73325  0.86813  0.35182  Biso   1.000  Mo
  Mo45     1.0000 0.73325  0.63187  0.35182  Biso   1.000  Mo
  Mo46     1.0000 0.76675  0.36813  0.85182  Biso   1.000  Mo
  Mo47     1.0000 0.23325  0.86813  0.14818  Biso   1.000  Mo
  Mo48     1.0000 0.26675  0.13187  0.64818  Biso   1.000  Mo
  C1       1.0000 0.20240  0.93680  0.60280  Biso   1.000  C
  C2       1.0000 0.29760  0.06320  0.10280  Biso   1.000  C
  C3       1.0000 0.70240  0.56320  0.89720  Biso   1.000  C
  C4       1.0000 0.79760  0.43680  0.39720  Biso   1.000  C
  C5       1.0000 0.79760  0.06320  0.39720  Biso   1.000  C
  C6       1.0000 0.70240  0.93680  0.89720  Biso   1.000  C
  C7       1.0000 0.29760  0.43680  0.10280  Biso   1.000  C
  C8       1.0000 0.20240  0.56320  0.60280  Biso   1.000  C
  C9       1.0000 0.13020  0.95490  0.59530  Biso   1.000  C
  C10      1.0000 0.36980  0.04510  0.09530  Biso   1.000  C
  C11      1.0000 0.63020  0.54510  0.90470  Biso   1.000  C
  C12      1.0000 0.86980  0.45490  0.40470  Biso   1.000  C
  C13      1.0000 0.86980  0.04510  0.40470  Biso   1.000  C
  C14      1.0000 0.63020  0.95490  0.90470  Biso   1.000  C
  C15      1.0000 0.36980  0.45490  0.09530  Biso   1.000  C
  C16      1.0000 0.13020  0.54510  0.59530  Biso   1.000  C
  C17      1.0000 0.22000  0.95420  0.45760  Biso   1.000  C
  C18      1.0000 0.28000  0.04580  0.95760  Biso   1.000  C
  C19      1.0000 0.72000  0.54580  0.04240  Biso   1.000  C
  C20      1.0000 0.78000  0.45420  0.54240  Biso   1.000  C
  C21      1.0000 0.78000  0.04580  0.54240  Biso   1.000  C
  C22      1.0000 0.72000  0.95420  0.04240  Biso   1.000  C
  C23      1.0000 0.28000  0.45420  0.95760  Biso   1.000  C
  C24      1.0000 0.22000  0.54580  0.45760  Biso   1.000  C
  C25      1.0000 0.14830  0.97100  0.45040  Biso   1.000  C
  C26      1.0000 0.35170  0.02900  0.95040  Biso   1.000  C
  C27      1.0000 0.64830  0.52900  0.04960  Biso   1.000  C
  C28      1.0000 0.85170  0.47100  0.54960  Biso   1.000  C
  C29      1.0000 0.85170  0.02900  0.54960  Biso   1.000  C
  C30      1.0000 0.64830  0.97100  0.04960  Biso   1.000  C
  C31      1.0000 0.35170  0.47100  0.95040  Biso   1.000  C
  C32      1.0000 0.14830  0.52900  0.45040  Biso   1.000  C
  H1       1.0000 0.12940  0.98400  0.39830  Biso   1.000  H
  H2       1.0000 0.37060  0.01600  0.89830  Biso   1.000  H
  H3       1.0000 0.62940  0.51600  0.10170  Biso   1.000  H
  H4       1.0000 0.87060  0.48400  0.60170  Biso   1.000  H
  H5       1.0000 0.87060  0.01600  0.60170  Biso   1.000  H
  H6       1.0000 0.62940  0.98400  0.10170  Biso   1.000  H
  H7       1.0000 0.37060  0.48400  0.89830  Biso   1.000  H
  H8       1.0000 0.12940  0.51600  0.39830  Biso   1.000  H
  C33      1.0000 0.27990  0.95680  0.38280  Biso   1.000  C
  C34      1.0000 0.22010  0.04320  0.88280  Biso   1.000  C
  C35      1.0000 0.77990  0.54320  0.11720  Biso   1.000  C
  C36      1.0000 0.72010  0.45680  0.61720  Biso   1.000  C
  C37      1.0000 0.72010  0.04320  0.61720  Biso   1.000  C
  C38      1.0000 0.77990  0.95680  0.11720  Biso   1.000  C
  C39      1.0000 0.22010  0.45680  0.88280  Biso   1.000  C
  C40      1.0000 0.27990  0.54320  0.38280  Biso   1.000  C
  H9       1.0000 0.31520  0.98910  0.39300  Biso   1.000  H
  H10      1.0000 0.18480  0.01090  0.89300  Biso   1.000  H
  H11      1.0000 0.81520  0.51090  0.10700  Biso   1.000  H
  H12      1.0000 0.68480  0.48910  0.60700  Biso   1.000  H
  H13      1.0000 0.68480  0.01090  0.60700  Biso   1.000  H
  H14      1.0000 0.81520  0.98910  0.10700  Biso   1.000  H
  H15      1.0000 0.18480  0.48910  0.89300  Biso   1.000  H
  H16      1.0000 0.31520  0.51090  0.39300  Biso   1.000  H
  H17      1.0000 0.30690  0.91910  0.38000  Biso   1.000  H
  H18      1.0000 0.19310  0.08090  0.88000  Biso   1.000  H
  H19      1.0000 0.80690  0.58090  0.12000  Biso   1.000  H
  H20      1.0000 0.69310  0.41910  0.62000  Biso   1.000  H
  H21      1.0000 0.69310  0.08090  0.62000  Biso   1.000  H
  H22      1.0000 0.80690  0.91910  0.12000  Biso   1.000  H
  H23      1.0000 0.19310  0.41910  0.88000  Biso   1.000  H
  H24      1.0000 0.30690  0.58090  0.38000  Biso   1.000  H
  H25      1.0000 0.25400  0.96380  0.33000  Biso   1.000  H
  H26      1.0000 0.24600  0.03620  0.83000  Biso   1.000  H
  H27      1.0000 0.75400  0.53620  0.17000  Biso   1.000  H
  H28      1.0000 0.74600  0.46380  0.67000  Biso   1.000  H
  H29      1.0000 0.74600  0.03620  0.67000  Biso   1.000  H
  H30      1.0000 0.75400  0.96380  0.17000  Biso   1.000  H
  H31      1.0000 0.24600  0.46380  0.83000  Biso   1.000  H
  H32      1.0000 0.25400  0.53620  0.33000  Biso   1.000  H
  C41      1.0000 0.07910  0.95220  0.67260  Biso   1.000  C
  C42      1.0000 0.42090  0.04780  0.17260  Biso   1.000  C
  C43      1.0000 0.57910  0.54780  0.82740  Biso   1.000  C
  C44      1.0000 0.92090  0.45220  0.32740  Biso   1.000  C
  C45      1.0000 0.92090  0.04780  0.32740  Biso   1.000  C
  C46      1.0000 0.57910  0.95220  0.82740  Biso   1.000  C
  C47      1.0000 0.42090  0.45220  0.17260  Biso   1.000  C
  C48      1.0000 0.07910  0.54780  0.67260  Biso   1.000  C
  H33      1.0000 0.04410  0.98550  0.67130  Biso   1.000  H
  H34      1.0000 0.45590  0.01450  0.17130  Biso   1.000  H
  H35      1.0000 0.54410  0.51450  0.82870  Biso   1.000  H
  H36      1.0000 0.95590  0.48550  0.32870  Biso   1.000  H
  H37      1.0000 0.95590  0.01450  0.32870  Biso   1.000  H
  H38      1.0000 0.54410  0.98550  0.82870  Biso   1.000  H
  H39      1.0000 0.45590  0.48550  0.17130  Biso   1.000  H
  H40      1.0000 0.04410  0.51450  0.67130  Biso   1.000  H
  H41      1.0000 0.05130  0.91470  0.67230  Biso   1.000  H
  H42      1.0000 0.44870  0.08530  0.17230  Biso   1.000  H
  H43      1.0000 0.55130  0.58530  0.82770  Biso   1.000  H
  H44      1.0000 0.94870  0.41470  0.32770  Biso   1.000  H
  H45      1.0000 0.94870  0.08530  0.32770  Biso   1.000  H
  H46      1.0000 0.55130  0.91470  0.82770  Biso   1.000  H
  H47      1.0000 0.44870  0.41470  0.17230  Biso   1.000  H
  H48      1.0000 0.05130  0.58530  0.67230  Biso   1.000  H
  H49      1.0000 0.10950  0.95450  0.72320  Biso   1.000  H
  H50      1.0000 0.39050  0.04550  0.22320  Biso   1.000  H
  H51      1.0000 0.60950  0.54550  0.77680  Biso   1.000  H
  H52      1.0000 0.89050  0.45450  0.27680  Biso   1.000  H
  H53      1.0000 0.89050  0.04550  0.27680  Biso   1.000  H
  H54      1.0000 0.60950  0.95450  0.77680  Biso   1.000  H
  H55      1.0000 0.39050  0.45450  0.22320  Biso   1.000  H
  H56      1.0000 0.10950  0.54550  0.72320  Biso   1.000  H
  C49      1.0000 0.23670  0.91740  0.68380  Biso   1.000  C
  C50      1.0000 0.26330  0.08260  0.18380  Biso   1.000  C
  C51      1.0000 0.73670  0.58260  0.81620  Biso   1.000  C
  C52      1.0000 0.76330  0.41740  0.31620  Biso   1.000  C
  C53      1.0000 0.76330  0.08260  0.31620  Biso   1.000  C
  C54      1.0000 0.73670  0.91740  0.81620  Biso   1.000  C
  C55      1.0000 0.26330  0.41740  0.18380  Biso   1.000  C
  C56      1.0000 0.23670  0.58260  0.68380  Biso   1.000  C
  H57      1.0000 0.21610  0.87880  0.70000  Biso   1.000  H
  H58      1.0000 0.28390  0.12120  0.20000  Biso   1.000  H
  H59      1.0000 0.71610  0.62120  0.80000  Biso   1.000  H
  H60      1.0000 0.78390  0.37880  0.30000  Biso   1.000  H
  H61      1.0000 0.78390  0.12120  0.30000  Biso   1.000  H
  H62      1.0000 0.71610  0.87880  0.80000  Biso   1.000  H
  H63      1.0000 0.28390  0.37880  0.20000  Biso   1.000  H
  H64      1.0000 0.21610  0.62120  0.70000  Biso   1.000  H
  H65      1.0000 0.29080  0.91390  0.67700  Biso   1.000  H
  H66      1.0000 0.20920  0.08610  0.17700  Biso   1.000  H
  H67      1.0000 0.79080  0.58610  0.82300  Biso   1.000  H
  H68      1.0000 0.70920  0.41390  0.32300  Biso   1.000  H
  H69      1.0000 0.70920  0.08610  0.32300  Biso   1.000  H
  H70      1.0000 0.79080  0.91390  0.82300  Biso   1.000  H
  H71      1.0000 0.20920  0.41390  0.17700  Biso   1.000  H
  H72      1.0000 0.29080  0.58610  0.67700  Biso   1.000  H
  H73      1.0000 0.22570  0.94670  0.72710  Biso   1.000  H
  H74      1.0000 0.27430  0.05330  0.22710  Biso   1.000  H
  H75      1.0000 0.72570  0.55330  0.77290  Biso   1.000  H
  H76      1.0000 0.77430  0.44670  0.27290  Biso   1.000  H
  H77      1.0000 0.77430  0.05330  0.27290  Biso   1.000  H
  H78      1.0000 0.72570  0.94670  0.77290  Biso   1.000  H
  H79      1.0000 0.27430  0.44670  0.22710  Biso   1.000  H
  H80      1.0000 0.22570  0.55330  0.72710  Biso   1.000  H
  C57      1.0000 0.40630  0.78190  0.60000  Biso   1.000  C
  C58      1.0000 0.09370  0.21810  0.10000  Biso   1.000  C
  C59      1.0000 0.90630  0.71810  0.90000  Biso   1.000  C
  C60      1.0000 0.59370  0.28190  0.40000  Biso   1.000  C
  C61      1.0000 0.59370  0.21810  0.40000  Biso   1.000  C
  C62      1.0000 0.90630  0.78190  0.90000  Biso   1.000  C
  C63      1.0000 0.09370  0.28190  0.10000  Biso   1.000  C
  C64      1.0000 0.40630  0.71810  0.60000  Biso   1.000  C
  C65      1.0000 0.46440  0.81750  0.64970  Biso   1.000  C
  C66      1.0000 0.03560  0.18250  0.14970  Biso   1.000  C
  C67      1.0000 0.96440  0.68250  0.85030  Biso   1.000  C
  C68      1.0000 0.53560  0.31750  0.35030  Biso   1.000  C
  C69      1.0000 0.53560  0.18250  0.35030  Biso   1.000  C
  C70      1.0000 0.96440  0.81750  0.85030  Biso   1.000  C
  C71      1.0000 0.03560  0.31750  0.14970  Biso   1.000  C
  C72      1.0000 0.46440  0.68250  0.64970  Biso   1.000  C
  H81      1.0000 0.44450  0.85690  0.66240  Biso   1.000  H
  H82      1.0000 0.05550  0.14310  0.16240  Biso   1.000  H
  H83      1.0000 0.94450  0.64310  0.83760  Biso   1.000  H
  H84      1.0000 0.55550  0.35690  0.33760  Biso   1.000  H
  H85      1.0000 0.55550  0.14310  0.33760  Biso   1.000  H
  H86      1.0000 0.94450  0.85690  0.83760  Biso   1.000  H
  H87      1.0000 0.05550  0.35690  0.16240  Biso   1.000  H
  H88      1.0000 0.44450  0.64310  0.66240  Biso   1.000  H
  H89      1.0000 0.47580  0.79660  0.70170  Biso   1.000  H
  H90      1.0000 0.02420  0.20340  0.20170  Biso   1.000  H
  H91      1.0000 0.97580  0.70340  0.79830  Biso   1.000  H
  H92      1.0000 0.52420  0.29660  0.29830  Biso   1.000  H
  H93      1.0000 0.52420  0.20340  0.29830  Biso   1.000  H
  H94      1.0000 0.97580  0.79660  0.79830  Biso   1.000  H
  H95      1.0000 0.02420  0.29660  0.20170  Biso   1.000  H
  H96      1.0000 0.47580  0.70340  0.70170  Biso   1.000  H
  H97      1.0000 0.50990  0.82150  0.61650  Biso   1.000  H
  H98      1.0000 0.99010  0.17850  0.11650  Biso   1.000  H
  H99      1.0000 0.00990  0.67850  0.88350  Biso   1.000  H
  H100     1.0000 0.49010  0.32150  0.38350  Biso   1.000  H
  H101     1.0000 0.49010  0.17850  0.38350  Biso   1.000  H
  H102     1.0000 0.00990  0.82150  0.88350  Biso   1.000  H
  H103     1.0000 0.99010  0.32150  0.11650  Biso   1.000  H
  H104     1.0000 0.50990  0.67850  0.61650  Biso   1.000  H
  C73      1.0000 0.30360  0.78350  0.51160  Biso   1.000  C
  C74      1.0000 0.19640  0.21650  0.01160  Biso   1.000  C
  C75      1.0000 0.80360  0.71650  0.98840  Biso   1.000  C
  C76      1.0000 0.69640  0.28350  0.48840  Biso   1.000  C
  C77      1.0000 0.69640  0.21650  0.48840  Biso   1.000  C
  C78      1.0000 0.80360  0.78350  0.98840  Biso   1.000  C
  C79      1.0000 0.19640  0.28350  0.01160  Biso   1.000  C
  C80      1.0000 0.30360  0.71650  0.51160  Biso   1.000  C
  C81      1.0000 0.24030  0.80140  0.45800  Biso   1.000  C
  C82      1.0000 0.25970  0.19860  0.95800  Biso   1.000  C
  C83      1.0000 0.74030  0.69860  0.04200  Biso   1.000  C
  C84      1.0000 0.75970  0.30140  0.54200  Biso   1.000  C
  C85      1.0000 0.75970  0.19860  0.54200  Biso   1.000  C
  C86      1.0000 0.74030  0.80140  0.04200  Biso   1.000  C
  C87      1.0000 0.25970  0.30140  0.95800  Biso   1.000  C
  C88      1.0000 0.24030  0.69860  0.45800  Biso   1.000  C
  H105     1.0000 0.25750  0.83040  0.41640  Biso   1.000  H
  H106     1.0000 0.24250  0.16960  0.91640  Biso   1.000  H
  H107     1.0000 0.75750  0.66960  0.08360  Biso   1.000  H
  H108     1.0000 0.74250  0.33040  0.58360  Biso   1.000  H
  H109     1.0000 0.74250  0.16960  0.58360  Biso   1.000  H
  H110     1.0000 0.75750  0.83040  0.08360  Biso   1.000  H
  H111     1.0000 0.24250  0.33040  0.91640  Biso   1.000  H
  H112     1.0000 0.25750  0.66960  0.41640  Biso   1.000  H
  H113     1.0000 0.22050  0.76650  0.42880  Biso   1.000  H
  H114     1.0000 0.27950  0.23350  0.92880  Biso   1.000  H
  H115     1.0000 0.72050  0.73350  0.07120  Biso   1.000  H
  H116     1.0000 0.77950  0.26650  0.57120  Biso   1.000  H
  H117     1.0000 0.77950  0.23350  0.57120  Biso   1.000  H
  H118     1.0000 0.72050  0.76650  0.07120  Biso   1.000  H
  H119     1.0000 0.27950  0.26650  0.92880  Biso   1.000  H
  H120     1.0000 0.22050  0.73350  0.42880  Biso   1.000  H
  H121     1.0000 0.20100  0.81920  0.49180  Biso   1.000  H
  H122     1.0000 0.29900  0.18080  0.99180  Biso   1.000  H
  H123     1.0000 0.70100  0.68080  0.00820  Biso   1.000  H
  H124     1.0000 0.79900  0.31920  0.50820  Biso   1.000  H
  H125     1.0000 0.79900  0.18080  0.50820  Biso   1.000  H
  H126     1.0000 0.70100  0.81920  0.00820  Biso   1.000  H
  H127     1.0000 0.29900  0.31920  0.99180  Biso   1.000  H
  H128     1.0000 0.20100  0.68080  0.49180  Biso   1.000  H
  C89      1.0000 0.47110  0.90200  0.38400  Biso   1.000  C
  C90      1.0000 0.02890  0.09800  0.88400  Biso   1.000  C
  C91      1.0000 0.97110  0.59800  0.11600  Biso   1.000  C
  C92      1.0000 0.52890  0.40200  0.61600  Biso   1.000  C
  C93      1.0000 0.52890  0.09800  0.61600  Biso   1.000  C
  C94      1.0000 0.97110  0.90200  0.11600  Biso   1.000  C
  C95      1.0000 0.02890  0.40200  0.88400  Biso   1.000  C
  C96      1.0000 0.47110  0.59800  0.38400  Biso   1.000  C
  H129     1.0000 0.51250  0.89670  0.34500  Biso   1.000  H
  H130     1.0000 0.98750  0.10330  0.84500  Biso   1.000  H
  H131     1.0000 0.01250  0.60330  0.15500  Biso   1.000  H
  H132     1.0000 0.48750  0.39670  0.65500  Biso   1.000  H
  H133     1.0000 0.48750  0.10330  0.65500  Biso   1.000  H
  H134     1.0000 0.01250  0.89670  0.15500  Biso   1.000  H
  H135     1.0000 0.98750  0.39670  0.84500  Biso   1.000  H
  H136     1.0000 0.51250  0.60330  0.34500  Biso   1.000  H
  H137     1.0000 0.46510  0.86590  0.41730  Biso   1.000  H
  H138     1.0000 0.03490  0.13410  0.91730  Biso   1.000  H
  H139     1.0000 0.96510  0.63410  0.08270  Biso   1.000  H
  H140     1.0000 0.53490  0.36590  0.58270  Biso   1.000  H
  H141     1.0000 0.53490  0.13410  0.58270  Biso   1.000  H
  H142     1.0000 0.96510  0.86590  0.08270  Biso   1.000  H
  H143     1.0000 0.03490  0.36590  0.91730  Biso   1.000  H
  H144     1.0000 0.46510  0.63410  0.41730  Biso   1.000  H
  H145     1.0000 0.42520  0.90970  0.35280  Biso   1.000  H
  H146     1.0000 0.07480  0.09030  0.85280  Biso   1.000  H
  H147     1.0000 0.92520  0.59030  0.14720  Biso   1.000  H
  H148     1.0000 0.57480  0.40970  0.64720  Biso   1.000  H
  H149     1.0000 0.57480  0.09030  0.64720  Biso   1.000  H
  H150     1.0000 0.92520  0.90970  0.14720  Biso   1.000  H
  H151     1.0000 0.07480  0.40970  0.85280  Biso   1.000  H
  H152     1.0000 0.42520  0.59030  0.35280  Biso   1.000  H
  C97      1.0000 0.48810  0.95650  0.44390  Biso   1.000  C
  C98      1.0000 0.01190  0.04350  0.94390  Biso   1.000  C
  C99      1.0000 0.98810  0.54350  0.05610  Biso   1.000  C
  C100     1.0000 0.51190  0.45650  0.55610  Biso   1.000  C
  C101     1.0000 0.51190  0.04350  0.55610  Biso   1.000  C
  C102     1.0000 0.98810  0.95650  0.05610  Biso   1.000  C
  C103     1.0000 0.01190  0.45650  0.94390  Biso   1.000  C
  C104     1.0000 0.48810  0.54350  0.44390  Biso   1.000  C
  C105     1.0000 0.53600  0.99720  0.42690  Biso   1.000  C
  C106     1.0000 0.96400  0.00280  0.92690  Biso   1.000  C
  C107     1.0000 0.03600  0.50280  0.07310  Biso   1.000  C
  C108     1.0000 0.46400  0.49720  0.57310  Biso   1.000  C
  C109     1.0000 0.46400  0.00280  0.57310  Biso   1.000  C
  C110     1.0000 0.03600  0.99720  0.07310  Biso   1.000  C
  C111     1.0000 0.96400  0.49720  0.92690  Biso   1.000  C
  C112     1.0000 0.53600  0.50280  0.42690  Biso   1.000  C
  C113     1.0000 0.56900  0.99670  0.35200  Biso   1.000  C
  C114     1.0000 0.93100  0.00330  0.85200  Biso   1.000  C
  C115     1.0000 0.06900  0.50330  0.14800  Biso   1.000  C
  C116     1.0000 0.43100  0.49670  0.64800  Biso   1.000  C
  C117     1.0000 0.43100  0.00330  0.64800  Biso   1.000  C
  C118     1.0000 0.06900  0.99670  0.14800  Biso   1.000  C
  C119     1.0000 0.93100  0.49670  0.85200  Biso   1.000  C
  C120     1.0000 0.56900  0.50330  0.35200  Biso   1.000  C
  H153     1.0000 0.59500  0.95900  0.34400  Biso   1.000  H
  H154     1.0000 0.90500  0.04100  0.84400  Biso   1.000  H
  H155     1.0000 0.09500  0.54100  0.15600  Biso   1.000  H
  H156     1.0000 0.40500  0.45900  0.65600  Biso   1.000  H
  H157     1.0000 0.40500  0.04100  0.65600  Biso   1.000  H
  H158     1.0000 0.09500  0.95900  0.15600  Biso   1.000  H
  H159     1.0000 0.90500  0.45900  0.84400  Biso   1.000  H
  H160     1.0000 0.59500  0.54100  0.34400  Biso   1.000  H
  H161     1.0000 0.60460  0.02950  0.34830  Biso   1.000  H
  H162     1.0000 0.89540  0.97050  0.84830  Biso   1.000  H
  H163     1.0000 0.10460  0.47050  0.15170  Biso   1.000  H
  H164     1.0000 0.39540  0.52950  0.65170  Biso   1.000  H
  H165     1.0000 0.39540  0.97050  0.65170  Biso   1.000  H
  H166     1.0000 0.10460  0.02950  0.15170  Biso   1.000  H
  H167     1.0000 0.89540  0.52950  0.84830  Biso   1.000  H
  H168     1.0000 0.60460  0.47050  0.34830  Biso   1.000  H
  H169     1.0000 0.53100  0.00140  0.30840  Biso   1.000  H
  H170     1.0000 0.96900  0.99860  0.80840  Biso   1.000  H
  H171     1.0000 0.03100  0.49860  0.19160  Biso   1.000  H
  H172     1.0000 0.46900  0.50140  0.69160  Biso   1.000  H
  H173     1.0000 0.46900  0.99860  0.69160  Biso   1.000  H
  H174     1.0000 0.03100  0.00140  0.19160  Biso   1.000  H
  H175     1.0000 0.96900  0.50140  0.80840  Biso   1.000  H
  H176     1.0000 0.53100  0.49860  0.30840  Biso   1.000  H
  N1       1.0000 0.44560  0.95670  0.51630  Biso   1.000  N
  N2       1.0000 0.05440  0.04330  0.01630  Biso   1.000  N
  N3       1.0000 0.94560  0.54330  0.98370  Biso   1.000  N
  N4       1.0000 0.55440  0.45670  0.48370  Biso   1.000  N
  N5       1.0000 0.55440  0.04330  0.48370  Biso   1.000  N
  N6       1.0000 0.94560  0.95670  0.98370  Biso   1.000  N
  N7       1.0000 0.05440  0.45670  0.01630  Biso   1.000  N
  N8       1.0000 0.44560  0.54330  0.51630  Biso   1.000  N
  N9       1.0000 0.35870  0.81200  0.55410  Biso   1.000  N
  N10      1.0000 0.14130  0.18800  0.05410  Biso   1.000  N
  N11      1.0000 0.85870  0.68800  0.94590  Biso   1.000  N
  N12      1.0000 0.64130  0.31200  0.44590  Biso   1.000  N
  N13      1.0000 0.64130  0.18800  0.44590  Biso   1.000  N
  N14      1.0000 0.85870  0.81200  0.94590  Biso   1.000  N
  N15      1.0000 0.14130  0.31200  0.05410  Biso   1.000  N
  N16      1.0000 0.35870  0.68800  0.55410  Biso   1.000  N
  N17      1.0000 0.25060  0.93740  0.53440  Biso   1.000  N
  N18      1.0000 0.24940  0.06260  0.03440  Biso   1.000  N
  N19      1.0000 0.75060  0.56260  0.96560  Biso   1.000  N
  N20      1.0000 0.74940  0.43740  0.46560  Biso   1.000  N
  N21      1.0000 0.74940  0.06260  0.46560  Biso   1.000  N
  N22      1.0000 0.75060  0.93740  0.96560  Biso   1.000  N
  N23      1.0000 0.24940  0.43740  0.03440  Biso   1.000  N
  N24      1.0000 0.25060  0.56260  0.53440  Biso   1.000  N
  N25      1.0000 0.10430  0.96910  0.51650  Biso   1.000  N
  N26      1.0000 0.39570  0.03090  0.01650  Biso   1.000  N
  N27      1.0000 0.60430  0.53090  0.98350  Biso   1.000  N
  N28      1.0000 0.89570  0.46910  0.48350  Biso   1.000  N
  N29      1.0000 0.89570  0.03090  0.48350  Biso   1.000  N
  N30      1.0000 0.60430  0.96910  0.98350  Biso   1.000  N
  N31      1.0000 0.39570  0.46910  0.01650  Biso   1.000  N
  N32      1.0000 0.10430  0.53090  0.51650  Biso   1.000  N
  O1       1.0000 0.27300  0.25000  0.19620  Biso   1.000  O
  O2       1.0000 0.22700  0.75000  0.69620  Biso   1.000  O
  O3       1.0000 0.77300  0.25000  0.30380  Biso   1.000  O
  O4       1.0000 0.72700  0.75000  0.80380  Biso   1.000  O
  O5       1.0000 0.17070  0.19060  0.30100  Biso   1.000  O
  O6       1.0000 0.32930  0.80940  0.80100  Biso   1.000  O
  O7       1.0000 0.67070  0.30940  0.19900  Biso   1.000  O
  O8       1.0000 0.82930  0.69060  0.69900  Biso   1.000  O
  O9       1.0000 0.82930  0.80940  0.69900  Biso   1.000  O
  O10      1.0000 0.67070  0.19060  0.19900  Biso   1.000  O
  O11      1.0000 0.32930  0.69060  0.80100  Biso   1.000  O
  O12      1.0000 0.17070  0.30940  0.30100  Biso   1.000  O
  O13      1.0000 0.31620  0.18920  0.33970  Biso   1.000  O
  O14      1.0000 0.18380  0.81080  0.83970  Biso   1.000  O
  O15      1.0000 0.81620  0.31080  0.16030  Biso   1.000  O
  O16      1.0000 0.68380  0.68920  0.66030  Biso   1.000  O
  O17      1.0000 0.68380  0.81080  0.66030  Biso   1.000  O
  O18      1.0000 0.81620  0.18920  0.16030  Biso   1.000  O
  O19      1.0000 0.18380  0.68920  0.83970  Biso   1.000  O
  O20      1.0000 0.31620  0.31080  0.33970  Biso   1.000  O
  O21      1.0000 0.91270  0.25000  0.42350  Biso   1.000  O
  O22      1.0000 0.58730  0.75000  0.92350  Biso   1.000  O
  O23      1.0000 0.41270  0.25000  0.07650  Biso   1.000  O
  O24      1.0000 0.08730  0.75000  0.57650  Biso   1.000  O
  O25      1.0000 0.04470  0.19030  0.38210  Biso   1.000  O
  O26      1.0000 0.45530  0.80970  0.88210  Biso   1.000  O
  O27      1.0000 0.54470  0.30970  0.11790  Biso   1.000  O
  O28      1.0000 0.95530  0.69030  0.61790  Biso   1.000  O
  O29      1.0000 0.95530  0.80970  0.61790  Biso   1.000  O
  O30      1.0000 0.54470  0.19030  0.11790  Biso   1.000  O
  O31      1.0000 0.45530  0.69030  0.88210  Biso   1.000  O
  O32      1.0000 0.04470  0.30970  0.38210  Biso   1.000  O
  O33      1.0000 0.09790  0.07980  0.31640  Biso   1.000  O
  O34      1.0000 0.40210  0.92020  0.81640  Biso   1.000  O
  O35      1.0000 0.59790  0.42020  0.18360  Biso   1.000  O
  O36      1.0000 0.90210  0.57980  0.68360  Biso   1.000  O
  O37      1.0000 0.90210  0.92020  0.68360  Biso   1.000  O
  O38      1.0000 0.59790  0.07980  0.18360  Biso   1.000  O
  O39      1.0000 0.40210  0.57980  0.81640  Biso   1.000  O
  O40      1.0000 0.09790  0.42020  0.31640  Biso   1.000  O
  O41      1.0000 0.22730  0.10410  0.40240  Biso   1.000  O
  O42      1.0000 0.27270  0.89590  0.90240  Biso   1.000  O
  O43      1.0000 0.72730  0.39590  0.09760  Biso   1.000  O
  O44      1.0000 0.77270  0.60410  0.59760  Biso   1.000  O
  O45      1.0000 0.77270  0.89590  0.59760  Biso   1.000  O
  O46      1.0000 0.72730  0.10410  0.09760  Biso   1.000  O
  O47      1.0000 0.27270  0.60410  0.90240  Biso   1.000  O
  O48      1.0000 0.22730  0.39590  0.40240  Biso   1.000  O
  O49      1.0000 0.39290  0.18970  0.48820  Biso   1.000  O
  O50      1.0000 0.10710  0.81030  0.98820  Biso   1.000  O
  O51      1.0000 0.89290  0.31030  0.01180  Biso   1.000  O
  O52      1.0000 0.60710  0.68970  0.51180  Biso   1.000  O
  O53      1.0000 0.60710  0.81030  0.51180  Biso   1.000  O
  O54      1.0000 0.89290  0.18970  0.01180  Biso   1.000  O
  O55      1.0000 0.10710  0.68970  0.98820  Biso   1.000  O
  O56      1.0000 0.39290  0.31030  0.48820  Biso   1.000  O
  O57      1.0000 0.48450  0.25000  0.60220  Biso   1.000  O
  O58      1.0000 0.01550  0.75000  0.10220  Biso   1.000  O
  O59      1.0000 0.98450  0.25000  0.89780  Biso   1.000  O
  O60      1.0000 0.51550  0.75000  0.39780  Biso   1.000  O
  O61      1.0000 0.30300  0.10460  0.54500  Biso   1.000  O
  O62      1.0000 0.19700  0.89540  0.04500  Biso   1.000  O
  O63      1.0000 0.80300  0.39540  0.95500  Biso   1.000  O
  O64      1.0000 0.69700  0.60460  0.45500  Biso   1.000  O
  O65      1.0000 0.69700  0.89540  0.45500  Biso   1.000  O
  O66      1.0000 0.80300  0.10460  0.95500  Biso   1.000  O
  O67      1.0000 0.19700  0.60460  0.04500  Biso   1.000  O
  O68      1.0000 0.30300  0.39540  0.54500  Biso   1.000  O
  O69      1.0000 0.16820  0.39430  0.63090  Biso   1.000  O
  O70      1.0000 0.33180  0.60570  0.13090  Biso   1.000  O
  O71      1.0000 0.66820  0.10570  0.86910  Biso   1.000  O
  O72      1.0000 0.83180  0.89430  0.36910  Biso   1.000  O
  O73      1.0000 0.83180  0.60570  0.36910  Biso   1.000  O
  O74      1.0000 0.66820  0.39430  0.86910  Biso   1.000  O
  O75      1.0000 0.33180  0.89430  0.13090  Biso   1.000  O
  O76      1.0000 0.16820  0.10570  0.63090  Biso   1.000  O
  O77      1.0000 0.09180  0.10640  0.48620  Biso   1.000  O
  O78      1.0000 0.40820  0.89360  0.98620  Biso   1.000  O
  O79      1.0000 0.59180  0.39360  0.01380  Biso   1.000  O
  O80      1.0000 0.90820  0.60640  0.51380  Biso   1.000  O
  O81      1.0000 0.90820  0.89360  0.51380  Biso   1.000  O
  O82      1.0000 0.59180  0.10640  0.01380  Biso   1.000  O
  O83      1.0000 0.40820  0.60640  0.98620  Biso   1.000  O
  O84      1.0000 0.09180  0.39360  0.48620  Biso   1.000  O
  O85      1.0000 0.00300  0.30880  0.54380  Biso   1.000  O
  O86      1.0000 0.49700  0.69120  0.04380  Biso   1.000  O
  O87      1.0000 0.50300  0.19120  0.95620  Biso   1.000  O
  O88      1.0000 0.99700  0.80880  0.45620  Biso   1.000  O
  O89      1.0000 0.99700  0.69120  0.45620  Biso   1.000  O
  O90      1.0000 0.50300  0.30880  0.95620  Biso   1.000  O
  O91      1.0000 0.49700  0.80880  0.04380  Biso   1.000  O
  O92      1.0000 0.00300  0.19120  0.54380  Biso   1.000  O
  O93      1.0000 0.07820  0.19250  0.69090  Biso   1.000  O
  O94      1.0000 0.42180  0.80750  0.19090  Biso   1.000  O
  O95      1.0000 0.57820  0.30750  0.80910  Biso   1.000  O
  O96      1.0000 0.92180  0.69250  0.30910  Biso   1.000  O
  O97      1.0000 0.92180  0.80750  0.30910  Biso   1.000  O
  O98      1.0000 0.57820  0.19250  0.80910  Biso   1.000  O
  O99      1.0000 0.42180  0.69250  0.19090  Biso   1.000  O
  O100     1.0000 0.07820  0.30750  0.69090  Biso   1.000  O
  O101     1.0000 0.01070  0.41340  0.63240  Biso   1.000  O
  O102     1.0000 0.48930  0.58660  0.13240  Biso   1.000  O
  O103     1.0000 0.51070  0.08660  0.86760  Biso   1.000  O
  O104     1.0000 0.98930  0.91340  0.36760  Biso   1.000  O
  O105     1.0000 0.98930  0.58660  0.36760  Biso   1.000  O
  O106     1.0000 0.51070  0.41340  0.86760  Biso   1.000  O
  O107     1.0000 0.48930  0.91340  0.13240  Biso   1.000  O
  O108     1.0000 0.01070  0.08660  0.63240  Biso   1.000  O
  O109     1.0000 0.38500  0.08510  0.39680  Biso   1.000  O
  O110     1.0000 0.11500  0.91490  0.89680  Biso   1.000  O
  O111     1.0000 0.88500  0.41490  0.10320  Biso   1.000  O
  O112     1.0000 0.61500  0.58510  0.60320  Biso   1.000  O
  O113     1.0000 0.61500  0.91490  0.60320  Biso   1.000  O
  O114     1.0000 0.88500  0.08510  0.10320  Biso   1.000  O
  O115     1.0000 0.11500  0.58510  0.89680  Biso   1.000  O
  O116     1.0000 0.38500  0.41490  0.39680  Biso   1.000  O
  O117     1.0000 0.12940  0.25000  0.83740  Biso   1.000  O
  O118     1.0000 0.37060  0.75000  0.33740  Biso   1.000  O
  O119     1.0000 0.62940  0.25000  0.66260  Biso   1.000  O
  O120     1.0000 0.87060  0.75000  0.16260  Biso   1.000  O
  O121     1.0000 0.30240  0.42000  0.71350  Biso   1.000  O
  O122     1.0000 0.19760  0.58000  0.21350  Biso   1.000  O
  O123     1.0000 0.80240  0.08000  0.78650  Biso   1.000  O
  O124     1.0000 0.69760  0.92000  0.28650  Biso   1.000  O
  O125     1.0000 0.69760  0.58000  0.28650  Biso   1.000  O
  O126     1.0000 0.80240  0.42000  0.78650  Biso   1.000  O
  O127     1.0000 0.19760  0.92000  0.21350  Biso   1.000  O
  O128     1.0000 0.30240  0.08000  0.71350  Biso   1.000  O
  O129     1.0000 0.35430  0.31160  0.65060  Biso   1.000  O
  O130     1.0000 0.14570  0.68840  0.15060  Biso   1.000  O
  O131     1.0000 0.85430  0.18840  0.84940  Biso   1.000  O
  O132     1.0000 0.64570  0.81160  0.34940  Biso   1.000  O
  O133     1.0000 0.64570  0.68840  0.34940  Biso   1.000  O
  O134     1.0000 0.85430  0.31160  0.84940  Biso   1.000  O
  O135     1.0000 0.14570  0.81160  0.15060  Biso   1.000  O
  O136     1.0000 0.35430  0.18840  0.65060  Biso   1.000  O
  O137     1.0000 0.22660  0.18940  0.72890  Biso   1.000  O
  O138     1.0000 0.27340  0.81060  0.22890  Biso   1.000  O
  O139     1.0000 0.72660  0.31060  0.77110  Biso   1.000  O
  O140     1.0000 0.77340  0.68940  0.27110  Biso   1.000  O
  O141     1.0000 0.77340  0.81060  0.27110  Biso   1.000  O
  O142     1.0000 0.72660  0.18940  0.77110  Biso   1.000  O
  O143     1.0000 0.27340  0.68940  0.22890  Biso   1.000  O
  O144     1.0000 0.22660  0.31060  0.72890  Biso   1.000  O
  O145     1.0000 0.22070  0.28920  0.44010  Biso   1.000  O
  O146     1.0000 0.27930  0.71080  0.94010  Biso   1.000  O
  O147     1.0000 0.72070  0.21080  0.05990  Biso   1.000  O
  O148     1.0000 0.77930  0.78920  0.55990  Biso   1.000  O
  O149     1.0000 0.77930  0.71080  0.55990  Biso   1.000  O
  O150     1.0000 0.72070  0.28920  0.05990  Biso   1.000  O
  O151     1.0000 0.27930  0.78920  0.94010  Biso   1.000  O
  O152     1.0000 0.22070  0.21080  0.44010  Biso   1.000  O
  O153     1.0000 0.26660  0.29230  0.53650  Biso   1.000  O
  O154     1.0000 0.23340  0.70770  0.03650  Biso   1.000  O
  O155     1.0000 0.76660  0.20770  0.96350  Biso   1.000  O
  O156     1.0000 0.73340  0.79230  0.46350  Biso   1.000  O
  O157     1.0000 0.73340  0.70770  0.46350  Biso   1.000  O
  O158     1.0000 0.76660  0.29230  0.96350  Biso   1.000  O
  O159     1.0000 0.23340  0.79230  0.03650  Biso   1.000  O
  O160     1.0000 0.26660  0.20770  0.53650  Biso   1.000  O
  O161     1.0000 0.18130  0.28750  0.59330  Biso   1.000  O
  O162     1.0000 0.31870  0.71250  0.09330  Biso   1.000  O
  O163     1.0000 0.68130  0.21250  0.90670  Biso   1.000  O
  O164     1.0000 0.81870  0.78750  0.40670  Biso   1.000  O
  O165     1.0000 0.81870  0.71250  0.40670  Biso   1.000  O
  O166     1.0000 0.68130  0.28750  0.90670  Biso   1.000  O
  O167     1.0000 0.31870  0.78750  0.09330  Biso   1.000  O
  O168     1.0000 0.18130  0.21250  0.59330  Biso   1.000  O
  O169     1.0000 0.12970  0.28960  0.49520  Biso   1.000  O
  O170     1.0000 0.37030  0.71040  0.99520  Biso   1.000  O
  O171     1.0000 0.62970  0.21040  0.00480  Biso   1.000  O
  O172     1.0000 0.87030  0.78960  0.50480  Biso   1.000  O
  O173     1.0000 0.87030  0.71040  0.50480  Biso   1.000  O
  O174     1.0000 0.62970  0.28960  0.00480  Biso   1.000  O
  O175     1.0000 0.37030  0.78960  0.99520  Biso   1.000  O
  O176     1.0000 0.12970  0.21040  0.49520  Biso   1.000  O
  P1       1.0000 0.19860  0.25000  0.51590  Biso   1.000  P
  P2       1.0000 0.30140  0.75000  0.01590  Biso   1.000  P
  P3       1.0000 0.69860  0.25000  0.98410  Biso   1.000  P
  P4       1.0000 0.80140  0.75000  0.48410  Biso   1.000  P
  O177     1.0000 0.41000  0.25000  0.80900  Biso   1.000  O
  O178     1.0000 0.09000  0.75000  0.30900  Biso   1.000  O
  O179     1.0000 0.91000  0.25000  0.69100  Biso   1.000  O
  O180     1.0000 0.59000  0.75000  0.19100  Biso   1.000  O
  H177     1.0000 0.44000  0.25000  0.76700  Biso   1.000  H
  H178     1.0000 0.06000  0.75000  0.26700  Biso   1.000  H
  H179     1.0000 0.94000  0.25000  0.73300  Biso   1.000  H
  H180     1.0000 0.56000  0.75000  0.23300  Biso   1.000  H
  H181     1.0000 0.44000  0.25000  0.85300  Biso   1.000  H
  H182     1.0000 0.06000  0.75000  0.35300  Biso   1.000  H
  H183     1.0000 0.94000  0.25000  0.64700  Biso   1.000  H
  H184     1.0000 0.56000  0.75000  0.14700  Biso   1.000  H
