data_image0
_cell_length_a       19.781
_cell_length_b       11.026
_cell_length_c       16.339
_cell_angle_alpha    90
_cell_angle_beta     127.186
_cell_angle_gamma    90

_symmetry_space_group_name_H-M    "P 1"
_symmetry_int_tables_number       1

loop_
  _symmetry_equiv_pos_as_xyz
  'x, y, z'

loop_
  _atom_site_label
  _atom_site_occupancy
  _atom_site_fract_x
  _atom_site_fract_y
  _atom_site_fract_z
  _atom_site_thermal_displace_type
  _atom_site_B_iso_or_equiv
  _atom_site_type_symbol
  C1       1.0000 0.00190  0.17080  0.44220  Biso   1.000  C
  C2       1.0000 0.99810  0.17080  0.05780  Biso   1.000  C
  C3       1.0000 0.50190  0.67080  0.44220  Biso   1.000  C
  C4       1.0000 0.49810  0.67080  0.05780  Biso   1.000  C
  C5       1.0000 0.99810  0.82920  0.55780  Biso   1.000  C
  C6       1.0000 0.00190  0.82920  0.94220  Biso   1.000  C
  C7       1.0000 0.49810  0.32920  0.55780  Biso   1.000  C
  C8       1.0000 0.50190  0.32920  0.94220  Biso   1.000  C
  C9       1.0000 0.04120  0.11240  0.40430  Biso   1.000  C
  C10      1.0000 0.95880  0.11240  0.09570  Biso   1.000  C
  C11      1.0000 0.54120  0.61240  0.40430  Biso   1.000  C
  C12      1.0000 0.45880  0.61240  0.09570  Biso   1.000  C
  C13      1.0000 0.95880  0.88760  0.59570  Biso   1.000  C
  C14      1.0000 0.04120  0.88760  0.90430  Biso   1.000  C
  C15      1.0000 0.45880  0.38760  0.59570  Biso   1.000  C
  C16      1.0000 0.54120  0.38760  0.90430  Biso   1.000  C
  C17      1.0000 0.92910  0.10730  0.40340  Biso   1.000  C
  C18      1.0000 0.07090  0.10730  0.09660  Biso   1.000  C
  C19      1.0000 0.42910  0.60730  0.40340  Biso   1.000  C
  C20      1.0000 0.57090  0.60730  0.09660  Biso   1.000  C
  C21      1.0000 0.07090  0.89270  0.59660  Biso   1.000  C
  C22      1.0000 0.92910  0.89270  0.90340  Biso   1.000  C
  C23      1.0000 0.57090  0.39270  0.59660  Biso   1.000  C
  C24      1.0000 0.42910  0.39270  0.90340  Biso   1.000  C
  N1       1.0000 0.92690  0.01620  0.34640  Biso   1.000  N
  N2       1.0000 0.07310  0.01620  0.15360  Biso   1.000  N
  N3       1.0000 0.42690  0.51620  0.34640  Biso   1.000  N
  N4       1.0000 0.57310  0.51620  0.15360  Biso   1.000  N
  N5       1.0000 0.07310  0.98380  0.65360  Biso   1.000  N
  N6       1.0000 0.92690  0.98380  0.84640  Biso   1.000  N
  N7       1.0000 0.57310  0.48380  0.65360  Biso   1.000  N
  N8       1.0000 0.42690  0.48380  0.84640  Biso   1.000  N
  N9       1.0000 0.99550  0.01730  0.34630  Biso   1.000  N
  N10      1.0000 0.00450  0.01730  0.15370  Biso   1.000  N
  N11      1.0000 0.49550  0.51730  0.34630  Biso   1.000  N
  N12      1.0000 0.50450  0.51730  0.15370  Biso   1.000  N
  N13      1.0000 0.00450  0.98270  0.65370  Biso   1.000  N
  N14      1.0000 0.99550  0.98270  0.84630  Biso   1.000  N
  N15      1.0000 0.50450  0.48270  0.65370  Biso   1.000  N
  N16      1.0000 0.49550  0.48270  0.84630  Biso   1.000  N
  I1       1.0000 0.14300  0.77805  0.33097  Biso   1.000  I
  I2       1.0000 0.85700  0.77805  0.16903  Biso   1.000  I
  I3       1.0000 0.64300  0.27805  0.33097  Biso   1.000  I
  I4       1.0000 0.35700  0.27805  0.16903  Biso   1.000  I
  I5       1.0000 0.85700  0.22195  0.66903  Biso   1.000  I
  I6       1.0000 0.14300  0.22195  0.83097  Biso   1.000  I
  I7       1.0000 0.35700  0.72195  0.66903  Biso   1.000  I
  I8       1.0000 0.64300  0.72195  0.83097  Biso   1.000  I
  Cu1      1.0000 0.00000  0.90524  0.25000  Biso   1.000  Cu
  Cu2      1.0000 0.50000  0.40524  0.25000  Biso   1.000  Cu
  Cu3      1.0000 0.00000  0.09476  0.75000  Biso   1.000  Cu
  Cu4      1.0000 0.50000  0.59476  0.75000  Biso   1.000  Cu
  Cu5      1.0000 0.00000  0.65317  0.25000  Biso   1.000  Cu
  Cu6      1.0000 0.50000  0.15317  0.25000  Biso   1.000  Cu
  Cu7      1.0000 0.00000  0.34683  0.75000  Biso   1.000  Cu
  Cu8      1.0000 0.50000  0.84683  0.75000  Biso   1.000  Cu
  C25      1.0000 0.03290  0.28070  0.51070  Biso   1.000  C
  C26      1.0000 0.96710  0.28070  0.98930  Biso   1.000  C
  C27      1.0000 0.53290  0.78070  0.51070  Biso   1.000  C
  C28      1.0000 0.46710  0.78070  0.98930  Biso   1.000  C
  C29      1.0000 0.96710  0.71930  0.48930  Biso   1.000  C
  C30      1.0000 0.03290  0.71930  0.01070  Biso   1.000  C
  C31      1.0000 0.46710  0.21930  0.48930  Biso   1.000  C
  C32      1.0000 0.53290  0.21930  0.01070  Biso   1.000  C
  H1       1.0000 0.03920  0.28220  0.57190  Biso   1.000  H
  H2       1.0000 0.96080  0.28220  0.92810  Biso   1.000  H
  H3       1.0000 0.53920  0.78220  0.57190  Biso   1.000  H
  H4       1.0000 0.46080  0.78220  0.92810  Biso   1.000  H
  H5       1.0000 0.96080  0.71780  0.42810  Biso   1.000  H
  H6       1.0000 0.03920  0.71780  0.07190  Biso   1.000  H
  H7       1.0000 0.46080  0.21780  0.42810  Biso   1.000  H
  H8       1.0000 0.53920  0.21780  0.07190  Biso   1.000  H
  N17      1.0000 0.03740  0.54020  0.37030  Biso   1.000  N
  N18      1.0000 0.96260  0.54020  0.12970  Biso   1.000  N
  N19      1.0000 0.53740  0.04020  0.37030  Biso   1.000  N
  N20      1.0000 0.46260  0.04020  0.12970  Biso   1.000  N
  N21      1.0000 0.96260  0.45980  0.62970  Biso   1.000  N
  N22      1.0000 0.03740  0.45980  0.87030  Biso   1.000  N
  N23      1.0000 0.46260  0.95980  0.62970  Biso   1.000  N
  N24      1.0000 0.53740  0.95980  0.87030  Biso   1.000  N
  N25      1.0000 0.11560  0.53870  0.45830  Biso   1.000  N
  N26      1.0000 0.88440  0.53870  0.04170  Biso   1.000  N
  N27      1.0000 0.61560  0.03870  0.45830  Biso   1.000  N
  N28      1.0000 0.38440  0.03870  0.04170  Biso   1.000  N
  N29      1.0000 0.88440  0.46130  0.54170  Biso   1.000  N
  N30      1.0000 0.11560  0.46130  0.95830  Biso   1.000  N
  N31      1.0000 0.38440  0.96130  0.54170  Biso   1.000  N
  N32      1.0000 0.61560  0.96130  0.95830  Biso   1.000  N
  C33      1.0000 0.99870  0.44730  0.37800  Biso   1.000  C
  C34      1.0000 0.00130  0.44730  0.12200  Biso   1.000  C
  C35      1.0000 0.49870  0.94730  0.37800  Biso   1.000  C
  C36      1.0000 0.50130  0.94730  0.12200  Biso   1.000  C
  C37      1.0000 0.00130  0.55270  0.62200  Biso   1.000  C
  C38      1.0000 0.99870  0.55270  0.87800  Biso   1.000  C
  C39      1.0000 0.50130  0.05270  0.62200  Biso   1.000  C
  C40      1.0000 0.49870  0.05270  0.87800  Biso   1.000  C
  C41      1.0000 0.12810  0.44890  0.52220  Biso   1.000  C
  C42      1.0000 0.87190  0.44890  0.97780  Biso   1.000  C
  C43      1.0000 0.62810  0.94890  0.52220  Biso   1.000  C
  C44      1.0000 0.37190  0.94890  0.97780  Biso   1.000  C
  C45      1.0000 0.87190  0.55110  0.47780  Biso   1.000  C
  C46      1.0000 0.12810  0.55110  0.02220  Biso   1.000  C
  C47      1.0000 0.37190  0.05110  0.47780  Biso   1.000  C
  C48      1.0000 0.62810  0.05110  0.02220  Biso   1.000  C
  C49      1.0000 0.05250  0.38750  0.47170  Biso   1.000  C
  C50      1.0000 0.94750  0.38750  0.02830  Biso   1.000  C
  C51      1.0000 0.55250  0.88750  0.47170  Biso   1.000  C
  C52      1.0000 0.44750  0.88750  0.02830  Biso   1.000  C
  C53      1.0000 0.94750  0.61250  0.52830  Biso   1.000  C
  C54      1.0000 0.05250  0.61250  0.97170  Biso   1.000  C
  C55      1.0000 0.44750  0.11250  0.52830  Biso   1.000  C
  C56      1.0000 0.55250  0.11250  0.97170  Biso   1.000  C
  C57      1.0000 0.90910  0.41770  0.29180  Biso   1.000  C
  C58      1.0000 0.09090  0.41770  0.20820  Biso   1.000  C
  C59      1.0000 0.40910  0.91770  0.29180  Biso   1.000  C
  C60      1.0000 0.59090  0.91770  0.20820  Biso   1.000  C
  C61      1.0000 0.09090  0.58230  0.70820  Biso   1.000  C
  C62      1.0000 0.90910  0.58230  0.79180  Biso   1.000  C
  C63      1.0000 0.59090  0.08230  0.70820  Biso   1.000  C
  C64      1.0000 0.40910  0.08230  0.79180  Biso   1.000  C
  H9       1.0000 0.87950  0.39400  0.31890  Biso   1.000  H
  H10      1.0000 0.12050  0.39400  0.18110  Biso   1.000  H
  H11      1.0000 0.37950  0.89400  0.31890  Biso   1.000  H
  H12      1.0000 0.62050  0.89400  0.18110  Biso   1.000  H
  H13      1.0000 0.12050  0.60600  0.68110  Biso   1.000  H
  H14      1.0000 0.87950  0.60600  0.81890  Biso   1.000  H
  H15      1.0000 0.62050  0.10600  0.68110  Biso   1.000  H
  H16      1.0000 0.37950  0.10600  0.81890  Biso   1.000  H
  H17      1.0000 0.90790  0.35220  0.25210  Biso   1.000  H
  H18      1.0000 0.09210  0.35220  0.24790  Biso   1.000  H
  H19      1.0000 0.40790  0.85220  0.25210  Biso   1.000  H
  H20      1.0000 0.59210  0.85220  0.24790  Biso   1.000  H
  H21      1.0000 0.09210  0.64780  0.74790  Biso   1.000  H
  H22      1.0000 0.90790  0.64780  0.75210  Biso   1.000  H
  H23      1.0000 0.59210  0.14780  0.74790  Biso   1.000  H
  H24      1.0000 0.40790  0.14780  0.75210  Biso   1.000  H
  H25      1.0000 0.88210  0.48770  0.24870  Biso   1.000  H
  H26      1.0000 0.11790  0.48770  0.25130  Biso   1.000  H
  H27      1.0000 0.38210  0.98770  0.24870  Biso   1.000  H
  H28      1.0000 0.61790  0.98770  0.25130  Biso   1.000  H
  H29      1.0000 0.11790  0.51230  0.75130  Biso   1.000  H
  H30      1.0000 0.88210  0.51230  0.74870  Biso   1.000  H
  H31      1.0000 0.61790  0.01230  0.75130  Biso   1.000  H
  H32      1.0000 0.38210  0.01230  0.74870  Biso   1.000  H
  C65      1.0000 0.21100  0.42850  0.62450  Biso   1.000  C
  C66      1.0000 0.78900  0.42850  0.87550  Biso   1.000  C
  C67      1.0000 0.71100  0.92850  0.62450  Biso   1.000  C
  C68      1.0000 0.28900  0.92850  0.87550  Biso   1.000  C
  C69      1.0000 0.78900  0.57150  0.37550  Biso   1.000  C
  C70      1.0000 0.21100  0.57150  0.12450  Biso   1.000  C
  C71      1.0000 0.28900  0.07150  0.37550  Biso   1.000  C
  C72      1.0000 0.71100  0.07150  0.12450  Biso   1.000  C
  H33      1.0000 0.24630  0.37830  0.61660  Biso   1.000  H
  H34      1.0000 0.75370  0.37830  0.88340  Biso   1.000  H
  H35      1.0000 0.74630  0.87830  0.61660  Biso   1.000  H
  H36      1.0000 0.25370  0.87830  0.88340  Biso   1.000  H
  H37      1.0000 0.75370  0.62170  0.38340  Biso   1.000  H
  H38      1.0000 0.24630  0.62170  0.11660  Biso   1.000  H
  H39      1.0000 0.25370  0.12170  0.38340  Biso   1.000  H
  H40      1.0000 0.74630  0.12170  0.11660  Biso   1.000  H
  H41      1.0000 0.20160  0.38910  0.66920  Biso   1.000  H
  H42      1.0000 0.79840  0.38910  0.83080  Biso   1.000  H
  H43      1.0000 0.70160  0.88910  0.66920  Biso   1.000  H
  H44      1.0000 0.29840  0.88910  0.83080  Biso   1.000  H
  H45      1.0000 0.79840  0.61090  0.33080  Biso   1.000  H
  H46      1.0000 0.20160  0.61090  0.16920  Biso   1.000  H
  H47      1.0000 0.29840  0.11090  0.33080  Biso   1.000  H
  H48      1.0000 0.70160  0.11090  0.16920  Biso   1.000  H
  H49      1.0000 0.23850  0.50510  0.65370  Biso   1.000  H
  H50      1.0000 0.76150  0.50510  0.84630  Biso   1.000  H
  H51      1.0000 0.73850  0.00510  0.65370  Biso   1.000  H
  H52      1.0000 0.26150  0.00510  0.84630  Biso   1.000  H
  H53      1.0000 0.76150  0.49490  0.34630  Biso   1.000  H
  H54      1.0000 0.23850  0.49490  0.15370  Biso   1.000  H
  H55      1.0000 0.26150  0.99490  0.34630  Biso   1.000  H
  H56      1.0000 0.73850  0.99490  0.15370  Biso   1.000  H
  C73      1.0000 0.12350  0.14040  0.42270  Biso   1.000  C
  C74      1.0000 0.87650  0.14040  0.07730  Biso   1.000  C
  C75      1.0000 0.62350  0.64040  0.42270  Biso   1.000  C
  C76      1.0000 0.37650  0.64040  0.07730  Biso   1.000  C
  C77      1.0000 0.87650  0.85960  0.57730  Biso   1.000  C
  C78      1.0000 0.12350  0.85960  0.92270  Biso   1.000  C
  C79      1.0000 0.37650  0.35960  0.57730  Biso   1.000  C
  C80      1.0000 0.62350  0.35960  0.92270  Biso   1.000  C
  H57      1.0000 0.15420  0.06640  0.43580  Biso   1.000  H
  H58      1.0000 0.84580  0.06640  0.06420  Biso   1.000  H
  H59      1.0000 0.65420  0.56640  0.43580  Biso   1.000  H
  H60      1.0000 0.34580  0.56640  0.06420  Biso   1.000  H
  H61      1.0000 0.84580  0.93360  0.56420  Biso   1.000  H
  H62      1.0000 0.15420  0.93360  0.93580  Biso   1.000  H
  H63      1.0000 0.34580  0.43360  0.56420  Biso   1.000  H
  H64      1.0000 0.65420  0.43360  0.93580  Biso   1.000  H
  H65      1.0000 0.15670  0.19320  0.48100  Biso   1.000  H
  H66      1.0000 0.84330  0.19320  0.01900  Biso   1.000  H
  H67      1.0000 0.65670  0.69320  0.48100  Biso   1.000  H
  H68      1.0000 0.34330  0.69320  0.01900  Biso   1.000  H
  H69      1.0000 0.84330  0.80680  0.51900  Biso   1.000  H
  H70      1.0000 0.15670  0.80680  0.98100  Biso   1.000  H
  H71      1.0000 0.34330  0.30680  0.51900  Biso   1.000  H
  H72      1.0000 0.65670  0.30680  0.98100  Biso   1.000  H
  H73      1.0000 0.11240  0.17940  0.36320  Biso   1.000  H
  H74      1.0000 0.88760  0.17940  0.13680  Biso   1.000  H
  H75      1.0000 0.61240  0.67940  0.36320  Biso   1.000  H
  H76      1.0000 0.38760  0.67940  0.13680  Biso   1.000  H
  H77      1.0000 0.88760  0.82060  0.63680  Biso   1.000  H
  H78      1.0000 0.11240  0.82060  0.86320  Biso   1.000  H
  H79      1.0000 0.38760  0.32060  0.63680  Biso   1.000  H
  H80      1.0000 0.61240  0.32060  0.86320  Biso   1.000  H
  C81      1.0000 0.86010  0.12600  0.41260  Biso   1.000  C
  C82      1.0000 0.13990  0.12600  0.08740  Biso   1.000  C
  C83      1.0000 0.36010  0.62600  0.41260  Biso   1.000  C
  C84      1.0000 0.63990  0.62600  0.08740  Biso   1.000  C
  C85      1.0000 0.13990  0.87400  0.58740  Biso   1.000  C
  C86      1.0000 0.86010  0.87400  0.91260  Biso   1.000  C
  C87      1.0000 0.63990  0.37400  0.58740  Biso   1.000  C
  C88      1.0000 0.36010  0.37400  0.91260  Biso   1.000  C
  H81      1.0000 0.88400  0.14170  0.48310  Biso   1.000  H
  H82      1.0000 0.11600  0.14170  0.01690  Biso   1.000  H
  H83      1.0000 0.38400  0.64170  0.48310  Biso   1.000  H
  H84      1.0000 0.61600  0.64170  0.01690  Biso   1.000  H
  H85      1.0000 0.11600  0.85830  0.51690  Biso   1.000  H
  H86      1.0000 0.88400  0.85830  0.98310  Biso   1.000  H
  H87      1.0000 0.61600  0.35830  0.51690  Biso   1.000  H
  H88      1.0000 0.38400  0.35830  0.98310  Biso   1.000  H
  H89      1.0000 0.82540  0.05450  0.38980  Biso   1.000  H
  H90      1.0000 0.17460  0.05450  0.11020  Biso   1.000  H
  H91      1.0000 0.32540  0.55450  0.38980  Biso   1.000  H
  H92      1.0000 0.67460  0.55450  0.11020  Biso   1.000  H
  H93      1.0000 0.17460  0.94550  0.61020  Biso   1.000  H
  H94      1.0000 0.82540  0.94550  0.88980  Biso   1.000  H
  H95      1.0000 0.67460  0.44550  0.61020  Biso   1.000  H
  H96      1.0000 0.32540  0.44550  0.88980  Biso   1.000  H
  H97      1.0000 0.82600  0.19380  0.37110  Biso   1.000  H
  H98      1.0000 0.17400  0.19380  0.12890  Biso   1.000  H
  H99      1.0000 0.32600  0.69380  0.37110  Biso   1.000  H
  H100     1.0000 0.67400  0.69380  0.12890  Biso   1.000  H
  H101     1.0000 0.17400  0.80620  0.62890  Biso   1.000  H
  H102     1.0000 0.82600  0.80620  0.87110  Biso   1.000  H
  H103     1.0000 0.67400  0.30620  0.62890  Biso   1.000  H
  H104     1.0000 0.32600  0.30620  0.87110  Biso   1.000  H
  H105     1.0000 0.14100  0.58500  0.46700  Biso   1.000  H
  H106     1.0000 0.85900  0.58500  0.03300  Biso   1.000  H
  H107     1.0000 0.64100  0.08500  0.46700  Biso   1.000  H
  H108     1.0000 0.35900  0.08500  0.03300  Biso   1.000  H
  H109     1.0000 0.85900  0.41500  0.53300  Biso   1.000  H
  H110     1.0000 0.14100  0.41500  0.96700  Biso   1.000  H
  H111     1.0000 0.35900  0.91500  0.53300  Biso   1.000  H
  H112     1.0000 0.64100  0.91500  0.96700  Biso   1.000  H
  H113     1.0000 0.89300  0.96100  0.31800  Biso   1.000  H
  H114     1.0000 0.10700  0.96100  0.18200  Biso   1.000  H
  H115     1.0000 0.39300  0.46100  0.31800  Biso   1.000  H
  H116     1.0000 0.60700  0.46100  0.18200  Biso   1.000  H
  H117     1.0000 0.10700  0.03900  0.68200  Biso   1.000  H
  H118     1.0000 0.89300  0.03900  0.81800  Biso   1.000  H
  H119     1.0000 0.60700  0.53900  0.68200  Biso   1.000  H
  H120     1.0000 0.39300  0.53900  0.81800  Biso   1.000  H
  H121     1.0000 0.07560  0.22330  0.53500  Biso   1.000  H
  H122     1.0000 0.92440  0.22330  0.96500  Biso   1.000  H
  H123     1.0000 0.57560  0.72330  0.53500  Biso   1.000  H
  H124     1.0000 0.42440  0.72330  0.96500  Biso   1.000  H
  H125     1.0000 0.92440  0.77670  0.46500  Biso   1.000  H
  H126     1.0000 0.07560  0.77670  0.03500  Biso   1.000  H
  H127     1.0000 0.42440  0.27670  0.46500  Biso   1.000  H
  H128     1.0000 0.57560  0.27670  0.03500  Biso   1.000  H
