data_image0
_cell_length_a       11.8428
_cell_length_b       11.8428
_cell_length_c       19.3
_cell_angle_alpha    90
_cell_angle_beta     90
_cell_angle_gamma    120

_symmetry_space_group_name_H-M    "P 1"
_symmetry_int_tables_number       1

loop_
  _symmetry_equiv_pos_as_xyz
  'x, y, z'

loop_
  _atom_site_label
  _atom_site_occupancy
  _atom_site_fract_x
  _atom_site_fract_y
  _atom_site_fract_z
  _atom_site_thermal_displace_type
  _atom_site_B_iso_or_equiv
  _atom_site_type_symbol
  C1       1.0000 0.97845  0.44626  0.01929  Biso   1.000  C
  C2       1.0000 0.55374  0.53219  0.01929  Biso   1.000  C
  C3       1.0000 0.46781  0.02155  0.01929  Biso   1.000  C
  C4       1.0000 0.64512  0.77959  0.35262  Biso   1.000  C
  C5       1.0000 0.22041  0.86552  0.35262  Biso   1.000  C
  C6       1.0000 0.13448  0.35488  0.35262  Biso   1.000  C
  C7       1.0000 0.31178  0.11293  0.68596  Biso   1.000  C
  C8       1.0000 0.88707  0.19886  0.68596  Biso   1.000  C
  C9       1.0000 0.80114  0.68822  0.68596  Biso   1.000  C
  C10      1.0000 0.02155  0.55374  0.98071  Biso   1.000  C
  C11      1.0000 0.44626  0.46781  0.98071  Biso   1.000  C
  C12      1.0000 0.53219  0.97845  0.98071  Biso   1.000  C
  C13      1.0000 0.68822  0.88707  0.31404  Biso   1.000  C
  C14      1.0000 0.11293  0.80114  0.31404  Biso   1.000  C
  C15      1.0000 0.19886  0.31178  0.31404  Biso   1.000  C
  C16      1.0000 0.35488  0.22041  0.64738  Biso   1.000  C
  C17      1.0000 0.77959  0.13448  0.64738  Biso   1.000  C
  C18      1.0000 0.86552  0.64512  0.64738  Biso   1.000  C
  C19      1.0000 0.06323  0.41125  0.05590  Biso   1.000  C
  C20      1.0000 0.58875  0.65198  0.05590  Biso   1.000  C
  C21      1.0000 0.34802  0.93677  0.05590  Biso   1.000  C
  C22      1.0000 0.72990  0.74458  0.38923  Biso   1.000  C
  C23      1.0000 0.25542  0.98531  0.38923  Biso   1.000  C
  C24      1.0000 0.01469  0.27010  0.38923  Biso   1.000  C
  C25      1.0000 0.39656  0.07792  0.72257  Biso   1.000  C
  C26      1.0000 0.92208  0.31865  0.72257  Biso   1.000  C
  C27      1.0000 0.68135  0.60344  0.72257  Biso   1.000  C
  C28      1.0000 0.93677  0.58875  0.94410  Biso   1.000  C
  C29      1.0000 0.41125  0.34802  0.94410  Biso   1.000  C
  C30      1.0000 0.65198  0.06323  0.94410  Biso   1.000  C
  C31      1.0000 0.60344  0.92208  0.27743  Biso   1.000  C
  C32      1.0000 0.07792  0.68135  0.27743  Biso   1.000  C
  C33      1.0000 0.31865  0.39656  0.27743  Biso   1.000  C
  C34      1.0000 0.27010  0.25542  0.61077  Biso   1.000  C
  C35      1.0000 0.74458  0.01469  0.61077  Biso   1.000  C
  C36      1.0000 0.98531  0.72990  0.61077  Biso   1.000  C
  C37      1.0000 0.11788  0.28936  0.11866  Biso   1.000  C
  C38      1.0000 0.71064  0.82852  0.11866  Biso   1.000  C
  C39      1.0000 0.17148  0.88212  0.11866  Biso   1.000  C
  C40      1.0000 0.78455  0.62269  0.45199  Biso   1.000  C
  C41      1.0000 0.37731  0.16185  0.45199  Biso   1.000  C
  C42      1.0000 0.83815  0.21545  0.45199  Biso   1.000  C
  C43      1.0000 0.45121  0.95603  0.78533  Biso   1.000  C
  C44      1.0000 0.04397  0.49519  0.78533  Biso   1.000  C
  C45      1.0000 0.50481  0.54879  0.78533  Biso   1.000  C
  C46      1.0000 0.88212  0.71064  0.88134  Biso   1.000  C
  C47      1.0000 0.28936  0.17148  0.88134  Biso   1.000  C
  C48      1.0000 0.82852  0.11788  0.88134  Biso   1.000  C
  C49      1.0000 0.54879  0.04397  0.21467  Biso   1.000  C
  C50      1.0000 0.95603  0.50481  0.21467  Biso   1.000  C
  C51      1.0000 0.49519  0.45121  0.21467  Biso   1.000  C
  C52      1.0000 0.21545  0.37731  0.54801  Biso   1.000  C
  C53      1.0000 0.62269  0.83815  0.54801  Biso   1.000  C
  C54      1.0000 0.16185  0.78455  0.54801  Biso   1.000  C
  H1       1.0000 0.11460  0.22090  0.14390  Biso   1.000  H
  H2       1.0000 0.77910  0.89370  0.14390  Biso   1.000  H
  H3       1.0000 0.10630  0.88540  0.14390  Biso   1.000  H
  H4       1.0000 0.78127  0.55423  0.47723  Biso   1.000  H
  H5       1.0000 0.44577  0.22703  0.47723  Biso   1.000  H
  H6       1.0000 0.77297  0.21873  0.47723  Biso   1.000  H
  H7       1.0000 0.44793  0.88757  0.81057  Biso   1.000  H
  H8       1.0000 0.11243  0.56037  0.81057  Biso   1.000  H
  H9       1.0000 0.43963  0.55207  0.81057  Biso   1.000  H
  H10      1.0000 0.88540  0.77910  0.85610  Biso   1.000  H
  H11      1.0000 0.22090  0.10630  0.85610  Biso   1.000  H
  H12      1.0000 0.89370  0.11460  0.85610  Biso   1.000  H
  H13      1.0000 0.55207  0.11243  0.18943  Biso   1.000  H
  H14      1.0000 0.88757  0.43963  0.18943  Biso   1.000  H
  H15      1.0000 0.56037  0.44793  0.18943  Biso   1.000  H
  H16      1.0000 0.21873  0.44577  0.52277  Biso   1.000  H
  H17      1.0000 0.55423  0.77297  0.52277  Biso   1.000  H
  H18      1.0000 0.22703  0.78127  0.52277  Biso   1.000  H
  C55      1.0000 0.22560  0.40751  0.10534  Biso   1.000  C
  C56      1.0000 0.59249  0.81809  0.10534  Biso   1.000  C
  C57      1.0000 0.18191  0.77440  0.10534  Biso   1.000  C
  C58      1.0000 0.89227  0.74084  0.43867  Biso   1.000  C
  C59      1.0000 0.25916  0.15142  0.43867  Biso   1.000  C
  C60      1.0000 0.84858  0.10773  0.43867  Biso   1.000  C
  C61      1.0000 0.55893  0.07418  0.77201  Biso   1.000  C
  C62      1.0000 0.92582  0.48476  0.77201  Biso   1.000  C
  C63      1.0000 0.51524  0.44107  0.77201  Biso   1.000  C
  C64      1.0000 0.77440  0.59249  0.89466  Biso   1.000  C
  C65      1.0000 0.40751  0.18191  0.89466  Biso   1.000  C
  C66      1.0000 0.81809  0.22560  0.89466  Biso   1.000  C
  C67      1.0000 0.44107  0.92582  0.22799  Biso   1.000  C
  C68      1.0000 0.07418  0.51524  0.22799  Biso   1.000  C
  C69      1.0000 0.48476  0.55893  0.22799  Biso   1.000  C
  C70      1.0000 0.10773  0.25916  0.56133  Biso   1.000  C
  C71      1.0000 0.74084  0.84858  0.56133  Biso   1.000  C
  C72      1.0000 0.15142  0.89227  0.56133  Biso   1.000  C
  H19      1.0000 0.30950  0.43290  0.12050  Biso   1.000  H
  H20      1.0000 0.56710  0.87660  0.12050  Biso   1.000  H
  H21      1.0000 0.12340  0.69050  0.12050  Biso   1.000  H
  H22      1.0000 0.97617  0.76623  0.45383  Biso   1.000  H
  H23      1.0000 0.23377  0.20993  0.45383  Biso   1.000  H
  H24      1.0000 0.79007  0.02383  0.45383  Biso   1.000  H
  H25      1.0000 0.64283  0.09957  0.78717  Biso   1.000  H
  H26      1.0000 0.90043  0.54327  0.78717  Biso   1.000  H
  H27      1.0000 0.45673  0.35717  0.78717  Biso   1.000  H
  H28      1.0000 0.69050  0.56710  0.87950  Biso   1.000  H
  H29      1.0000 0.43290  0.12340  0.87950  Biso   1.000  H
  H30      1.0000 0.87660  0.30950  0.87950  Biso   1.000  H
  H31      1.0000 0.35717  0.90043  0.21283  Biso   1.000  H
  H32      1.0000 0.09957  0.45673  0.21283  Biso   1.000  H
  H33      1.0000 0.54327  0.64283  0.21283  Biso   1.000  H
  H34      1.0000 0.02383  0.23377  0.54617  Biso   1.000  H
  H35      1.0000 0.76623  0.79007  0.54617  Biso   1.000  H
  H36      1.0000 0.20993  0.97617  0.54617  Biso   1.000  H
  C73      1.0000 0.88391  0.18043  0.07991  Biso   1.000  C
  C74      1.0000 0.81957  0.70348  0.07991  Biso   1.000  C
  C75      1.0000 0.29652  0.11609  0.07991  Biso   1.000  C
  C76      1.0000 0.55058  0.51376  0.41324  Biso   1.000  C
  C77      1.0000 0.48624  0.03681  0.41324  Biso   1.000  C
  C78      1.0000 0.96319  0.44942  0.41324  Biso   1.000  C
  C79      1.0000 0.21724  0.84710  0.74658  Biso   1.000  C
  C80      1.0000 0.15290  0.37015  0.74658  Biso   1.000  C
  C81      1.0000 0.62985  0.78276  0.74658  Biso   1.000  C
  C82      1.0000 0.11609  0.81957  0.92009  Biso   1.000  C
  C83      1.0000 0.18043  0.29652  0.92009  Biso   1.000  C
  C84      1.0000 0.70348  0.88391  0.92009  Biso   1.000  C
  C85      1.0000 0.78276  0.15290  0.25342  Biso   1.000  C
  C86      1.0000 0.84710  0.62985  0.25342  Biso   1.000  C
  C87      1.0000 0.37015  0.21724  0.25342  Biso   1.000  C
  C88      1.0000 0.44942  0.48624  0.58676  Biso   1.000  C
  C89      1.0000 0.51376  0.96319  0.58676  Biso   1.000  C
  C90      1.0000 0.03681  0.55058  0.58676  Biso   1.000  C
  H37      1.0000 0.82100  0.20770  0.08760  Biso   1.000  H
  H38      1.0000 0.79230  0.61330  0.08760  Biso   1.000  H
  H39      1.0000 0.38670  0.17900  0.08760  Biso   1.000  H
  H40      1.0000 0.48767  0.54103  0.42093  Biso   1.000  H
  H41      1.0000 0.45897  0.94663  0.42093  Biso   1.000  H
  H42      1.0000 0.05337  0.51233  0.42093  Biso   1.000  H
  H43      1.0000 0.15433  0.87437  0.75427  Biso   1.000  H
  H44      1.0000 0.12563  0.27997  0.75427  Biso   1.000  H
  H45      1.0000 0.72003  0.84567  0.75427  Biso   1.000  H
  H46      1.0000 0.17900  0.79230  0.91240  Biso   1.000  H
  H47      1.0000 0.20770  0.38670  0.91240  Biso   1.000  H
  H48      1.0000 0.61330  0.82100  0.91240  Biso   1.000  H
  H49      1.0000 0.84567  0.12563  0.24573  Biso   1.000  H
  H50      1.0000 0.87437  0.72003  0.24573  Biso   1.000  H
  H51      1.0000 0.27997  0.15433  0.24573  Biso   1.000  H
  H52      1.0000 0.51233  0.45897  0.57907  Biso   1.000  H
  H53      1.0000 0.54103  0.05337  0.57907  Biso   1.000  H
  H54      1.0000 0.94663  0.48767  0.57907  Biso   1.000  H
  H55      1.0000 0.87130  0.11510  0.11330  Biso   1.000  H
  H56      1.0000 0.88490  0.75620  0.11330  Biso   1.000  H
  H57      1.0000 0.24380  0.12870  0.11330  Biso   1.000  H
  H58      1.0000 0.53797  0.44843  0.44663  Biso   1.000  H
  H59      1.0000 0.55157  0.08953  0.44663  Biso   1.000  H
  H60      1.0000 0.91047  0.46203  0.44663  Biso   1.000  H
  H61      1.0000 0.20463  0.78177  0.77997  Biso   1.000  H
  H62      1.0000 0.21823  0.42287  0.77997  Biso   1.000  H
  H63      1.0000 0.57713  0.79537  0.77997  Biso   1.000  H
  H64      1.0000 0.12870  0.88490  0.88670  Biso   1.000  H
  H65      1.0000 0.11510  0.24380  0.88670  Biso   1.000  H
  H66      1.0000 0.75620  0.87130  0.88670  Biso   1.000  H
  H67      1.0000 0.79537  0.21823  0.22003  Biso   1.000  H
  H68      1.0000 0.78177  0.57713  0.22003  Biso   1.000  H
  H69      1.0000 0.42287  0.20463  0.22003  Biso   1.000  H
  H70      1.0000 0.46203  0.55157  0.55337  Biso   1.000  H
  H71      1.0000 0.44843  0.91047  0.55337  Biso   1.000  H
  H72      1.0000 0.08953  0.53797  0.55337  Biso   1.000  H
  H73      1.0000 0.87310  0.14500  0.03410  Biso   1.000  H
  H74      1.0000 0.85500  0.72810  0.03410  Biso   1.000  H
  H75      1.0000 0.27190  0.12690  0.03410  Biso   1.000  H
  H76      1.0000 0.53977  0.47833  0.36743  Biso   1.000  H
  H77      1.0000 0.52167  0.06143  0.36743  Biso   1.000  H
  H78      1.0000 0.93857  0.46023  0.36743  Biso   1.000  H
  H79      1.0000 0.20643  0.81167  0.70077  Biso   1.000  H
  H80      1.0000 0.18833  0.39477  0.70077  Biso   1.000  H
  H81      1.0000 0.60523  0.79357  0.70077  Biso   1.000  H
  H82      1.0000 0.12690  0.85500  0.96590  Biso   1.000  H
  H83      1.0000 0.14500  0.27190  0.96590  Biso   1.000  H
  H84      1.0000 0.72810  0.87310  0.96590  Biso   1.000  H
  H85      1.0000 0.79357  0.18833  0.29923  Biso   1.000  H
  H86      1.0000 0.81167  0.60523  0.29923  Biso   1.000  H
  H87      1.0000 0.39477  0.20643  0.29923  Biso   1.000  H
  H88      1.0000 0.46023  0.52167  0.63257  Biso   1.000  H
  H89      1.0000 0.47833  0.93857  0.63257  Biso   1.000  H
  H90      1.0000 0.06143  0.53977  0.63257  Biso   1.000  H
  Cu1      1.0000 0.33330  0.66670  0.03669  Biso   1.000  Cu
  Cu2      1.0000 0.99997  0.00003  0.37002  Biso   1.000  Cu
  Cu3      1.0000 0.66663  0.33337  0.70335  Biso   1.000  Cu
  Cu4      1.0000 0.66670  0.33330  0.96332  Biso   1.000  Cu
  Cu5      1.0000 0.33337  0.66663  0.29665  Biso   1.000  Cu
  Cu6      1.0000 0.00003  0.99997  0.62998  Biso   1.000  Cu
  N1       1.0000 0.19219  0.48382  0.06621  Biso   1.000  N
  N2       1.0000 0.51618  0.70837  0.06621  Biso   1.000  N
  N3       1.0000 0.29163  0.80781  0.06621  Biso   1.000  N
  N4       1.0000 0.85886  0.81715  0.39954  Biso   1.000  N
  N5       1.0000 0.18285  0.04170  0.39954  Biso   1.000  N
  N6       1.0000 0.95830  0.14114  0.39954  Biso   1.000  N
  N7       1.0000 0.52552  0.15049  0.73288  Biso   1.000  N
  N8       1.0000 0.84951  0.37504  0.73288  Biso   1.000  N
  N9       1.0000 0.62496  0.47448  0.73288  Biso   1.000  N
  N10      1.0000 0.80781  0.51618  0.93379  Biso   1.000  N
  N11      1.0000 0.48382  0.29163  0.93379  Biso   1.000  N
  N12      1.0000 0.70837  0.19219  0.93379  Biso   1.000  N
  N13      1.0000 0.47448  0.84951  0.26712  Biso   1.000  N
  N14      1.0000 0.15049  0.62496  0.26712  Biso   1.000  N
  N15      1.0000 0.37504  0.52552  0.26712  Biso   1.000  N
  N16      1.0000 0.14114  0.18285  0.60046  Biso   1.000  N
  N17      1.0000 0.81715  0.95830  0.60046  Biso   1.000  N
  N18      1.0000 0.04170  0.85886  0.60046  Biso   1.000  N
  N19      1.0000 0.01538  0.29243  0.08712  Biso   1.000  N
  N20      1.0000 0.70757  0.72295  0.08712  Biso   1.000  N
  N21      1.0000 0.27705  0.98462  0.08712  Biso   1.000  N
  N22      1.0000 0.68205  0.62576  0.42045  Biso   1.000  N
  N23      1.0000 0.37424  0.05628  0.42045  Biso   1.000  N
  N24      1.0000 0.94372  0.31795  0.42045  Biso   1.000  N
  N25      1.0000 0.34871  0.95910  0.75379  Biso   1.000  N
  N26      1.0000 0.04090  0.38962  0.75379  Biso   1.000  N
  N27      1.0000 0.61038  0.65129  0.75379  Biso   1.000  N
  N28      1.0000 0.98462  0.70757  0.91288  Biso   1.000  N
  N29      1.0000 0.29243  0.27705  0.91288  Biso   1.000  N
  N30      1.0000 0.72295  0.01538  0.91288  Biso   1.000  N
  N31      1.0000 0.65129  0.04090  0.24621  Biso   1.000  N
  N32      1.0000 0.95910  0.61038  0.24621  Biso   1.000  N
  N33      1.0000 0.38962  0.34871  0.24621  Biso   1.000  N
  N34      1.0000 0.31795  0.37424  0.57955  Biso   1.000  N
  N35      1.0000 0.62576  0.94372  0.57955  Biso   1.000  N
  N36      1.0000 0.05628  0.68205  0.57955  Biso   1.000  N
  Cl1      1.0000 0.33330  0.66670  0.89978  Biso   1.000  Cl
  Cl2      1.0000 0.99997  0.00003  0.23311  Biso   1.000  Cl
  Cl3      1.0000 0.66663  0.33337  0.56645  Biso   1.000  Cl
  Cl4      1.0000 0.66670  0.33330  0.10022  Biso   1.000  Cl
  Cl5      1.0000 0.33337  0.66663  0.43355  Biso   1.000  Cl
  Cl6      1.0000 0.00003  0.99997  0.76689  Biso   1.000  Cl
  H91      1.0000 0.89200  0.39030  0.02540  Biso   1.000  H
  H92      1.0000 0.60970  0.50170  0.02540  Biso   1.000  H
  H93      1.0000 0.49830  0.10800  0.02540  Biso   1.000  H
  H94      1.0000 0.55867  0.72363  0.35873  Biso   1.000  H
  H95      1.0000 0.27637  0.83503  0.35873  Biso   1.000  H
  H96      1.0000 0.16497  0.44133  0.35873  Biso   1.000  H
  H97      1.0000 0.22533  0.05697  0.69207  Biso   1.000  H
  H98      1.0000 0.94303  0.16837  0.69207  Biso   1.000  H
  H99      1.0000 0.83163  0.77467  0.69207  Biso   1.000  H
  H100     1.0000 0.10800  0.60970  0.97460  Biso   1.000  H
  H101     1.0000 0.39030  0.49830  0.97460  Biso   1.000  H
  H102     1.0000 0.50170  0.89200  0.97460  Biso   1.000  H
  H103     1.0000 0.77467  0.94303  0.30793  Biso   1.000  H
  H104     1.0000 0.05697  0.83163  0.30793  Biso   1.000  H
  H105     1.0000 0.16837  0.22533  0.30793  Biso   1.000  H
  H106     1.0000 0.44133  0.27637  0.64127  Biso   1.000  H
  H107     1.0000 0.72363  0.16497  0.64127  Biso   1.000  H
  H108     1.0000 0.83503  0.55867  0.64127  Biso   1.000  H
