data_image0
_cell_length_a       17.702
_cell_length_b       9.792
_cell_length_c       32.088
_cell_angle_alpha    90
_cell_angle_beta     103.477
_cell_angle_gamma    90

_symmetry_space_group_name_H-M    "P 1"
_symmetry_int_tables_number       1

loop_
  _symmetry_equiv_pos_as_xyz
  'x, y, z'

loop_
  _atom_site_label
  _atom_site_occupancy
  _atom_site_fract_x
  _atom_site_fract_y
  _atom_site_fract_z
  _atom_site_thermal_displace_type
  _atom_site_B_iso_or_equiv
  _atom_site_type_symbol
  Gd1      1.0000 0.00000  0.38815  0.25000  Biso   1.000  Gd
  Gd2      1.0000 0.00000  0.61185  0.75000  Biso   1.000  Gd
  Gd3      1.0000 0.00000  0.85147  0.25000  Biso   1.000  Gd
  Gd4      1.0000 0.00000  0.14853  0.75000  Biso   1.000  Gd
  Gd5      1.0000 0.98737  0.31218  0.44245  Biso   1.000  Gd
  Gd6      1.0000 0.01263  0.31218  0.05755  Biso   1.000  Gd
  Gd7      1.0000 0.01263  0.68782  0.55755  Biso   1.000  Gd
  Gd8      1.0000 0.98737  0.68782  0.94245  Biso   1.000  Gd
  Cu1      1.0000 0.49024  0.01680  0.33006  Biso   1.000  Cu
  Cu2      1.0000 0.50976  0.01680  0.16994  Biso   1.000  Cu
  Cu3      1.0000 0.50976  0.98320  0.66994  Biso   1.000  Cu
  Cu4      1.0000 0.49024  0.98320  0.83006  Biso   1.000  Cu
  Cu5      1.0000 0.53587  0.51347  0.29781  Biso   1.000  Cu
  Cu6      1.0000 0.46413  0.51347  0.20219  Biso   1.000  Cu
  Cu7      1.0000 0.46413  0.48653  0.70219  Biso   1.000  Cu
  Cu8      1.0000 0.53587  0.48653  0.79781  Biso   1.000  Cu
  Cu9      1.0000 0.45685  0.60884  0.42466  Biso   1.000  Cu
  Cu10     1.0000 0.54315  0.60884  0.07534  Biso   1.000  Cu
  Cu11     1.0000 0.54315  0.39116  0.57534  Biso   1.000  Cu
  Cu12     1.0000 0.45685  0.39116  0.92466  Biso   1.000  Cu
  Cu13     1.0000 0.49777  0.23921  0.47939  Biso   1.000  Cu
  Cu14     1.0000 0.50223  0.23921  0.02061  Biso   1.000  Cu
  Cu15     1.0000 0.50223  0.76079  0.52061  Biso   1.000  Cu
  Cu16     1.0000 0.49777  0.76079  0.97939  Biso   1.000  Cu
  Cu17     1.0000 0.54924  0.69394  0.37474  Biso   1.000  Cu
  Cu18     1.0000 0.45076  0.69394  0.12526  Biso   1.000  Cu
  Cu19     1.0000 0.45076  0.30606  0.62526  Biso   1.000  Cu
  Cu20     1.0000 0.54924  0.30606  0.87474  Biso   1.000  Cu
  Br1      1.0000 0.47954  0.74451  0.30353  Biso   1.000  Br
  Br2      1.0000 0.52046  0.74451  0.19647  Biso   1.000  Br
  Br3      1.0000 0.52046  0.25549  0.69647  Biso   1.000  Br
  Br4      1.0000 0.47954  0.25549  0.80353  Biso   1.000  Br
  Br5      1.0000 0.50000  0.31730  0.25000  Biso   1.000  Br
  Br6      1.0000 0.50000  0.68270  0.75000  Biso   1.000  Br
  Br7      1.0000 0.50647  0.42969  0.37932  Biso   1.000  Br
  Br8      1.0000 0.49353  0.42969  0.12068  Biso   1.000  Br
  Br9      1.0000 0.49353  0.57031  0.62068  Biso   1.000  Br
  Br10     1.0000 0.50647  0.57031  0.87932  Biso   1.000  Br
  Br11     1.0000 0.50000  0.50000  0.50000  Biso   1.000  Br
  Br12     1.0000 0.50000  0.50000  0.00000  Biso   1.000  Br
  Br13     1.0000 0.50272  0.85031  0.42848  Biso   1.000  Br
  Br14     1.0000 0.49728  0.85031  0.07152  Biso   1.000  Br
  Br15     1.0000 0.49728  0.14969  0.57152  Biso   1.000  Br
  Br16     1.0000 0.50272  0.14969  0.92848  Biso   1.000  Br
  O1       1.0000 0.11290  0.24790  0.26491  Biso   1.000  O
  O2       1.0000 0.88710  0.24790  0.23509  Biso   1.000  O
  O3       1.0000 0.88710  0.75210  0.73509  Biso   1.000  O
  O4       1.0000 0.11290  0.75210  0.76491  Biso   1.000  O
  O5       1.0000 0.09150  0.02410  0.26408  Biso   1.000  O
  O6       1.0000 0.90850  0.02410  0.23592  Biso   1.000  O
  O7       1.0000 0.90850  0.97590  0.73592  Biso   1.000  O
  O8       1.0000 0.09150  0.97590  0.76408  Biso   1.000  O
  O9       1.0000 0.08220  0.73110  0.30752  Biso   1.000  O
  O10      1.0000 0.91780  0.73110  0.19248  Biso   1.000  O
  O11      1.0000 0.91780  0.26890  0.69248  Biso   1.000  O
  O12      1.0000 0.08220  0.26890  0.80752  Biso   1.000  O
  O13      1.0000 0.08580  0.50420  0.30600  Biso   1.000  O
  O14      1.0000 0.91420  0.50420  0.19400  Biso   1.000  O
  O15      1.0000 0.91420  0.49580  0.69400  Biso   1.000  O
  O16      1.0000 0.08580  0.49580  0.80600  Biso   1.000  O
  O17      1.0000 0.12160  0.11990  0.36450  Biso   1.000  O
  O18      1.0000 0.87840  0.11990  0.13550  Biso   1.000  O
  O19      1.0000 0.87840  0.88010  0.63550  Biso   1.000  O
  O20      1.0000 0.12160  0.88010  0.86450  Biso   1.000  O
  O21      1.0000 0.09290  0.23320  0.41844  Biso   1.000  O
  O22      1.0000 0.90710  0.23320  0.08156  Biso   1.000  O
  O23      1.0000 0.90710  0.76680  0.58156  Biso   1.000  O
  O24      1.0000 0.09290  0.76680  0.91844  Biso   1.000  O
  O25      1.0000 0.93460  0.51740  0.45645  Biso   1.000  O
  O26      1.0000 0.06540  0.51740  0.04355  Biso   1.000  O
  O27      1.0000 0.06540  0.48260  0.54355  Biso   1.000  O
  O28      1.0000 0.93460  0.48260  0.95645  Biso   1.000  O
  O29      1.0000 0.93520  0.72010  0.48788  Biso   1.000  O
  O30      1.0000 0.06480  0.72010  0.01212  Biso   1.000  O
  O31      1.0000 0.06480  0.27990  0.51212  Biso   1.000  O
  O32      1.0000 0.93520  0.27990  0.98788  Biso   1.000  O
  O33      1.0000 0.87500  0.13120  0.33170  Biso   1.000  O
  O34      1.0000 0.12500  0.13120  0.16830  Biso   1.000  O
  O35      1.0000 0.12500  0.86880  0.66830  Biso   1.000  O
  O36      1.0000 0.87500  0.86880  0.83170  Biso   1.000  O
  O37      1.0000 0.87390  0.23330  0.39359  Biso   1.000  O
  O38      1.0000 0.12610  0.23330  0.10641  Biso   1.000  O
  O39      1.0000 0.12610  0.76670  0.60641  Biso   1.000  O
  O40      1.0000 0.87390  0.76670  0.89359  Biso   1.000  O
  O41      1.0000 0.89910  0.74640  0.27734  Biso   1.000  O
  O42      1.0000 0.10090  0.74640  0.22266  Biso   1.000  O
  O43      1.0000 0.10090  0.25360  0.72266  Biso   1.000  O
  O44      1.0000 0.89910  0.25360  0.77734  Biso   1.000  O
  O45      1.0000 0.92210  0.52340  0.28220  Biso   1.000  O
  O46      1.0000 0.07790  0.52340  0.21780  Biso   1.000  O
  O47      1.0000 0.07790  0.47660  0.71780  Biso   1.000  O
  O48      1.0000 0.92210  0.47660  0.78220  Biso   1.000  O
  O49      1.0000 0.89250  0.26700  0.48617  Biso   1.000  O
  O50      1.0000 0.10750  0.26700  0.01383  Biso   1.000  O
  O51      1.0000 0.10750  0.73300  0.51383  Biso   1.000  O
  O52      1.0000 0.89250  0.73300  0.98617  Biso   1.000  O
  O53      1.0000 0.87950  0.04620  0.49800  Biso   1.000  O
  O54      1.0000 0.12050  0.04620  0.00200  Biso   1.000  O
  O55      1.0000 0.12050  0.95380  0.50200  Biso   1.000  O
  O56      1.0000 0.87950  0.95380  0.99800  Biso   1.000  O
  O57      1.0000 0.00340  0.27270  0.18339  Biso   1.000  O
  O58      1.0000 0.99660  0.27270  0.31661  Biso   1.000  O
  O59      1.0000 0.99660  0.72730  0.81661  Biso   1.000  O
  O60      1.0000 0.00340  0.72730  0.68339  Biso   1.000  O
  H1       1.0000 0.04550  0.23340  0.18200  Biso   1.000  H
  H2       1.0000 0.95450  0.23340  0.31800  Biso   1.000  H
  H3       1.0000 0.95450  0.76660  0.81800  Biso   1.000  H
  H4       1.0000 0.04550  0.76660  0.68200  Biso   1.000  H
  H5       1.0000 0.95730  0.24530  0.17310  Biso   1.000  H
  H6       1.0000 0.04270  0.24530  0.32690  Biso   1.000  H
  H7       1.0000 0.04270  0.75470  0.82690  Biso   1.000  H
  H8       1.0000 0.95730  0.75470  0.67310  Biso   1.000  H
  O61      1.0000 0.00480  0.94530  0.17663  Biso   1.000  O
  O62      1.0000 0.99520  0.94530  0.32337  Biso   1.000  O
  O63      1.0000 0.99520  0.05470  0.82337  Biso   1.000  O
  O64      1.0000 0.00480  0.05470  0.67663  Biso   1.000  O
  H9       1.0000 0.95990  0.95940  0.16070  Biso   1.000  H
  H10      1.0000 0.04010  0.95940  0.33930  Biso   1.000  H
  H11      1.0000 0.04010  0.04060  0.83930  Biso   1.000  H
  H12      1.0000 0.95990  0.04060  0.66070  Biso   1.000  H
  H13      1.0000 0.04130  0.98700  0.16870  Biso   1.000  H
  H14      1.0000 0.95870  0.98700  0.33130  Biso   1.000  H
  H15      1.0000 0.95870  0.01300  0.83130  Biso   1.000  H
  H16      1.0000 0.04130  0.01300  0.66870  Biso   1.000  H
  O65      1.0000 0.97950  0.45900  0.38019  Biso   1.000  O
  O66      1.0000 0.02050  0.45900  0.11981  Biso   1.000  O
  O67      1.0000 0.02050  0.54100  0.61981  Biso   1.000  O
  O68      1.0000 0.97950  0.54100  0.88019  Biso   1.000  O
  H17      1.0000 0.00080  0.43830  0.35990  Biso   1.000  H
  H18      1.0000 0.99920  0.43830  0.14010  Biso   1.000  H
  H19      1.0000 0.99920  0.56170  0.64010  Biso   1.000  H
  H20      1.0000 0.00080  0.56170  0.85990  Biso   1.000  H
  H21      1.0000 0.95070  0.51230  0.39060  Biso   1.000  H
  H22      1.0000 0.04930  0.51230  0.10940  Biso   1.000  H
  H23      1.0000 0.04930  0.48770  0.60940  Biso   1.000  H
  H24      1.0000 0.95070  0.48770  0.89060  Biso   1.000  H
  O69      1.0000 0.09800  0.49790  0.45689  Biso   1.000  O
  O70      1.0000 0.90200  0.49790  0.04311  Biso   1.000  O
  O71      1.0000 0.90200  0.50210  0.54311  Biso   1.000  O
  O72      1.0000 0.09800  0.50210  0.95689  Biso   1.000  O
  H25      1.0000 0.08420  0.57650  0.46380  Biso   1.000  H
  H26      1.0000 0.91580  0.57650  0.03620  Biso   1.000  H
  H27      1.0000 0.91580  0.42350  0.53620  Biso   1.000  H
  H28      1.0000 0.08420  0.42350  0.96380  Biso   1.000  H
  H29      1.0000 0.14730  0.49770  0.46160  Biso   1.000  H
  H30      1.0000 0.85270  0.49770  0.03840  Biso   1.000  H
  H31      1.0000 0.85270  0.50230  0.53840  Biso   1.000  H
  H32      1.0000 0.14730  0.50230  0.96160  Biso   1.000  H
  O73      1.0000 0.98840  0.06450  0.44820  Biso   1.000  O
  O74      1.0000 0.01160  0.06450  0.05180  Biso   1.000  O
  O75      1.0000 0.01160  0.93550  0.55180  Biso   1.000  O
  O76      1.0000 0.98840  0.93550  0.94820  Biso   1.000  O
  H33      1.0000 0.03170  0.04300  0.46470  Biso   1.000  H
  H34      1.0000 0.96830  0.04300  0.03530  Biso   1.000  H
  H35      1.0000 0.96830  0.95700  0.53530  Biso   1.000  H
  H36      1.0000 0.03170  0.95700  0.96470  Biso   1.000  H
  H37      1.0000 0.95360  0.03270  0.45980  Biso   1.000  H
  H38      1.0000 0.04640  0.03270  0.04020  Biso   1.000  H
  H39      1.0000 0.04640  0.96730  0.54020  Biso   1.000  H
  H40      1.0000 0.95360  0.96730  0.95980  Biso   1.000  H
  O77      1.0000 0.00100  0.74030  0.39060  Biso   1.000  O
  O78      1.0000 0.99900  0.74030  0.10940  Biso   1.000  O
  O79      1.0000 0.99900  0.25970  0.60940  Biso   1.000  O
  O80      1.0000 0.00100  0.25970  0.89060  Biso   1.000  O
  H41      1.0000 0.02110  0.73570  0.36900  Biso   1.000  H
  H42      1.0000 0.97890  0.73570  0.13100  Biso   1.000  H
  H43      1.0000 0.97890  0.26430  0.63100  Biso   1.000  H
  H44      1.0000 0.02110  0.26430  0.86900  Biso   1.000  H
  H45      1.0000 0.00450  0.65650  0.39760  Biso   1.000  H
  H46      1.0000 0.99550  0.65650  0.10240  Biso   1.000  H
  H47      1.0000 0.99550  0.34350  0.60240  Biso   1.000  H
  H48      1.0000 0.00450  0.34350  0.89760  Biso   1.000  H
  N1       1.0000 0.37870  0.04900  0.31460  Biso   1.000  N
  N2       1.0000 0.62130  0.04900  0.18540  Biso   1.000  N
  N3       1.0000 0.62130  0.95100  0.68540  Biso   1.000  N
  N4       1.0000 0.37870  0.95100  0.81460  Biso   1.000  N
  N5       1.0000 0.34010  0.61100  0.40270  Biso   1.000  N
  N6       1.0000 0.65990  0.61100  0.09730  Biso   1.000  N
  N7       1.0000 0.65990  0.38900  0.59730  Biso   1.000  N
  N8       1.0000 0.34010  0.38900  0.90270  Biso   1.000  N
  N9       1.0000 0.38640  0.21330  0.45700  Biso   1.000  N
  N10      1.0000 0.61360  0.21330  0.04300  Biso   1.000  N
  N11      1.0000 0.61360  0.78670  0.54300  Biso   1.000  N
  N12      1.0000 0.38640  0.78670  0.95700  Biso   1.000  N
  N13      1.0000 0.66430  0.68280  0.39800  Biso   1.000  N
  N14      1.0000 0.33570  0.68280  0.10200  Biso   1.000  N
  N15      1.0000 0.33570  0.31720  0.60200  Biso   1.000  N
  N16      1.0000 0.66430  0.31720  0.89800  Biso   1.000  N
  N17      1.0000 0.59830  0.06930  0.34020  Biso   1.000  N
  N18      1.0000 0.40170  0.06930  0.15980  Biso   1.000  N
  N19      1.0000 0.40170  0.93070  0.65980  Biso   1.000  N
  N20      1.0000 0.59830  0.93070  0.84020  Biso   1.000  N
  N21      1.0000 0.64810  0.55060  0.29550  Biso   1.000  N
  N22      1.0000 0.35190  0.55060  0.20450  Biso   1.000  N
  N23      1.0000 0.35190  0.44940  0.70450  Biso   1.000  N
  N24      1.0000 0.64810  0.44940  0.79550  Biso   1.000  N
  N25      1.0000 0.61000  0.21680  0.48610  Biso   1.000  N
  N26      1.0000 0.39000  0.21680  0.01390  Biso   1.000  N
  N27      1.0000 0.39000  0.78320  0.51390  Biso   1.000  N
  N28      1.0000 0.61000  0.78320  0.98610  Biso   1.000  N
  C1       1.0000 0.35260  0.17790  0.30630  Biso   1.000  C
  C2       1.0000 0.64740  0.17790  0.19370  Biso   1.000  C
  C3       1.0000 0.64740  0.82210  0.69370  Biso   1.000  C
  C4       1.0000 0.35260  0.82210  0.80630  Biso   1.000  C
  H49      1.0000 0.38830  0.24920  0.31030  Biso   1.000  H
  H50      1.0000 0.61170  0.24920  0.18970  Biso   1.000  H
  H51      1.0000 0.61170  0.75080  0.68970  Biso   1.000  H
  H52      1.0000 0.38830  0.75080  0.81030  Biso   1.000  H
  C5       1.0000 0.27290  0.20760  0.29180  Biso   1.000  C
  C6       1.0000 0.72710  0.20760  0.20820  Biso   1.000  C
  C7       1.0000 0.72710  0.79240  0.70820  Biso   1.000  C
  C8       1.0000 0.27290  0.79240  0.79180  Biso   1.000  C
  H53      1.0000 0.25620  0.29730  0.28640  Biso   1.000  H
  H54      1.0000 0.74380  0.29730  0.21360  Biso   1.000  H
  H55      1.0000 0.74380  0.70270  0.71360  Biso   1.000  H
  H56      1.0000 0.25620  0.70270  0.78640  Biso   1.000  H
  C9       1.0000 0.22040  0.10240  0.28570  Biso   1.000  C
  C10      1.0000 0.77960  0.10240  0.21430  Biso   1.000  C
  C11      1.0000 0.77960  0.89760  0.71430  Biso   1.000  C
  C12      1.0000 0.22040  0.89760  0.78570  Biso   1.000  C
  C13      1.0000 0.24880  0.96990  0.29430  Biso   1.000  C
  C14      1.0000 0.75120  0.96990  0.20570  Biso   1.000  C
  C15      1.0000 0.75120  0.03010  0.70570  Biso   1.000  C
  C16      1.0000 0.24880  0.03010  0.79430  Biso   1.000  C
  H57      1.0000 0.21470  0.89630  0.29010  Biso   1.000  H
  H58      1.0000 0.78530  0.89630  0.20990  Biso   1.000  H
  H59      1.0000 0.78530  0.10370  0.70990  Biso   1.000  H
  H60      1.0000 0.21470  0.10370  0.79010  Biso   1.000  H
  C17      1.0000 0.32710  0.94840  0.30920  Biso   1.000  C
  C18      1.0000 0.67290  0.94840  0.19080  Biso   1.000  C
  C19      1.0000 0.67290  0.05160  0.69080  Biso   1.000  C
  C20      1.0000 0.32710  0.05160  0.80920  Biso   1.000  C
  H61      1.0000 0.34470  0.85970  0.31570  Biso   1.000  H
  H62      1.0000 0.65530  0.85970  0.18430  Biso   1.000  H
  H63      1.0000 0.65530  0.14030  0.68430  Biso   1.000  H
  H64      1.0000 0.34470  0.14030  0.81570  Biso   1.000  H
  C21      1.0000 0.13430  0.12630  0.27030  Biso   1.000  C
  C22      1.0000 0.86570  0.12630  0.22970  Biso   1.000  C
  C23      1.0000 0.86570  0.87370  0.72970  Biso   1.000  C
  C24      1.0000 0.13430  0.87370  0.77030  Biso   1.000  C
  C25      1.0000 0.29750  0.72450  0.39830  Biso   1.000  C
  C26      1.0000 0.70250  0.72450  0.10170  Biso   1.000  C
  C27      1.0000 0.70250  0.27550  0.60170  Biso   1.000  C
  C28      1.0000 0.29750  0.27550  0.89830  Biso   1.000  C
  H65      1.0000 0.31940  0.80230  0.41290  Biso   1.000  H
  H66      1.0000 0.68060  0.80230  0.08710  Biso   1.000  H
  H67      1.0000 0.68060  0.19770  0.58710  Biso   1.000  H
  H68      1.0000 0.31940  0.19770  0.91290  Biso   1.000  H
  C29      1.0000 0.22230  0.73330  0.37330  Biso   1.000  C
  C30      1.0000 0.77770  0.73330  0.12670  Biso   1.000  C
  C31      1.0000 0.77770  0.26670  0.62670  Biso   1.000  C
  C32      1.0000 0.22230  0.26670  0.87330  Biso   1.000  C
  H69      1.0000 0.19510  0.81520  0.37100  Biso   1.000  H
  H70      1.0000 0.80490  0.81520  0.12900  Biso   1.000  H
  H71      1.0000 0.80490  0.18480  0.62900  Biso   1.000  H
  H72      1.0000 0.19510  0.18480  0.87100  Biso   1.000  H
  C33      1.0000 0.18810  0.61680  0.35160  Biso   1.000  C
  C34      1.0000 0.81190  0.61680  0.14840  Biso   1.000  C
  C35      1.0000 0.81190  0.38320  0.64840  Biso   1.000  C
  C36      1.0000 0.18810  0.38320  0.85160  Biso   1.000  C
  C37      1.0000 0.23060  0.49770  0.35830  Biso   1.000  C
  C38      1.0000 0.76940  0.49770  0.14170  Biso   1.000  C
  C39      1.0000 0.76940  0.50230  0.64170  Biso   1.000  C
  C40      1.0000 0.23060  0.50230  0.85830  Biso   1.000  C
  H73      1.0000 0.20860  0.41660  0.34610  Biso   1.000  H
  H74      1.0000 0.79140  0.41660  0.15390  Biso   1.000  H
  H75      1.0000 0.79140  0.58340  0.65390  Biso   1.000  H
  H76      1.0000 0.20860  0.58340  0.84610  Biso   1.000  H
  C41      1.0000 0.30560  0.49810  0.38310  Biso   1.000  C
  C42      1.0000 0.69440  0.49810  0.11690  Biso   1.000  C
  C43      1.0000 0.69440  0.50190  0.61690  Biso   1.000  C
  C44      1.0000 0.30560  0.50190  0.88310  Biso   1.000  C
  H77      1.0000 0.33360  0.41680  0.38650  Biso   1.000  H
  H78      1.0000 0.66640  0.41680  0.11350  Biso   1.000  H
  H79      1.0000 0.66640  0.58320  0.61350  Biso   1.000  H
  H80      1.0000 0.33360  0.58320  0.88650  Biso   1.000  H
  C45      1.0000 0.11130  0.61890  0.31930  Biso   1.000  C
  C46      1.0000 0.88870  0.61890  0.18070  Biso   1.000  C
  C47      1.0000 0.88870  0.38110  0.68070  Biso   1.000  C
  C48      1.0000 0.11130  0.38110  0.81930  Biso   1.000  C
  C49      1.0000 0.35880  0.13930  0.42110  Biso   1.000  C
  C50      1.0000 0.64120  0.13930  0.07890  Biso   1.000  C
  C51      1.0000 0.64120  0.86070  0.57890  Biso   1.000  C
  C52      1.0000 0.35880  0.86070  0.92110  Biso   1.000  C
  H81      1.0000 0.39420  0.09540  0.40840  Biso   1.000  H
  H82      1.0000 0.60580  0.09540  0.09160  Biso   1.000  H
  H83      1.0000 0.60580  0.90460  0.59160  Biso   1.000  H
  H84      1.0000 0.39420  0.90460  0.90840  Biso   1.000  H
  C53      1.0000 0.28070  0.12550  0.40250  Biso   1.000  C
  C54      1.0000 0.71930  0.12550  0.09750  Biso   1.000  C
  C55      1.0000 0.71930  0.87450  0.59750  Biso   1.000  C
  C56      1.0000 0.28070  0.87450  0.90250  Biso   1.000  C
  H85      1.0000 0.26450  0.07260  0.37800  Biso   1.000  H
  H86      1.0000 0.73550  0.07260  0.12200  Biso   1.000  H
  H87      1.0000 0.73550  0.92740  0.62200  Biso   1.000  H
  H88      1.0000 0.26450  0.92740  0.87800  Biso   1.000  H
  C57      1.0000 0.22580  0.19090  0.42050  Biso   1.000  C
  C58      1.0000 0.77420  0.19090  0.07950  Biso   1.000  C
  C59      1.0000 0.77420  0.80910  0.57950  Biso   1.000  C
  C60      1.0000 0.22580  0.80910  0.92050  Biso   1.000  C
  C61      1.0000 0.25360  0.26780  0.45710  Biso   1.000  C
  C62      1.0000 0.74640  0.26780  0.04290  Biso   1.000  C
  C63      1.0000 0.74640  0.73220  0.54290  Biso   1.000  C
  C64      1.0000 0.25360  0.73220  0.95710  Biso   1.000  C
  H89      1.0000 0.21930  0.31350  0.47020  Biso   1.000  H
  H90      1.0000 0.78070  0.31350  0.02980  Biso   1.000  H
  H91      1.0000 0.78070  0.68650  0.52980  Biso   1.000  H
  H92      1.0000 0.21930  0.68650  0.97020  Biso   1.000  H
  C65      1.0000 0.33250  0.27580  0.47400  Biso   1.000  C
  C66      1.0000 0.66750  0.27580  0.02600  Biso   1.000  C
  C67      1.0000 0.66750  0.72420  0.52600  Biso   1.000  C
  C68      1.0000 0.33250  0.72420  0.97400  Biso   1.000  C
  H93      1.0000 0.34980  0.32760  0.49870  Biso   1.000  H
  H94      1.0000 0.65020  0.32760  0.00130  Biso   1.000  H
  H95      1.0000 0.65020  0.67240  0.50130  Biso   1.000  H
  H96      1.0000 0.34980  0.67240  0.99870  Biso   1.000  H
  C69      1.0000 0.14010  0.17890  0.39970  Biso   1.000  C
  C70      1.0000 0.85990  0.17890  0.10030  Biso   1.000  C
  C71      1.0000 0.85990  0.82110  0.60030  Biso   1.000  C
  C72      1.0000 0.14010  0.82110  0.89970  Biso   1.000  C
  C73      1.0000 0.70120  0.56380  0.39600  Biso   1.000  C
  C74      1.0000 0.29880  0.56380  0.10400  Biso   1.000  C
  C75      1.0000 0.29880  0.43620  0.60400  Biso   1.000  C
  C76      1.0000 0.70120  0.43620  0.89600  Biso   1.000  C
  H97      1.0000 0.67290  0.49070  0.38190  Biso   1.000  H
  H98      1.0000 0.32710  0.49070  0.11810  Biso   1.000  H
  H99      1.0000 0.32710  0.50930  0.61810  Biso   1.000  H
  H100     1.0000 0.67290  0.50930  0.88190  Biso   1.000  H
  C77      1.0000 0.77930  0.54550  0.41410  Biso   1.000  C
  C78      1.0000 0.22070  0.54550  0.08590  Biso   1.000  C
  C79      1.0000 0.22070  0.45450  0.58590  Biso   1.000  C
  C80      1.0000 0.77930  0.45450  0.91410  Biso   1.000  C
  H101     1.0000 0.80310  0.46230  0.41140  Biso   1.000  H
  H102     1.0000 0.19690  0.46230  0.08860  Biso   1.000  H
  H103     1.0000 0.19690  0.53770  0.58860  Biso   1.000  H
  H104     1.0000 0.80310  0.53770  0.91140  Biso   1.000  H
  C81      1.0000 0.82220  0.65260  0.43650  Biso   1.000  C
  C82      1.0000 0.17780  0.65260  0.06350  Biso   1.000  C
  C83      1.0000 0.17780  0.34740  0.56350  Biso   1.000  C
  C84      1.0000 0.82220  0.34740  0.93650  Biso   1.000  C
  C85      1.0000 0.78480  0.77620  0.43710  Biso   1.000  C
  C86      1.0000 0.21520  0.77620  0.06290  Biso   1.000  C
  C87      1.0000 0.21520  0.22380  0.56290  Biso   1.000  C
  C88      1.0000 0.78480  0.22380  0.93710  Biso   1.000  C
  H105     1.0000 0.81200  0.85130  0.45070  Biso   1.000  H
  H106     1.0000 0.18800  0.85130  0.04930  Biso   1.000  H
  H107     1.0000 0.18800  0.14870  0.54930  Biso   1.000  H
  H108     1.0000 0.81200  0.14870  0.95070  Biso   1.000  H
  C89      1.0000 0.70640  0.78780  0.41760  Biso   1.000  C
  C90      1.0000 0.29360  0.78780  0.08240  Biso   1.000  C
  C91      1.0000 0.29360  0.21220  0.58240  Biso   1.000  C
  C92      1.0000 0.70640  0.21220  0.91760  Biso   1.000  C
  H109     1.0000 0.68220  0.87190  0.41800  Biso   1.000  H
  H110     1.0000 0.31780  0.87190  0.08200  Biso   1.000  H
  H111     1.0000 0.31780  0.12810  0.58200  Biso   1.000  H
  H112     1.0000 0.68220  0.12810  0.91800  Biso   1.000  H
  C93      1.0000 0.90330  0.63000  0.46160  Biso   1.000  C
  C94      1.0000 0.09670  0.63000  0.03840  Biso   1.000  C
  C95      1.0000 0.09670  0.37000  0.53840  Biso   1.000  C
  C96      1.0000 0.90330  0.37000  0.96160  Biso   1.000  C
  C97      1.0000 0.63980  0.03820  0.31140  Biso   1.000  C
  C98      1.0000 0.36020  0.03820  0.18860  Biso   1.000  C
  C99      1.0000 0.36020  0.96180  0.68860  Biso   1.000  C
  C100     1.0000 0.63980  0.96180  0.81140  Biso   1.000  C
  H113     1.0000 0.61460  0.99440  0.28630  Biso   1.000  H
  H114     1.0000 0.38540  0.99440  0.21370  Biso   1.000  H
  H115     1.0000 0.38540  0.00560  0.71370  Biso   1.000  H
  H116     1.0000 0.61460  0.00560  0.78630  Biso   1.000  H
  C101     1.0000 0.71760  0.06770  0.31700  Biso   1.000  C
  C102     1.0000 0.28240  0.06770  0.18300  Biso   1.000  C
  C103     1.0000 0.28240  0.93230  0.68300  Biso   1.000  C
  C104     1.0000 0.71760  0.93230  0.81700  Biso   1.000  C
  H117     1.0000 0.74390  0.04210  0.29630  Biso   1.000  H
  H118     1.0000 0.25610  0.04210  0.20370  Biso   1.000  H
  H119     1.0000 0.25610  0.95790  0.70370  Biso   1.000  H
  H120     1.0000 0.74390  0.95790  0.79630  Biso   1.000  H
  C105     1.0000 0.75630  0.13530  0.35340  Biso   1.000  C
  C106     1.0000 0.24370  0.13530  0.14660  Biso   1.000  C
  C107     1.0000 0.24370  0.86470  0.64660  Biso   1.000  C
  C108     1.0000 0.75630  0.86470  0.85340  Biso   1.000  C
  C109     1.0000 0.71440  0.17030  0.38250  Biso   1.000  C
  C110     1.0000 0.28560  0.17030  0.11750  Biso   1.000  C
  C111     1.0000 0.28560  0.82970  0.61750  Biso   1.000  C
  C112     1.0000 0.71440  0.82970  0.88250  Biso   1.000  C
  H121     1.0000 0.73850  0.21630  0.40740  Biso   1.000  H
  H122     1.0000 0.26150  0.21630  0.09260  Biso   1.000  H
  H123     1.0000 0.26150  0.78370  0.59260  Biso   1.000  H
  H124     1.0000 0.73850  0.78370  0.90740  Biso   1.000  H
  C113     1.0000 0.63720  0.13850  0.37540  Biso   1.000  C
  C114     1.0000 0.36280  0.13850  0.12460  Biso   1.000  C
  C115     1.0000 0.36280  0.86150  0.62460  Biso   1.000  C
  C116     1.0000 0.63720  0.86150  0.87540  Biso   1.000  C
  H125     1.0000 0.61010  0.16540  0.39560  Biso   1.000  H
  H126     1.0000 0.38990  0.16540  0.10440  Biso   1.000  H
  H127     1.0000 0.38990  0.83460  0.60440  Biso   1.000  H
  H128     1.0000 0.61010  0.83460  0.89560  Biso   1.000  H
  C117     1.0000 0.84290  0.16930  0.36020  Biso   1.000  C
  C118     1.0000 0.15710  0.16930  0.13980  Biso   1.000  C
  C119     1.0000 0.15710  0.83070  0.63980  Biso   1.000  C
  C120     1.0000 0.84290  0.83070  0.86020  Biso   1.000  C
  C121     1.0000 0.67560  0.67730  0.29530  Biso   1.000  C
  C122     1.0000 0.32440  0.67730  0.20470  Biso   1.000  C
  C123     1.0000 0.32440  0.32270  0.70470  Biso   1.000  C
  C124     1.0000 0.67560  0.32270  0.79530  Biso   1.000  C
  H129     1.0000 0.64270  0.75000  0.29710  Biso   1.000  H
  H130     1.0000 0.35730  0.75000  0.20290  Biso   1.000  H
  H131     1.0000 0.35730  0.25000  0.70290  Biso   1.000  H
  H132     1.0000 0.64270  0.25000  0.79710  Biso   1.000  H
  C125     1.0000 0.75100  0.70560  0.29250  Biso   1.000  C
  C126     1.0000 0.24900  0.70560  0.20750  Biso   1.000  C
  C127     1.0000 0.24900  0.29440  0.70750  Biso   1.000  C
  C128     1.0000 0.75100  0.29440  0.79250  Biso   1.000  C
  H133     1.0000 0.76840  0.79530  0.29330  Biso   1.000  H
  H134     1.0000 0.23160  0.79530  0.20670  Biso   1.000  H
  H135     1.0000 0.23160  0.20470  0.70670  Biso   1.000  H
  H136     1.0000 0.76840  0.20470  0.79330  Biso   1.000  H
  C129     1.0000 0.79960  0.59990  0.28870  Biso   1.000  C
  C130     1.0000 0.20040  0.59990  0.21130  Biso   1.000  C
  C131     1.0000 0.20040  0.40010  0.71130  Biso   1.000  C
  C132     1.0000 0.79960  0.40010  0.78870  Biso   1.000  C
  C133     1.0000 0.77240  0.46760  0.29010  Biso   1.000  C
  C134     1.0000 0.22760  0.46760  0.20990  Biso   1.000  C
  C135     1.0000 0.22760  0.53240  0.70990  Biso   1.000  C
  C136     1.0000 0.77240  0.53240  0.79010  Biso   1.000  C
  H137     1.0000 0.80470  0.39310  0.28960  Biso   1.000  H
  H138     1.0000 0.19530  0.39310  0.21040  Biso   1.000  H
  H139     1.0000 0.19530  0.60690  0.71040  Biso   1.000  H
  H140     1.0000 0.80470  0.60690  0.78960  Biso   1.000  H
  C137     1.0000 0.69680  0.44960  0.29230  Biso   1.000  C
  C138     1.0000 0.30320  0.44960  0.20770  Biso   1.000  C
  C139     1.0000 0.30320  0.55040  0.70770  Biso   1.000  C
  C140     1.0000 0.69680  0.55040  0.79230  Biso   1.000  C
  H141     1.0000 0.67810  0.36070  0.29140  Biso   1.000  H
  H142     1.0000 0.32190  0.36070  0.20860  Biso   1.000  H
  H143     1.0000 0.32190  0.63930  0.70860  Biso   1.000  H
  H144     1.0000 0.67810  0.63930  0.79140  Biso   1.000  H
  C141     1.0000 0.88070  0.62520  0.28300  Biso   1.000  C
  C142     1.0000 0.11930  0.62520  0.21700  Biso   1.000  C
  C143     1.0000 0.11930  0.37480  0.71700  Biso   1.000  C
  C144     1.0000 0.88070  0.37480  0.78300  Biso   1.000  C
  C145     1.0000 0.65680  0.32440  0.48420  Biso   1.000  C
  C146     1.0000 0.34320  0.32440  0.01580  Biso   1.000  C
  C147     1.0000 0.34320  0.67560  0.51580  Biso   1.000  C
  C148     1.0000 0.65680  0.67560  0.98420  Biso   1.000  C
  H145     1.0000 0.63450  0.41060  0.47910  Biso   1.000  H
  H146     1.0000 0.36550  0.41060  0.02090  Biso   1.000  H
  H147     1.0000 0.36550  0.58940  0.52090  Biso   1.000  H
  H148     1.0000 0.63450  0.58940  0.97910  Biso   1.000  H
  C149     1.0000 0.73560  0.31280  0.48940  Biso   1.000  C
  C150     1.0000 0.26440  0.31280  0.01060  Biso   1.000  C
  C151     1.0000 0.26440  0.68720  0.51060  Biso   1.000  C
  C152     1.0000 0.73560  0.68720  0.98940  Biso   1.000  C
  H149     1.0000 0.76560  0.39060  0.48900  Biso   1.000  H
  H150     1.0000 0.23440  0.39060  0.01100  Biso   1.000  H
  H151     1.0000 0.23440  0.60940  0.51100  Biso   1.000  H
  H152     1.0000 0.76560  0.60940  0.98900  Biso   1.000  H
  C153     1.0000 0.77070  0.18580  0.49520  Biso   1.000  C
  C154     1.0000 0.22930  0.18580  0.00480  Biso   1.000  C
  C155     1.0000 0.22930  0.81420  0.50480  Biso   1.000  C
  C156     1.0000 0.77070  0.81420  0.99520  Biso   1.000  C
  C157     1.0000 0.72290  0.07620  0.49810  Biso   1.000  C
  C158     1.0000 0.27710  0.07620  0.00190  Biso   1.000  C
  C159     1.0000 0.27710  0.92380  0.50190  Biso   1.000  C
  C160     1.0000 0.72290  0.92380  0.99810  Biso   1.000  C
  H153     1.0000 0.74410  0.98930  0.50330  Biso   1.000  H
  H154     1.0000 0.25590  0.98930  0.99670  Biso   1.000  H
  H155     1.0000 0.25590  0.01070  0.49670  Biso   1.000  H
  H156     1.0000 0.74410  0.01070  0.00330  Biso   1.000  H
  C161     1.0000 0.64430  0.09470  0.49330  Biso   1.000  C
  C162     1.0000 0.35570  0.09470  0.00670  Biso   1.000  C
  C163     1.0000 0.35570  0.90530  0.50670  Biso   1.000  C
  C164     1.0000 0.64430  0.90530  0.99330  Biso   1.000  C
  H157     1.0000 0.61370  0.01880  0.49510  Biso   1.000  H
  H158     1.0000 0.38630  0.01880  0.00490  Biso   1.000  H
  H159     1.0000 0.38630  0.98120  0.50490  Biso   1.000  H
  H160     1.0000 0.61370  0.98120  0.99510  Biso   1.000  H
  C165     1.0000 0.85450  0.16550  0.49390  Biso   1.000  C
  C166     1.0000 0.14550  0.16550  0.00610  Biso   1.000  C
  C167     1.0000 0.14550  0.83450  0.50610  Biso   1.000  C
  C168     1.0000 0.85450  0.83450  0.99390  Biso   1.000  C
