data_image0
_cell_length_a       17.707
_cell_length_b       9.813
_cell_length_c       31.918
_cell_angle_alpha    90
_cell_angle_beta     103.362
_cell_angle_gamma    90

_symmetry_space_group_name_H-M    "P 1"
_symmetry_int_tables_number       1

loop_
  _symmetry_equiv_pos_as_xyz
  'x, y, z'

loop_
  _atom_site_label
  _atom_site_occupancy
  _atom_site_fract_x
  _atom_site_fract_y
  _atom_site_fract_z
  _atom_site_thermal_displace_type
  _atom_site_B_iso_or_equiv
  _atom_site_type_symbol
  Eu1      1.0000 0.00000  0.11242  0.25000  Biso   1.000  Eu
  Eu2      1.0000 0.00000  0.88758  0.75000  Biso   1.000  Eu
  Eu3      1.0000 0.00000  0.64883  0.25000  Biso   1.000  Eu
  Eu4      1.0000 0.00000  0.35117  0.75000  Biso   1.000  Eu
  Eu5      1.0000 0.98715  0.18833  0.44262  Biso   1.000  Eu
  Eu6      1.0000 0.01285  0.18833  0.05738  Biso   1.000  Eu
  Eu7      1.0000 0.01285  0.81167  0.55738  Biso   1.000  Eu
  Eu8      1.0000 0.98715  0.81167  0.94262  Biso   1.000  Eu
  Cu1      1.0000 0.49004  0.48640  0.33014  Biso   1.000  Cu
  Cu2      1.0000 0.50996  0.48640  0.16986  Biso   1.000  Cu
  Cu3      1.0000 0.50996  0.51360  0.66986  Biso   1.000  Cu
  Cu4      1.0000 0.49004  0.51360  0.83014  Biso   1.000  Cu
  Cu5      1.0000 0.53581  0.98908  0.29814  Biso   1.000  Cu
  Cu6      1.0000 0.46419  0.98908  0.20186  Biso   1.000  Cu
  Cu7      1.0000 0.46419  0.01092  0.70186  Biso   1.000  Cu
  Cu8      1.0000 0.53581  0.01092  0.79814  Biso   1.000  Cu
  Cu9      1.0000 0.45709  0.89256  0.42458  Biso   1.000  Cu
  Cu10     1.0000 0.54291  0.89256  0.07542  Biso   1.000  Cu
  Cu11     1.0000 0.54291  0.10744  0.57542  Biso   1.000  Cu
  Cu12     1.0000 0.45709  0.10744  0.92458  Biso   1.000  Cu
  Cu13     1.0000 0.49755  0.26057  0.47893  Biso   1.000  Cu
  Cu14     1.0000 0.50245  0.26057  0.02107  Biso   1.000  Cu
  Cu15     1.0000 0.50245  0.73943  0.52107  Biso   1.000  Cu
  Cu16     1.0000 0.49755  0.73943  0.97893  Biso   1.000  Cu
  Cu17     1.0000 0.54907  0.80634  0.37466  Biso   1.000  Cu
  Cu18     1.0000 0.45093  0.80634  0.12534  Biso   1.000  Cu
  Cu19     1.0000 0.45093  0.19366  0.62534  Biso   1.000  Cu
  Cu20     1.0000 0.54907  0.19366  0.87466  Biso   1.000  Cu
  Br1      1.0000 0.47875  0.75792  0.30347  Biso   1.000  Br
  Br2      1.0000 0.52125  0.75792  0.19653  Biso   1.000  Br
  Br3      1.0000 0.52125  0.24208  0.69653  Biso   1.000  Br
  Br4      1.0000 0.47875  0.24208  0.80347  Biso   1.000  Br
  Br5      1.0000 0.50000  0.18399  0.25000  Biso   1.000  Br
  Br6      1.0000 0.50000  0.81601  0.75000  Biso   1.000  Br
  Br7      1.0000 0.50687  0.07031  0.37945  Biso   1.000  Br
  Br8      1.0000 0.49313  0.07031  0.12055  Biso   1.000  Br
  Br9      1.0000 0.49313  0.92969  0.62055  Biso   1.000  Br
  Br10     1.0000 0.50687  0.92969  0.87945  Biso   1.000  Br
  Br11     1.0000 0.50000  0.00000  0.50000  Biso   1.000  Br
  Br12     1.0000 0.50000  0.00000  0.00000  Biso   1.000  Br
  Br13     1.0000 0.50250  0.65203  0.42855  Biso   1.000  Br
  Br14     1.0000 0.49750  0.65203  0.07145  Biso   1.000  Br
  Br15     1.0000 0.49750  0.34797  0.57145  Biso   1.000  Br
  Br16     1.0000 0.50250  0.34797  0.92855  Biso   1.000  Br
  O1       1.0000 0.11360  0.25210  0.26513  Biso   1.000  O
  O2       1.0000 0.88640  0.25210  0.23487  Biso   1.000  O
  O3       1.0000 0.88640  0.74790  0.73487  Biso   1.000  O
  O4       1.0000 0.11360  0.74790  0.76513  Biso   1.000  O
  O5       1.0000 0.09190  0.47630  0.26440  Biso   1.000  O
  O6       1.0000 0.90810  0.47630  0.23560  Biso   1.000  O
  O7       1.0000 0.90810  0.52370  0.73560  Biso   1.000  O
  O8       1.0000 0.09190  0.52370  0.76440  Biso   1.000  O
  O9       1.0000 0.08220  0.76920  0.30797  Biso   1.000  O
  O10      1.0000 0.91780  0.76920  0.19203  Biso   1.000  O
  O11      1.0000 0.91780  0.23080  0.69203  Biso   1.000  O
  O12      1.0000 0.08220  0.23080  0.80797  Biso   1.000  O
  O13      1.0000 0.08480  0.99460  0.30700  Biso   1.000  O
  O14      1.0000 0.91520  0.99460  0.19300  Biso   1.000  O
  O15      1.0000 0.91520  0.00540  0.69300  Biso   1.000  O
  O16      1.0000 0.08480  0.00540  0.80700  Biso   1.000  O
  O17      1.0000 0.12170  0.38250  0.36494  Biso   1.000  O
  O18      1.0000 0.87830  0.38250  0.13506  Biso   1.000  O
  O19      1.0000 0.87830  0.61750  0.63506  Biso   1.000  O
  O20      1.0000 0.12170  0.61750  0.86494  Biso   1.000  O
  O21      1.0000 0.09330  0.26780  0.41880  Biso   1.000  O
  O22      1.0000 0.90670  0.26780  0.08120  Biso   1.000  O
  O23      1.0000 0.90670  0.73220  0.58120  Biso   1.000  O
  O24      1.0000 0.09330  0.73220  0.91880  Biso   1.000  O
  O25      1.0000 0.93360  0.98230  0.45660  Biso   1.000  O
  O26      1.0000 0.06640  0.98230  0.04340  Biso   1.000  O
  O27      1.0000 0.06640  0.01770  0.54340  Biso   1.000  O
  O28      1.0000 0.93360  0.01770  0.95660  Biso   1.000  O
  O29      1.0000 0.93480  0.77830  0.48720  Biso   1.000  O
  O30      1.0000 0.06520  0.77830  0.01280  Biso   1.000  O
  O31      1.0000 0.06520  0.22170  0.51280  Biso   1.000  O
  O32      1.0000 0.93480  0.22170  0.98720  Biso   1.000  O
  O33      1.0000 0.87470  0.36980  0.33210  Biso   1.000  O
  O34      1.0000 0.12530  0.36980  0.16790  Biso   1.000  O
  O35      1.0000 0.12530  0.63020  0.66790  Biso   1.000  O
  O36      1.0000 0.87470  0.63020  0.83210  Biso   1.000  O
  O37      1.0000 0.87270  0.26700  0.39401  Biso   1.000  O
  O38      1.0000 0.12730  0.26700  0.10599  Biso   1.000  O
  O39      1.0000 0.12730  0.73300  0.60599  Biso   1.000  O
  O40      1.0000 0.87270  0.73300  0.89401  Biso   1.000  O
  O41      1.0000 0.89860  0.75400  0.27734  Biso   1.000  O
  O42      1.0000 0.10140  0.75400  0.22266  Biso   1.000  O
  O43      1.0000 0.10140  0.24600  0.72266  Biso   1.000  O
  O44      1.0000 0.89860  0.24600  0.77734  Biso   1.000  O
  O45      1.0000 0.92170  0.97580  0.28240  Biso   1.000  O
  O46      1.0000 0.07830  0.97580  0.21760  Biso   1.000  O
  O47      1.0000 0.07830  0.02420  0.71760  Biso   1.000  O
  O48      1.0000 0.92170  0.02420  0.78240  Biso   1.000  O
  O49      1.0000 0.89250  0.23390  0.48701  Biso   1.000  O
  O50      1.0000 0.10750  0.23390  0.01299  Biso   1.000  O
  O51      1.0000 0.10750  0.76610  0.51299  Biso   1.000  O
  O52      1.0000 0.89250  0.76610  0.98701  Biso   1.000  O
  O53      1.0000 0.87920  0.45380  0.49830  Biso   1.000  O
  O54      1.0000 0.12080  0.45380  0.00170  Biso   1.000  O
  O55      1.0000 0.12080  0.54620  0.50170  Biso   1.000  O
  O56      1.0000 0.87920  0.54620  0.99830  Biso   1.000  O
  O57      1.0000 0.00380  0.22890  0.18350  Biso   1.000  O
  O58      1.0000 0.99620  0.22890  0.31650  Biso   1.000  O
  O59      1.0000 0.99620  0.77110  0.81650  Biso   1.000  O
  O60      1.0000 0.00380  0.77110  0.68350  Biso   1.000  O
  H1       1.0000 0.04080  0.26700  0.17500  Biso   1.000  H
  H2       1.0000 0.95920  0.26700  0.32500  Biso   1.000  H
  H3       1.0000 0.95920  0.73300  0.82500  Biso   1.000  H
  H4       1.0000 0.04080  0.73300  0.67500  Biso   1.000  H
  H5       1.0000 0.96380  0.26570  0.16760  Biso   1.000  H
  H6       1.0000 0.03620  0.26570  0.33240  Biso   1.000  H
  H7       1.0000 0.03620  0.73430  0.83240  Biso   1.000  H
  H8       1.0000 0.96380  0.73430  0.66760  Biso   1.000  H
  O61      1.0000 0.00510  0.55490  0.17566  Biso   1.000  O
  O62      1.0000 0.99490  0.55490  0.32434  Biso   1.000  O
  O63      1.0000 0.99490  0.44510  0.82434  Biso   1.000  O
  O64      1.0000 0.00510  0.44510  0.67566  Biso   1.000  O
  H9       1.0000 0.03170  0.48890  0.16960  Biso   1.000  H
  H10      1.0000 0.96830  0.48890  0.33040  Biso   1.000  H
  H11      1.0000 0.96830  0.51110  0.83040  Biso   1.000  H
  H12      1.0000 0.03170  0.51110  0.66960  Biso   1.000  H
  H13      1.0000 0.96290  0.52830  0.15910  Biso   1.000  H
  H14      1.0000 0.03710  0.52830  0.34090  Biso   1.000  H
  H15      1.0000 0.03710  0.47170  0.84090  Biso   1.000  H
  H16      1.0000 0.96290  0.47170  0.65910  Biso   1.000  H
  O65      1.0000 0.97810  0.04110  0.38059  Biso   1.000  O
  O66      1.0000 0.02190  0.04110  0.11941  Biso   1.000  O
  O67      1.0000 0.02190  0.95890  0.61941  Biso   1.000  O
  O68      1.0000 0.97810  0.95890  0.88059  Biso   1.000  O
  H17      1.0000 0.01280  0.03960  0.36610  Biso   1.000  H
  H18      1.0000 0.98720  0.03960  0.13390  Biso   1.000  H
  H19      1.0000 0.98720  0.96040  0.63390  Biso   1.000  H
  H20      1.0000 0.01280  0.96040  0.86610  Biso   1.000  H
  H21      1.0000 0.96040  0.96030  0.37940  Biso   1.000  H
  H22      1.0000 0.03960  0.96030  0.12060  Biso   1.000  H
  H23      1.0000 0.03960  0.03970  0.62060  Biso   1.000  H
  H24      1.0000 0.96040  0.03970  0.87940  Biso   1.000  H
  O69      1.0000 0.09780  0.00120  0.45668  Biso   1.000  O
  O70      1.0000 0.90220  0.00120  0.04332  Biso   1.000  O
  O71      1.0000 0.90220  0.99880  0.54332  Biso   1.000  O
  O72      1.0000 0.09780  0.99880  0.95668  Biso   1.000  O
  H25      1.0000 0.11180  0.92910  0.47090  Biso   1.000  H
  H26      1.0000 0.88820  0.92910  0.02910  Biso   1.000  H
  H27      1.0000 0.88820  0.07090  0.52910  Biso   1.000  H
  H28      1.0000 0.11180  0.07090  0.97090  Biso   1.000  H
  H29      1.0000 0.13160  0.05580  0.45060  Biso   1.000  H
  H30      1.0000 0.86840  0.05580  0.04940  Biso   1.000  H
  H31      1.0000 0.86840  0.94420  0.54940  Biso   1.000  H
  H32      1.0000 0.13160  0.94420  0.95060  Biso   1.000  H
  O73      1.0000 0.98810  0.43730  0.44827  Biso   1.000  O
  O74      1.0000 0.01190  0.43730  0.05173  Biso   1.000  O
  O75      1.0000 0.01190  0.56270  0.55173  Biso   1.000  O
  O76      1.0000 0.98810  0.56270  0.94827  Biso   1.000  O
  H33      1.0000 0.96300  0.46790  0.46600  Biso   1.000  H
  H34      1.0000 0.03700  0.46790  0.03400  Biso   1.000  H
  H35      1.0000 0.03700  0.53210  0.53400  Biso   1.000  H
  H36      1.0000 0.96300  0.53210  0.96600  Biso   1.000  H
  H37      1.0000 0.03320  0.43720  0.46480  Biso   1.000  H
  H38      1.0000 0.96680  0.43720  0.03520  Biso   1.000  H
  H39      1.0000 0.96680  0.56280  0.53520  Biso   1.000  H
  H40      1.0000 0.03320  0.56280  0.96480  Biso   1.000  H
  O77      1.0000 0.99660  0.23820  0.60850  Biso   1.000  O
  O78      1.0000 0.00340  0.23820  0.89150  Biso   1.000  O
  O79      1.0000 0.00340  0.76180  0.39150  Biso   1.000  O
  O80      1.0000 0.99660  0.76180  0.10850  Biso   1.000  O
  H41      1.0000 0.98080  0.25990  0.63080  Biso   1.000  H
  H42      1.0000 0.01920  0.25990  0.86920  Biso   1.000  H
  H43      1.0000 0.01920  0.74010  0.36920  Biso   1.000  H
  H44      1.0000 0.98080  0.74010  0.13080  Biso   1.000  H
  H45      1.0000 0.04300  0.20980  0.61320  Biso   1.000  H
  H46      1.0000 0.95700  0.20980  0.88680  Biso   1.000  H
  H47      1.0000 0.95700  0.79020  0.38680  Biso   1.000  H
  H48      1.0000 0.04300  0.79020  0.11320  Biso   1.000  H
  N1       1.0000 0.37860  0.45270  0.31510  Biso   1.000  N
  N2       1.0000 0.62140  0.45270  0.18490  Biso   1.000  N
  N3       1.0000 0.62140  0.54730  0.68490  Biso   1.000  N
  N4       1.0000 0.37860  0.54730  0.81510  Biso   1.000  N
  N5       1.0000 0.33970  0.88980  0.40270  Biso   1.000  N
  N6       1.0000 0.66030  0.88980  0.09730  Biso   1.000  N
  N7       1.0000 0.66030  0.11020  0.59730  Biso   1.000  N
  N8       1.0000 0.33970  0.11020  0.90270  Biso   1.000  N
  N9       1.0000 0.38570  0.28650  0.45620  Biso   1.000  N
  N10      1.0000 0.61430  0.28650  0.04380  Biso   1.000  N
  N11      1.0000 0.61430  0.71350  0.54380  Biso   1.000  N
  N12      1.0000 0.38570  0.71350  0.95620  Biso   1.000  N
  N13      1.0000 0.66400  0.81760  0.39850  Biso   1.000  N
  N14      1.0000 0.33600  0.81760  0.10150  Biso   1.000  N
  N15      1.0000 0.33600  0.18240  0.60150  Biso   1.000  N
  N16      1.0000 0.66400  0.18240  0.89850  Biso   1.000  N
  N17      1.0000 0.59850  0.43450  0.33990  Biso   1.000  N
  N18      1.0000 0.40150  0.43450  0.16010  Biso   1.000  N
  N19      1.0000 0.40150  0.56550  0.66010  Biso   1.000  N
  N20      1.0000 0.59850  0.56550  0.83990  Biso   1.000  N
  N21      1.0000 0.64780  0.95120  0.29540  Biso   1.000  N
  N22      1.0000 0.35220  0.95120  0.20460  Biso   1.000  N
  N23      1.0000 0.35220  0.04880  0.70460  Biso   1.000  N
  N24      1.0000 0.64780  0.04880  0.79540  Biso   1.000  N
  N25      1.0000 0.60970  0.28400  0.48580  Biso   1.000  N
  N26      1.0000 0.39030  0.28400  0.01420  Biso   1.000  N
  N27      1.0000 0.39030  0.71600  0.51420  Biso   1.000  N
  N28      1.0000 0.60970  0.71600  0.98580  Biso   1.000  N
  C1       1.0000 0.35350  0.32440  0.30610  Biso   1.000  C
  C2       1.0000 0.64650  0.32440  0.19390  Biso   1.000  C
  C3       1.0000 0.64650  0.67560  0.69390  Biso   1.000  C
  C4       1.0000 0.35350  0.67560  0.80610  Biso   1.000  C
  H49      1.0000 0.38950  0.25400  0.30910  Biso   1.000  H
  H50      1.0000 0.61050  0.25400  0.19090  Biso   1.000  H
  H51      1.0000 0.61050  0.74600  0.69090  Biso   1.000  H
  H52      1.0000 0.38950  0.74600  0.80910  Biso   1.000  H
  C5       1.0000 0.27430  0.29450  0.29230  Biso   1.000  C
  C6       1.0000 0.72570  0.29450  0.20770  Biso   1.000  C
  C7       1.0000 0.72570  0.70550  0.70770  Biso   1.000  C
  C8       1.0000 0.27430  0.70550  0.79230  Biso   1.000  C
  H53      1.0000 0.25780  0.20470  0.28750  Biso   1.000  H
  H54      1.0000 0.74220  0.20470  0.21250  Biso   1.000  H
  H55      1.0000 0.74220  0.79530  0.71250  Biso   1.000  H
  H56      1.0000 0.25780  0.79530  0.78750  Biso   1.000  H
  C9       1.0000 0.22120  0.39860  0.28590  Biso   1.000  C
  C10      1.0000 0.77880  0.39860  0.21410  Biso   1.000  C
  C11      1.0000 0.77880  0.60140  0.71410  Biso   1.000  C
  C12      1.0000 0.22120  0.60140  0.78590  Biso   1.000  C
  C13      1.0000 0.24880  0.53070  0.29470  Biso   1.000  C
  C14      1.0000 0.75120  0.53070  0.20530  Biso   1.000  C
  C15      1.0000 0.75120  0.46930  0.70530  Biso   1.000  C
  C16      1.0000 0.24880  0.46930  0.79470  Biso   1.000  C
  H57      1.0000 0.21440  0.60370  0.29040  Biso   1.000  H
  H58      1.0000 0.78560  0.60370  0.20960  Biso   1.000  H
  H59      1.0000 0.78560  0.39630  0.70960  Biso   1.000  H
  H60      1.0000 0.21440  0.39630  0.79040  Biso   1.000  H
  C17      1.0000 0.32730  0.55330  0.30960  Biso   1.000  C
  C18      1.0000 0.67270  0.55330  0.19040  Biso   1.000  C
  C19      1.0000 0.67270  0.44670  0.69040  Biso   1.000  C
  C20      1.0000 0.32730  0.44670  0.80960  Biso   1.000  C
  H61      1.0000 0.34480  0.64200  0.31590  Biso   1.000  H
  H62      1.0000 0.65520  0.64200  0.18410  Biso   1.000  H
  H63      1.0000 0.65520  0.35800  0.68410  Biso   1.000  H
  H64      1.0000 0.34480  0.35800  0.81590  Biso   1.000  H
  C21      1.0000 0.13480  0.37420  0.27040  Biso   1.000  C
  C22      1.0000 0.86520  0.37420  0.22960  Biso   1.000  C
  C23      1.0000 0.86520  0.62580  0.72960  Biso   1.000  C
  C24      1.0000 0.13480  0.62580  0.77040  Biso   1.000  C
  C25      1.0000 0.29700  0.77810  0.39830  Biso   1.000  C
  C26      1.0000 0.70300  0.77810  0.10170  Biso   1.000  C
  C27      1.0000 0.70300  0.22190  0.60170  Biso   1.000  C
  C28      1.0000 0.29700  0.22190  0.89830  Biso   1.000  C
  H65      1.0000 0.31880  0.70070  0.41310  Biso   1.000  H
  H66      1.0000 0.68120  0.70070  0.08690  Biso   1.000  H
  H67      1.0000 0.68120  0.29930  0.58690  Biso   1.000  H
  H68      1.0000 0.31880  0.29930  0.91310  Biso   1.000  H
  C29      1.0000 0.22270  0.76820  0.37360  Biso   1.000  C
  C30      1.0000 0.77730  0.76820  0.12640  Biso   1.000  C
  C31      1.0000 0.77730  0.23180  0.62640  Biso   1.000  C
  C32      1.0000 0.22270  0.23180  0.87360  Biso   1.000  C
  H69      1.0000 0.19570  0.68630  0.37140  Biso   1.000  H
  H70      1.0000 0.80430  0.68630  0.12860  Biso   1.000  H
  H71      1.0000 0.80430  0.31370  0.62860  Biso   1.000  H
  H72      1.0000 0.19570  0.31370  0.87140  Biso   1.000  H
  C33      1.0000 0.18880  0.88420  0.35190  Biso   1.000  C
  C34      1.0000 0.81120  0.88420  0.14810  Biso   1.000  C
  C35      1.0000 0.81120  0.11580  0.64810  Biso   1.000  C
  C36      1.0000 0.18880  0.11580  0.85190  Biso   1.000  C
  C37      1.0000 0.23160  0.00310  0.35800  Biso   1.000  C
  C38      1.0000 0.76840  0.00310  0.14200  Biso   1.000  C
  C39      1.0000 0.76840  0.99690  0.64200  Biso   1.000  C
  C40      1.0000 0.23160  0.99690  0.85800  Biso   1.000  C
  H73      1.0000 0.21010  0.08360  0.34520  Biso   1.000  H
  H74      1.0000 0.78990  0.08360  0.15480  Biso   1.000  H
  H75      1.0000 0.78990  0.91640  0.65480  Biso   1.000  H
  H76      1.0000 0.21010  0.91640  0.84520  Biso   1.000  H
  C41      1.0000 0.30580  0.00270  0.38300  Biso   1.000  C
  C42      1.0000 0.69420  0.00270  0.11700  Biso   1.000  C
  C43      1.0000 0.69420  0.99730  0.61700  Biso   1.000  C
  C44      1.0000 0.30580  0.99730  0.88300  Biso   1.000  C
  H77      1.0000 0.33390  0.08360  0.38640  Biso   1.000  H
  H78      1.0000 0.66610  0.08360  0.11360  Biso   1.000  H
  H79      1.0000 0.66610  0.91640  0.61360  Biso   1.000  H
  H80      1.0000 0.33390  0.91640  0.88640  Biso   1.000  H
  C45      1.0000 0.11190  0.88080  0.31900  Biso   1.000  C
  C46      1.0000 0.88810  0.88080  0.18100  Biso   1.000  C
  C47      1.0000 0.88810  0.11920  0.68100  Biso   1.000  C
  C48      1.0000 0.11190  0.11920  0.81900  Biso   1.000  C
  C49      1.0000 0.35830  0.36220  0.42140  Biso   1.000  C
  C50      1.0000 0.64170  0.36220  0.07860  Biso   1.000  C
  C51      1.0000 0.64170  0.63780  0.57860  Biso   1.000  C
  C52      1.0000 0.35830  0.63780  0.92140  Biso   1.000  C
  H81      1.0000 0.39360  0.40780  0.40890  Biso   1.000  H
  H82      1.0000 0.60640  0.40780  0.09110  Biso   1.000  H
  H83      1.0000 0.60640  0.59220  0.59110  Biso   1.000  H
  H84      1.0000 0.39360  0.59220  0.90890  Biso   1.000  H
  C53      1.0000 0.28090  0.37630  0.40310  Biso   1.000  C
  C54      1.0000 0.71910  0.37630  0.09690  Biso   1.000  C
  C55      1.0000 0.71910  0.62370  0.59690  Biso   1.000  C
  C56      1.0000 0.28090  0.62370  0.90310  Biso   1.000  C
  H85      1.0000 0.26500  0.43050  0.37880  Biso   1.000  H
  H86      1.0000 0.73500  0.43050  0.12120  Biso   1.000  H
  H87      1.0000 0.73500  0.56950  0.62120  Biso   1.000  H
  H88      1.0000 0.26500  0.56950  0.87880  Biso   1.000  H
  C57      1.0000 0.22560  0.31040  0.42060  Biso   1.000  C
  C58      1.0000 0.77440  0.31040  0.07940  Biso   1.000  C
  C59      1.0000 0.77440  0.68960  0.57940  Biso   1.000  C
  C60      1.0000 0.22560  0.68960  0.92060  Biso   1.000  C
  C61      1.0000 0.25390  0.23200  0.45690  Biso   1.000  C
  C62      1.0000 0.74610  0.23200  0.04310  Biso   1.000  C
  C63      1.0000 0.74610  0.76800  0.54310  Biso   1.000  C
  C64      1.0000 0.25390  0.76800  0.95690  Biso   1.000  C
  H89      1.0000 0.21960  0.18510  0.46980  Biso   1.000  H
  H90      1.0000 0.78040  0.18510  0.03020  Biso   1.000  H
  H91      1.0000 0.78040  0.81490  0.53020  Biso   1.000  H
  H92      1.0000 0.21960  0.81490  0.96980  Biso   1.000  H
  C65      1.0000 0.33250  0.22360  0.47400  Biso   1.000  C
  C66      1.0000 0.66750  0.22360  0.02600  Biso   1.000  C
  C67      1.0000 0.66750  0.77640  0.52600  Biso   1.000  C
  C68      1.0000 0.33250  0.77640  0.97400  Biso   1.000  C
  H93      1.0000 0.34990  0.17240  0.49880  Biso   1.000  H
  H94      1.0000 0.65010  0.17240  0.00120  Biso   1.000  H
  H95      1.0000 0.65010  0.82760  0.50120  Biso   1.000  H
  H96      1.0000 0.34990  0.82760  0.99880  Biso   1.000  H
  C69      1.0000 0.13990  0.32260  0.39980  Biso   1.000  C
  C70      1.0000 0.86010  0.32260  0.10020  Biso   1.000  C
  C71      1.0000 0.86010  0.67740  0.60020  Biso   1.000  C
  C72      1.0000 0.13990  0.67740  0.89980  Biso   1.000  C
  C73      1.0000 0.70130  0.93540  0.39600  Biso   1.000  C
  C74      1.0000 0.29870  0.93540  0.10400  Biso   1.000  C
  C75      1.0000 0.29870  0.06460  0.60400  Biso   1.000  C
  C76      1.0000 0.70130  0.06460  0.89600  Biso   1.000  C
  H97      1.0000 0.67340  0.00760  0.38100  Biso   1.000  H
  H98      1.0000 0.32660  0.00760  0.11900  Biso   1.000  H
  H99      1.0000 0.32660  0.99240  0.61900  Biso   1.000  H
  H100     1.0000 0.67340  0.99240  0.88100  Biso   1.000  H
  C77      1.0000 0.77870  0.95440  0.41440  Biso   1.000  C
  C78      1.0000 0.22130  0.95440  0.08560  Biso   1.000  C
  C79      1.0000 0.22130  0.04560  0.58560  Biso   1.000  C
  C80      1.0000 0.77870  0.04560  0.91440  Biso   1.000  C
  H101     1.0000 0.80220  0.03820  0.41250  Biso   1.000  H
  H102     1.0000 0.19780  0.03820  0.08750  Biso   1.000  H
  H103     1.0000 0.19780  0.96180  0.58750  Biso   1.000  H
  H104     1.0000 0.80220  0.96180  0.91250  Biso   1.000  H
  C81      1.0000 0.82150  0.84600  0.43610  Biso   1.000  C
  C82      1.0000 0.17850  0.84600  0.06390  Biso   1.000  C
  C83      1.0000 0.17850  0.15400  0.56390  Biso   1.000  C
  C84      1.0000 0.82150  0.15400  0.93610  Biso   1.000  C
  C85      1.0000 0.78410  0.72350  0.43770  Biso   1.000  C
  C86      1.0000 0.21590  0.72350  0.06230  Biso   1.000  C
  C87      1.0000 0.21590  0.27650  0.56230  Biso   1.000  C
  C88      1.0000 0.78410  0.27650  0.93770  Biso   1.000  C
  H105     1.0000 0.81080  0.64890  0.45180  Biso   1.000  H
  H106     1.0000 0.18920  0.64890  0.04820  Biso   1.000  H
  H107     1.0000 0.18920  0.35110  0.54820  Biso   1.000  H
  H108     1.0000 0.81080  0.35110  0.95180  Biso   1.000  H
  C89      1.0000 0.70640  0.71340  0.41800  Biso   1.000  C
  C90      1.0000 0.29360  0.71340  0.08200  Biso   1.000  C
  C91      1.0000 0.29360  0.28660  0.58200  Biso   1.000  C
  C92      1.0000 0.70640  0.28660  0.91800  Biso   1.000  C
  H109     1.0000 0.68220  0.62950  0.41840  Biso   1.000  H
  H110     1.0000 0.31780  0.62950  0.08160  Biso   1.000  H
  H111     1.0000 0.31780  0.37050  0.58160  Biso   1.000  H
  H112     1.0000 0.68220  0.37050  0.91840  Biso   1.000  H
  C93      1.0000 0.90330  0.87050  0.46180  Biso   1.000  C
  C94      1.0000 0.09670  0.87050  0.03820  Biso   1.000  C
  C95      1.0000 0.09670  0.12950  0.53820  Biso   1.000  C
  C96      1.0000 0.90330  0.12950  0.96180  Biso   1.000  C
  C97      1.0000 0.63910  0.46450  0.31130  Biso   1.000  C
  C98      1.0000 0.36090  0.46450  0.18870  Biso   1.000  C
  C99      1.0000 0.36090  0.53550  0.68870  Biso   1.000  C
  C100     1.0000 0.63910  0.53550  0.81130  Biso   1.000  C
  H113     1.0000 0.61380  0.50810  0.28610  Biso   1.000  H
  H114     1.0000 0.38620  0.50810  0.21390  Biso   1.000  H
  H115     1.0000 0.38620  0.49190  0.71390  Biso   1.000  H
  H116     1.0000 0.61380  0.49190  0.78610  Biso   1.000  H
  C101     1.0000 0.71680  0.43500  0.31670  Biso   1.000  C
  C102     1.0000 0.28320  0.43500  0.18330  Biso   1.000  C
  C103     1.0000 0.28320  0.56500  0.68330  Biso   1.000  C
  C104     1.0000 0.71680  0.56500  0.81670  Biso   1.000  C
  H117     1.0000 0.74300  0.46120  0.29590  Biso   1.000  H
  H118     1.0000 0.25700  0.46120  0.20410  Biso   1.000  H
  H119     1.0000 0.25700  0.53880  0.70410  Biso   1.000  H
  H120     1.0000 0.74300  0.53880  0.79590  Biso   1.000  H
  C105     1.0000 0.75590  0.36590  0.35340  Biso   1.000  C
  C106     1.0000 0.24410  0.36590  0.14660  Biso   1.000  C
  C107     1.0000 0.24410  0.63410  0.64660  Biso   1.000  C
  C108     1.0000 0.75590  0.63410  0.85340  Biso   1.000  C
  C109     1.0000 0.71240  0.33040  0.38220  Biso   1.000  C
  C110     1.0000 0.28760  0.33040  0.11780  Biso   1.000  C
  C111     1.0000 0.28760  0.66960  0.61780  Biso   1.000  C
  C112     1.0000 0.71240  0.66960  0.88220  Biso   1.000  C
  H121     1.0000 0.73520  0.28250  0.40700  Biso   1.000  H
  H122     1.0000 0.26480  0.28250  0.09300  Biso   1.000  H
  H123     1.0000 0.26480  0.71750  0.59300  Biso   1.000  H
  H124     1.0000 0.73520  0.71750  0.90700  Biso   1.000  H
  C113     1.0000 0.63640  0.36530  0.37440  Biso   1.000  C
  C114     1.0000 0.36360  0.36530  0.12560  Biso   1.000  C
  C115     1.0000 0.36360  0.63470  0.62560  Biso   1.000  C
  C116     1.0000 0.63640  0.63470  0.87440  Biso   1.000  C
  H125     1.0000 0.60870  0.33920  0.39460  Biso   1.000  H
  H126     1.0000 0.39130  0.33920  0.10540  Biso   1.000  H
  H127     1.0000 0.39130  0.66080  0.60540  Biso   1.000  H
  H128     1.0000 0.60870  0.66080  0.89460  Biso   1.000  H
  C117     1.0000 0.84180  0.33160  0.35990  Biso   1.000  C
  C118     1.0000 0.15820  0.33160  0.14010  Biso   1.000  C
  C119     1.0000 0.15820  0.66840  0.64010  Biso   1.000  C
  C120     1.0000 0.84180  0.66840  0.85990  Biso   1.000  C
  C121     1.0000 0.67550  0.82350  0.29610  Biso   1.000  C
  C122     1.0000 0.32450  0.82350  0.20390  Biso   1.000  C
  C123     1.0000 0.32450  0.17650  0.70390  Biso   1.000  C
  C124     1.0000 0.67550  0.17650  0.79610  Biso   1.000  C
  H129     1.0000 0.64320  0.75160  0.29940  Biso   1.000  H
  H130     1.0000 0.35680  0.75160  0.20060  Biso   1.000  H
  H131     1.0000 0.35680  0.24840  0.70060  Biso   1.000  H
  H132     1.0000 0.64320  0.24840  0.79940  Biso   1.000  H
  C125     1.0000 0.75010  0.79400  0.29200  Biso   1.000  C
  C126     1.0000 0.24990  0.79400  0.20800  Biso   1.000  C
  C127     1.0000 0.24990  0.20600  0.70800  Biso   1.000  C
  C128     1.0000 0.75010  0.20600  0.79200  Biso   1.000  C
  H133     1.0000 0.76650  0.70420  0.29120  Biso   1.000  H
  H134     1.0000 0.23350  0.70420  0.20880  Biso   1.000  H
  H135     1.0000 0.23350  0.29580  0.70880  Biso   1.000  H
  H136     1.0000 0.76650  0.29580  0.79120  Biso   1.000  H
  C129     1.0000 0.79950  0.90060  0.28910  Biso   1.000  C
  C130     1.0000 0.20050  0.90060  0.21090  Biso   1.000  C
  C131     1.0000 0.20050  0.09940  0.71090  Biso   1.000  C
  C132     1.0000 0.79950  0.09940  0.78910  Biso   1.000  C
  C133     1.0000 0.77200  0.03270  0.29040  Biso   1.000  C
  C134     1.0000 0.22800  0.03270  0.20960  Biso   1.000  C
  C135     1.0000 0.22800  0.96730  0.70960  Biso   1.000  C
  C136     1.0000 0.77200  0.96730  0.79040  Biso   1.000  C
  H137     1.0000 0.80420  0.10720  0.28990  Biso   1.000  H
  H138     1.0000 0.19580  0.10720  0.21010  Biso   1.000  H
  H139     1.0000 0.19580  0.89280  0.71010  Biso   1.000  H
  H140     1.0000 0.80420  0.89280  0.78990  Biso   1.000  H
  C137     1.0000 0.69690  0.05080  0.29260  Biso   1.000  C
  C138     1.0000 0.30310  0.05080  0.20740  Biso   1.000  C
  C139     1.0000 0.30310  0.94920  0.70740  Biso   1.000  C
  C140     1.0000 0.69690  0.94920  0.79260  Biso   1.000  C
  H141     1.0000 0.67860  0.13980  0.29200  Biso   1.000  H
  H142     1.0000 0.32140  0.13980  0.20800  Biso   1.000  H
  H143     1.0000 0.32140  0.86020  0.70800  Biso   1.000  H
  H144     1.0000 0.67860  0.86020  0.79200  Biso   1.000  H
  C141     1.0000 0.88020  0.87500  0.28240  Biso   1.000  C
  C142     1.0000 0.11980  0.87500  0.21760  Biso   1.000  C
  C143     1.0000 0.11980  0.12500  0.71760  Biso   1.000  C
  C144     1.0000 0.88020  0.12500  0.78240  Biso   1.000  C
  C145     1.0000 0.65620  0.17610  0.48410  Biso   1.000  C
  C146     1.0000 0.34380  0.17610  0.01590  Biso   1.000  C
  C147     1.0000 0.34380  0.82390  0.51590  Biso   1.000  C
  C148     1.0000 0.65620  0.82390  0.98410  Biso   1.000  C
  H145     1.0000 0.63370  0.09020  0.47910  Biso   1.000  H
  H146     1.0000 0.36630  0.09020  0.02090  Biso   1.000  H
  H147     1.0000 0.36630  0.90980  0.52090  Biso   1.000  H
  H148     1.0000 0.63370  0.90980  0.97910  Biso   1.000  H
  C149     1.0000 0.73530  0.18690  0.48950  Biso   1.000  C
  C150     1.0000 0.26470  0.18690  0.01050  Biso   1.000  C
  C151     1.0000 0.26470  0.81310  0.51050  Biso   1.000  C
  C152     1.0000 0.73530  0.81310  0.98950  Biso   1.000  C
  H149     1.0000 0.76550  0.10940  0.48930  Biso   1.000  H
  H150     1.0000 0.23450  0.10940  0.01070  Biso   1.000  H
  H151     1.0000 0.23450  0.89060  0.51070  Biso   1.000  H
  H152     1.0000 0.76550  0.89060  0.98930  Biso   1.000  H
  C153     1.0000 0.76970  0.31460  0.49530  Biso   1.000  C
  C154     1.0000 0.23030  0.31460  0.00470  Biso   1.000  C
  C155     1.0000 0.23030  0.68540  0.50470  Biso   1.000  C
  C156     1.0000 0.76970  0.68540  0.99530  Biso   1.000  C
  C157     1.0000 0.72230  0.42460  0.49830  Biso   1.000  C
  C158     1.0000 0.27770  0.42460  0.00170  Biso   1.000  C
  C159     1.0000 0.27770  0.57540  0.50170  Biso   1.000  C
  C160     1.0000 0.72230  0.57540  0.99830  Biso   1.000  C
  H153     1.0000 0.74360  0.51120  0.50390  Biso   1.000  H
  H154     1.0000 0.25640  0.51120  0.99610  Biso   1.000  H
  H155     1.0000 0.25640  0.48880  0.49610  Biso   1.000  H
  H156     1.0000 0.74360  0.48880  0.00390  Biso   1.000  H
  C161     1.0000 0.64400  0.40560  0.49300  Biso   1.000  C
  C162     1.0000 0.35600  0.40560  0.00700  Biso   1.000  C
  C163     1.0000 0.35600  0.59440  0.50700  Biso   1.000  C
  C164     1.0000 0.64400  0.59440  0.99300  Biso   1.000  C
  H157     1.0000 0.61310  0.48140  0.49440  Biso   1.000  H
  H158     1.0000 0.38690  0.48140  0.00560  Biso   1.000  H
  H159     1.0000 0.38690  0.51860  0.50560  Biso   1.000  H
  H160     1.0000 0.61310  0.51860  0.99440  Biso   1.000  H
  C165     1.0000 0.85480  0.33560  0.49490  Biso   1.000  C
  C166     1.0000 0.14520  0.33560  0.00510  Biso   1.000  C
  C167     1.0000 0.14520  0.66440  0.50510  Biso   1.000  C
  C168     1.0000 0.85480  0.66440  0.99490  Biso   1.000  C
