data_image0
_cell_length_a       13.4616
_cell_length_b       13.5753
_cell_length_c       13.808
_cell_angle_alpha    103.196
_cell_angle_beta     108.148
_cell_angle_gamma    111.245

_symmetry_space_group_name_H-M    "P 1"
_symmetry_int_tables_number       1

loop_
  _symmetry_equiv_pos_as_xyz
  'x, y, z'

loop_
  _atom_site_label
  _atom_site_occupancy
  _atom_site_fract_x
  _atom_site_fract_y
  _atom_site_fract_z
  _atom_site_thermal_displace_type
  _atom_site_B_iso_or_equiv
  _atom_site_type_symbol
  Cu1      1.0000 0.39980  0.81187  0.05324  Biso   1.000  Cu
  Cu2      1.0000 0.60020  0.18813  0.94676  Biso   1.000  Cu
  Cu3      1.0000 0.29456  0.79022  0.22607  Biso   1.000  Cu
  Cu4      1.0000 0.70544  0.20978  0.77393  Biso   1.000  Cu
  Cl1      1.0000 0.31717  0.65280  0.10453  Biso   1.000  Cl
  Cl2      1.0000 0.68283  0.34720  0.89547  Biso   1.000  Cl
  Cl3      1.0000 0.37896  0.94825  0.17966  Biso   1.000  Cl
  Cl4      1.0000 0.62104  0.05175  0.82034  Biso   1.000  Cl
  P1       1.0000 0.35055  0.82329  0.40379  Biso   1.000  P
  P2       1.0000 0.64945  0.17671  0.59621  Biso   1.000  P
  P3       1.0000 0.59301  0.86743  0.09795  Biso   1.000  P
  P4       1.0000 0.40699  0.13257  0.90205  Biso   1.000  P
  P5       1.0000 0.71364  0.22748  0.12397  Biso   1.000  P
  P6       1.0000 0.28636  0.77252  0.87603  Biso   1.000  P
  N1       1.0000 0.11500  0.72900  0.15831  Biso   1.000  N
  N2       1.0000 0.88500  0.27100  0.84169  Biso   1.000  N
  C1       1.0000 0.43950  0.97350  0.50050  Biso   1.000  C
  C2       1.0000 0.56050  0.02650  0.49950  Biso   1.000  C
  C3       1.0000 0.43470  0.75520  0.46183  Biso   1.000  C
  C4       1.0000 0.56530  0.24480  0.53817  Biso   1.000  C
  C5       1.0000 0.43080  0.66190  0.39030  Biso   1.000  C
  C6       1.0000 0.56920  0.33810  0.60970  Biso   1.000  C
  C7       1.0000 0.49730  0.61030  0.43030  Biso   1.000  C
  C8       1.0000 0.50270  0.38970  0.56970  Biso   1.000  C
  C9       1.0000 0.56920  0.65260  0.54150  Biso   1.000  C
  C10      1.0000 0.43080  0.34740  0.45850  Biso   1.000  C
  C11      1.0000 0.57440  0.74520  0.61240  Biso   1.000  C
  C12      1.0000 0.42560  0.25480  0.38760  Biso   1.000  C
  C13      1.0000 0.50710  0.79630  0.57420  Biso   1.000  C
  C14      1.0000 0.49290  0.20370  0.42580  Biso   1.000  C
  C15      1.0000 0.22190  0.77090  0.43317  Biso   1.000  C
  C16      1.0000 0.77810  0.22910  0.56683  Biso   1.000  C
  C17      1.0000 0.14630  0.65410  0.38670  Biso   1.000  C
  C18      1.0000 0.85370  0.34590  0.61330  Biso   1.000  C
  C19      1.0000 0.04390  0.60990  0.40040  Biso   1.000  C
  C20      1.0000 0.95610  0.39010  0.59960  Biso   1.000  C
  C21      1.0000 0.01480  0.68120  0.45930  Biso   1.000  C
  C22      1.0000 0.98520  0.31880  0.54070  Biso   1.000  C
  C23      1.0000 0.08810  0.79700  0.50500  Biso   1.000  C
  C24      1.0000 0.91190  0.20300  0.49500  Biso   1.000  C
  C25      1.0000 0.19190  0.84300  0.49340  Biso   1.000  C
  C26      1.0000 0.80810  0.15700  0.50660  Biso   1.000  C
  C27      1.0000 0.02110  0.69550  0.14840  Biso   1.000  C
  C28      1.0000 0.97890  0.30450  0.85160  Biso   1.000  C
  C29      1.0000 0.90030  0.65170  0.13700  Biso   1.000  C
  C30      1.0000 0.09970  0.34830  0.86300  Biso   1.000  C
  C31      1.0000 0.68780  0.87830  0.23247  Biso   1.000  C
  C32      1.0000 0.31220  0.12170  0.76753  Biso   1.000  C
  C33      1.0000 0.63800  0.84760  0.30260  Biso   1.000  C
  C34      1.0000 0.36200  0.15240  0.69740  Biso   1.000  C
  C35      1.0000 0.70670  0.84400  0.39980  Biso   1.000  C
  C36      1.0000 0.29330  0.15600  0.60020  Biso   1.000  C
  C37      1.0000 0.82270  0.87010  0.42670  Biso   1.000  C
  C38      1.0000 0.17730  0.12990  0.57330  Biso   1.000  C
  C39      1.0000 0.87270  0.90120  0.35810  Biso   1.000  C
  C40      1.0000 0.12730  0.09880  0.64190  Biso   1.000  C
  C41      1.0000 0.80640  0.90620  0.26180  Biso   1.000  C
  C42      1.0000 0.19360  0.09380  0.73820  Biso   1.000  C
  C43      1.0000 0.62100  0.76870  0.00956  Biso   1.000  C
  C44      1.0000 0.37900  0.23130  0.99044  Biso   1.000  C
  C45      1.0000 0.59800  0.66480  0.02040  Biso   1.000  C
  C46      1.0000 0.40200  0.33520  0.97960  Biso   1.000  C
  C47      1.0000 0.61650  0.58460  0.95800  Biso   1.000  C
  C48      1.0000 0.38350  0.41540  0.04200  Biso   1.000  C
  C49      1.0000 0.66070  0.60800  0.88390  Biso   1.000  C
  C50      1.0000 0.33930  0.39200  0.11610  Biso   1.000  C
  C51      1.0000 0.69220  0.71280  0.87670  Biso   1.000  C
  C52      1.0000 0.30780  0.28720  0.12330  Biso   1.000  C
  C53      1.0000 0.66950  0.79280  0.93760  Biso   1.000  C
  C54      1.0000 0.33050  0.20720  0.06240  Biso   1.000  C
  C55      1.0000 0.66830  0.10370  0.16350  Biso   1.000  C
  C56      1.0000 0.33170  0.89630  0.83650  Biso   1.000  C
  C57      1.0000 0.67280  0.00450  0.08900  Biso   1.000  C
  C58      1.0000 0.32720  0.99550  0.91100  Biso   1.000  C
  C59      1.0000 0.70772  0.33849  0.22239  Biso   1.000  C
  C60      1.0000 0.29228  0.66151  0.77761  Biso   1.000  C
  C61      1.0000 0.68990  0.42160  0.18850  Biso   1.000  C
  C62      1.0000 0.31010  0.57840  0.81150  Biso   1.000  C
  C63      1.0000 0.68670  0.51030  0.25870  Biso   1.000  C
  C64      1.0000 0.31330  0.48970  0.74130  Biso   1.000  C
  C65      1.0000 0.69970  0.51570  0.36260  Biso   1.000  C
  C66      1.0000 0.30030  0.48430  0.63740  Biso   1.000  C
  C67      1.0000 0.71590  0.43340  0.39650  Biso   1.000  C
  C68      1.0000 0.28410  0.56660  0.60350  Biso   1.000  C
  C69      1.0000 0.72110  0.34540  0.32780  Biso   1.000  C
  C70      1.0000 0.27890  0.65460  0.67220  Biso   1.000  C
  C71      1.0000 0.87310  0.28190  0.17024  Biso   1.000  C
  C72      1.0000 0.12690  0.71810  0.82976  Biso   1.000  C
  C73      1.0000 0.92740  0.34080  0.11610  Biso   1.000  C
  C74      1.0000 0.07260  0.65920  0.88390  Biso   1.000  C
  C75      1.0000 0.04910  0.38710  0.15150  Biso   1.000  C
  C76      1.0000 0.95090  0.61290  0.84850  Biso   1.000  C
  C77      1.0000 0.11720  0.37550  0.24010  Biso   1.000  C
  C78      1.0000 0.88280  0.62450  0.75990  Biso   1.000  C
  C79      1.0000 0.06550  0.31960  0.29600  Biso   1.000  C
  C80      1.0000 0.93450  0.68040  0.70400  Biso   1.000  C
  C81      1.0000 0.94440  0.27230  0.26060  Biso   1.000  C
  C82      1.0000 0.05560  0.72770  0.73940  Biso   1.000  C
  H1       1.0000 0.39800  0.01200  0.47400  Biso   1.000  H
  H2       1.0000 0.60200  0.98800  0.52600  Biso   1.000  H
  H3       1.0000 0.44800  0.98100  0.57900  Biso   1.000  H
  H4       1.0000 0.55200  0.01900  0.42100  Biso   1.000  H
  H5       1.0000 0.38210  0.63320  0.31340  Biso   1.000  H
  H6       1.0000 0.61790  0.36680  0.68660  Biso   1.000  H
  H7       1.0000 0.49330  0.54590  0.38100  Biso   1.000  H
  H8       1.0000 0.50670  0.45410  0.61900  Biso   1.000  H
  H9       1.0000 0.61520  0.61760  0.56900  Biso   1.000  H
  H10      1.0000 0.38480  0.38240  0.43100  Biso   1.000  H
  H11      1.0000 0.62500  0.77470  0.68900  Biso   1.000  H
  H12      1.0000 0.37500  0.22530  0.31100  Biso   1.000  H
  H13      1.0000 0.51020  0.85940  0.62450  Biso   1.000  H
  H14      1.0000 0.48980  0.14060  0.37550  Biso   1.000  H
  H15      1.0000 0.16520  0.60380  0.34490  Biso   1.000  H
  H16      1.0000 0.83480  0.39620  0.65510  Biso   1.000  H
  H17      1.0000 0.99350  0.52950  0.36860  Biso   1.000  H
  H18      1.0000 0.00650  0.47050  0.63140  Biso   1.000  H
  H19      1.0000 0.94440  0.65070  0.46850  Biso   1.000  H
  H20      1.0000 0.05560  0.34930  0.53150  Biso   1.000  H
  H21      1.0000 0.06750  0.84660  0.54540  Biso   1.000  H
  H22      1.0000 0.93250  0.15340  0.45460  Biso   1.000  H
  H23      1.0000 0.24230  0.92330  0.52630  Biso   1.000  H
  H24      1.0000 0.75770  0.07670  0.47370  Biso   1.000  H
  H25      1.0000 0.90100  0.65900  0.20950  Biso   1.000  H
  H26      1.0000 0.09900  0.34100  0.79050  Biso   1.000  H
  H27      1.0000 0.85420  0.57080  0.08680  Biso   1.000  H
  H28      1.0000 0.14580  0.42920  0.91320  Biso   1.000  H
  H29      1.0000 0.86440  0.69570  0.10690  Biso   1.000  H
  H30      1.0000 0.13560  0.30430  0.89310  Biso   1.000  H
  H31      1.0000 0.55760  0.82910  0.28420  Biso   1.000  H
  H32      1.0000 0.44240  0.17090  0.71580  Biso   1.000  H
  H33      1.0000 0.67280  0.82330  0.44760  Biso   1.000  H
  H34      1.0000 0.32720  0.17670  0.55240  Biso   1.000  H
  H35      1.0000 0.86870  0.86680  0.49270  Biso   1.000  H
  H36      1.0000 0.13130  0.13320  0.50730  Biso   1.000  H
  H37      1.0000 0.95310  0.91920  0.37700  Biso   1.000  H
  H38      1.0000 0.04690  0.08080  0.62300  Biso   1.000  H
  H39      1.0000 0.84170  0.92880  0.21550  Biso   1.000  H
  H40      1.0000 0.15830  0.07120  0.78450  Biso   1.000  H
  H41      1.0000 0.56870  0.64840  0.07230  Biso   1.000  H
  H42      1.0000 0.43130  0.35160  0.92770  Biso   1.000  H
  H43      1.0000 0.59890  0.51330  0.96600  Biso   1.000  H
  H44      1.0000 0.40110  0.48670  0.03400  Biso   1.000  H
  H45      1.0000 0.66940  0.55120  0.83760  Biso   1.000  H
  H46      1.0000 0.33060  0.44880  0.16240  Biso   1.000  H
  H47      1.0000 0.72940  0.73130  0.83050  Biso   1.000  H
  H48      1.0000 0.27060  0.26870  0.16950  Biso   1.000  H
  H49      1.0000 0.68750  0.86400  0.92940  Biso   1.000  H
  H50      1.0000 0.31250  0.13600  0.07060  Biso   1.000  H
  H51      1.0000 0.58900  0.08100  0.15100  Biso   1.000  H
  H52      1.0000 0.41100  0.91900  0.84900  Biso   1.000  H
  H53      1.0000 0.71100  0.12200  0.23700  Biso   1.000  H
  H54      1.0000 0.28900  0.87800  0.76300  Biso   1.000  H
  H55      1.0000 0.75000  0.01600  0.10600  Biso   1.000  H
  H56      1.0000 0.25000  0.98400  0.89400  Biso   1.000  H
  H57      1.0000 0.64000  0.99300  0.01800  Biso   1.000  H
  H58      1.0000 0.36000  0.00700  0.98200  Biso   1.000  H
  H59      1.0000 0.67980  0.41780  0.11630  Biso   1.000  H
  H60      1.0000 0.32020  0.58220  0.88370  Biso   1.000  H
  H61      1.0000 0.67550  0.56740  0.23480  Biso   1.000  H
  H62      1.0000 0.32450  0.43260  0.76520  Biso   1.000  H
  H63      1.0000 0.69750  0.57640  0.41080  Biso   1.000  H
  H64      1.0000 0.30250  0.42360  0.58920  Biso   1.000  H
  H65      1.0000 0.72360  0.43660  0.46810  Biso   1.000  H
  H66      1.0000 0.27640  0.56340  0.53190  Biso   1.000  H
  H67      1.0000 0.73390  0.28960  0.35300  Biso   1.000  H
  H68      1.0000 0.26610  0.71040  0.64700  Biso   1.000  H
  H69      1.0000 0.88100  0.34970  0.05430  Biso   1.000  H
  H70      1.0000 0.11900  0.65030  0.94570  Biso   1.000  H
  H71      1.0000 0.08510  0.42720  0.11360  Biso   1.000  H
  H72      1.0000 0.91490  0.57280  0.88640  Biso   1.000  H
  H73      1.0000 0.20010  0.40600  0.26300  Biso   1.000  H
  H74      1.0000 0.79990  0.59400  0.73700  Biso   1.000  H
  H75      1.0000 0.11290  0.31340  0.35920  Biso   1.000  H
  H76      1.0000 0.88710  0.68660  0.64080  Biso   1.000  H
  H77      1.0000 0.90930  0.23240  0.29910  Biso   1.000  H
  H78      1.0000 0.09070  0.76760  0.70090  Biso   1.000  H
