data_image0
_cell_length_a       6.3104
_cell_length_b       9.2256
_cell_length_c       15.5046
_cell_angle_alpha    99.595
_cell_angle_beta     97.686
_cell_angle_gamma    106.295

_symmetry_space_group_name_H-M    "P 1"
_symmetry_int_tables_number       1

loop_
  _symmetry_equiv_pos_as_xyz
  'x, y, z'

loop_
  _atom_site_label
  _atom_site_occupancy
  _atom_site_fract_x
  _atom_site_fract_y
  _atom_site_fract_z
  _atom_site_thermal_displace_type
  _atom_site_B_iso_or_equiv
  _atom_site_type_symbol
  Br1      1.0000 0.38832  0.89233  0.19647  Biso   1.000  Br
  Br2      1.0000 0.61168  0.10767  0.80353  Biso   1.000  Br
  Br3      1.0000 0.75797  0.69118  0.08152  Biso   1.000  Br
  Br4      1.0000 0.24203  0.30882  0.91848  Biso   1.000  Br
  Cu1      1.0000 0.00917  0.88982  0.20802  Biso   1.000  Cu
  Cu2      1.0000 0.99083  0.11018  0.79198  Biso   1.000  Cu
  Cu3      1.0000 0.36458  0.66159  0.08472  Biso   1.000  Cu
  Cu4      1.0000 0.63542  0.33841  0.91528  Biso   1.000  Cu
  S1       1.0000 0.58524  0.50151  0.39421  Biso   1.000  S
  S2       1.0000 0.41476  0.49849  0.60579  Biso   1.000  S
  S3       1.0000 0.74600  0.83231  0.53220  Biso   1.000  S
  S4       1.0000 0.25400  0.16769  0.46780  Biso   1.000  S
  S5       1.0000 0.08150  0.73103  0.41282  Biso   1.000  S
  S6       1.0000 0.91850  0.26897  0.58718  Biso   1.000  S
  S7       1.0000 0.77705  0.08501  0.05406  Biso   1.000  S
  S8       1.0000 0.22295  0.91499  0.94594  Biso   1.000  S
  S9       1.0000 0.28279  0.27585  0.15948  Biso   1.000  S
  S10      1.0000 0.71721  0.72415  0.84052  Biso   1.000  S
  S11      1.0000 0.86594  0.26002  0.26285  Biso   1.000  S
  S12      1.0000 0.13406  0.73998  0.73715  Biso   1.000  S
  P1       1.0000 0.85959  0.64067  0.49505  Biso   1.000  P
  P2       1.0000 0.14041  0.35933  0.50495  Biso   1.000  P
  P3       1.0000 0.53279  0.65533  0.31466  Biso   1.000  P
  P4       1.0000 0.46721  0.34467  0.68534  Biso   1.000  P
  P5       1.0000 0.64822  0.88752  0.41028  Biso   1.000  P
  P6       1.0000 0.35178  0.11248  0.58972  Biso   1.000  P
  P7       1.0000 0.88021  0.81422  0.32820  Biso   1.000  P
  P8       1.0000 0.11979  0.18578  0.67180  Biso   1.000  P
  P9       1.0000 0.98703  0.11562  0.17645  Biso   1.000  P
  P10      1.0000 0.01297  0.88438  0.82355  Biso   1.000  P
  P11      1.0000 0.80357  0.31444  0.05122  Biso   1.000  P
  P12      1.0000 0.19643  0.68556  0.94878  Biso   1.000  P
  P13      1.0000 0.15052  0.44618  0.12267  Biso   1.000  P
  P14      1.0000 0.84948  0.55382  0.87733  Biso   1.000  P
  P15      1.0000 0.86289  0.43858  0.19545  Biso   1.000  P
  P16      1.0000 0.13711  0.56142  0.80455  Biso   1.000  P
