data_image0
_cell_length_a       9.4721
_cell_length_b       18.7795
_cell_length_c       11.7715
_cell_angle_alpha    90
_cell_angle_beta     109.293
_cell_angle_gamma    90

_symmetry_space_group_name_H-M    "P 1"
_symmetry_int_tables_number       1

loop_
  _symmetry_equiv_pos_as_xyz
  'x, y, z'

loop_
  _atom_site_label
  _atom_site_occupancy
  _atom_site_fract_x
  _atom_site_fract_y
  _atom_site_fract_z
  _atom_site_thermal_displace_type
  _atom_site_B_iso_or_equiv
  _atom_site_type_symbol
  I1       1.0000 0.52087  0.97749  0.82050  Biso   1.000  I
  I2       1.0000 0.47913  0.47749  0.67950  Biso   1.000  I
  I3       1.0000 0.47913  0.02251  0.17950  Biso   1.000  I
  I4       1.0000 0.52087  0.52251  0.32050  Biso   1.000  I
  Cu1      1.0000 0.34919  0.97352  0.95692  Biso   1.000  Cu
  Cu2      1.0000 0.65081  0.47352  0.54308  Biso   1.000  Cu
  Cu3      1.0000 0.65081  0.02648  0.04308  Biso   1.000  Cu
  Cu4      1.0000 0.34919  0.52648  0.45692  Biso   1.000  Cu
  S1       1.0000 0.13533  0.80803  0.86661  Biso   1.000  S
  S2       1.0000 0.86467  0.30803  0.63339  Biso   1.000  S
  S3       1.0000 0.86467  0.19197  0.13339  Biso   1.000  S
  S4       1.0000 0.13533  0.69197  0.36661  Biso   1.000  S
  S5       1.0000 0.33290  0.81395  0.14725  Biso   1.000  S
  S6       1.0000 0.66710  0.31395  0.35275  Biso   1.000  S
  S7       1.0000 0.66710  0.18605  0.85275  Biso   1.000  S
  S8       1.0000 0.33290  0.68605  0.64725  Biso   1.000  S
  S9       1.0000 0.49184  0.78906  0.94641  Biso   1.000  S
  S10      1.0000 0.50816  0.28906  0.55359  Biso   1.000  S
  S11      1.0000 0.50816  0.21094  0.05359  Biso   1.000  S
  S12      1.0000 0.49184  0.71094  0.44641  Biso   1.000  S
  P1       1.0000 0.33169  0.85423  0.98075  Biso   1.000  P
  P2       1.0000 0.66831  0.35423  0.51925  Biso   1.000  P
  P3       1.0000 0.66831  0.14577  0.01925  Biso   1.000  P
  P4       1.0000 0.33169  0.64577  0.48075  Biso   1.000  P
  P5       1.0000 0.16749  0.70024  0.91487  Biso   1.000  P
  P6       1.0000 0.83251  0.20024  0.58513  Biso   1.000  P
  P7       1.0000 0.83251  0.29976  0.08513  Biso   1.000  P
  P8       1.0000 0.16749  0.79976  0.41487  Biso   1.000  P
  P9       1.0000 0.30481  0.70426  0.11133  Biso   1.000  P
  P10      1.0000 0.69519  0.20426  0.38867  Biso   1.000  P
  P11      1.0000 0.69519  0.29574  0.88867  Biso   1.000  P
  P12      1.0000 0.30481  0.79574  0.61133  Biso   1.000  P
  P13      1.0000 0.41669  0.68784  0.97322  Biso   1.000  P
  P14      1.0000 0.58331  0.18784  0.52678  Biso   1.000  P
  P15      1.0000 0.58331  0.31216  0.02678  Biso   1.000  P
  P16      1.0000 0.41669  0.81216  0.47322  Biso   1.000  P
  P17      1.0000 0.13202  0.03463  0.88420  Biso   1.000  P
  P18      1.0000 0.86798  0.53463  0.61580  Biso   1.000  P
  P19      1.0000 0.86798  0.96537  0.11580  Biso   1.000  P
  P20      1.0000 0.13202  0.46537  0.38420  Biso   1.000  P
  C1       1.0000 0.02480  0.03719  0.98910  Biso   1.000  C
  C2       1.0000 0.97520  0.53719  0.51090  Biso   1.000  C
  C3       1.0000 0.97520  0.96281  0.01090  Biso   1.000  C
  C4       1.0000 0.02480  0.46281  0.48910  Biso   1.000  C
  C5       1.0000 0.99500  0.00377  0.74330  Biso   1.000  C
  C6       1.0000 0.00500  0.50377  0.75670  Biso   1.000  C
  C7       1.0000 0.00500  0.99623  0.25670  Biso   1.000  C
  C8       1.0000 0.99500  0.49623  0.24330  Biso   1.000  C
  C9       1.0000 0.04080  0.95770  0.66990  Biso   1.000  C
  C10      1.0000 0.95920  0.45770  0.83010  Biso   1.000  C
  C11      1.0000 0.95920  0.04230  0.33010  Biso   1.000  C
  C12      1.0000 0.04080  0.54230  0.16990  Biso   1.000  C
  C13      1.0000 0.93950  0.93435  0.56180  Biso   1.000  C
  C14      1.0000 0.06050  0.43435  0.93820  Biso   1.000  C
  C15      1.0000 0.06050  0.06565  0.43820  Biso   1.000  C
  C16      1.0000 0.93950  0.56565  0.06180  Biso   1.000  C
  C17      1.0000 0.79130  0.95479  0.52830  Biso   1.000  C
  C18      1.0000 0.20870  0.45479  0.97170  Biso   1.000  C
  C19      1.0000 0.20870  0.04521  0.47170  Biso   1.000  C
  C20      1.0000 0.79130  0.54521  0.02830  Biso   1.000  C
  C21      1.0000 0.74470  0.00027  0.60090  Biso   1.000  C
  C22      1.0000 0.25530  0.50027  0.89910  Biso   1.000  C
  C23      1.0000 0.25530  0.99973  0.39910  Biso   1.000  C
  C24      1.0000 0.74470  0.49973  0.10090  Biso   1.000  C
  C25      1.0000 0.84600  0.02532  0.70740  Biso   1.000  C
  C26      1.0000 0.15400  0.52532  0.79260  Biso   1.000  C
  C27      1.0000 0.15400  0.97468  0.29260  Biso   1.000  C
  C28      1.0000 0.84600  0.47468  0.20740  Biso   1.000  C
  C29      1.0000 0.15670  0.12824  0.85390  Biso   1.000  C
  C30      1.0000 0.84330  0.62824  0.64610  Biso   1.000  C
  C31      1.0000 0.84330  0.87176  0.14610  Biso   1.000  C
  C32      1.0000 0.15670  0.37176  0.35390  Biso   1.000  C
  C33      1.0000 0.11330  0.18425  0.91200  Biso   1.000  C
  C34      1.0000 0.88670  0.68425  0.58800  Biso   1.000  C
  C35      1.0000 0.88670  0.81575  0.08800  Biso   1.000  C
  C36      1.0000 0.11330  0.31575  0.41200  Biso   1.000  C
  C37      1.0000 0.13890  0.25407  0.88590  Biso   1.000  C
  C38      1.0000 0.86110  0.75407  0.61410  Biso   1.000  C
  C39      1.0000 0.86110  0.74593  0.11410  Biso   1.000  C
  C40      1.0000 0.13890  0.24593  0.38590  Biso   1.000  C
  C41      1.0000 0.20800  0.26906  0.80190  Biso   1.000  C
  C42      1.0000 0.79200  0.76906  0.69810  Biso   1.000  C
  C43      1.0000 0.79200  0.73094  0.19810  Biso   1.000  C
  C44      1.0000 0.20800  0.23094  0.30190  Biso   1.000  C
  C45      1.0000 0.25220  0.21405  0.74460  Biso   1.000  C
  C46      1.0000 0.74780  0.71405  0.75540  Biso   1.000  C
  C47      1.0000 0.74780  0.78595  0.25540  Biso   1.000  C
  C48      1.0000 0.25220  0.28595  0.24460  Biso   1.000  C
  C49      1.0000 0.22820  0.14381  0.77040  Biso   1.000  C
  C50      1.0000 0.77180  0.64381  0.72960  Biso   1.000  C
  C51      1.0000 0.77180  0.85619  0.22960  Biso   1.000  C
  C52      1.0000 0.22820  0.35619  0.27040  Biso   1.000  C
  H1       1.0000 0.08740  0.05810  0.06650  Biso   1.000  H
  H2       1.0000 0.91260  0.55810  0.43350  Biso   1.000  H
  H3       1.0000 0.91260  0.94190  0.93350  Biso   1.000  H
  H4       1.0000 0.08740  0.44190  0.56650  Biso   1.000  H
  H5       1.0000 0.93570  0.06790  0.95540  Biso   1.000  H
  H6       1.0000 0.06430  0.56790  0.54460  Biso   1.000  H
  H7       1.0000 0.06430  0.93210  0.04460  Biso   1.000  H
  H8       1.0000 0.93570  0.43210  0.45540  Biso   1.000  H
  H9       1.0000 0.14180  0.94220  0.69380  Biso   1.000  H
  H10      1.0000 0.85820  0.44220  0.80620  Biso   1.000  H
  H11      1.0000 0.85820  0.05780  0.30620  Biso   1.000  H
  H12      1.0000 0.14180  0.55780  0.19380  Biso   1.000  H
  H13      1.0000 0.97220  0.90420  0.51060  Biso   1.000  H
  H14      1.0000 0.02780  0.40420  0.98940  Biso   1.000  H
  H15      1.0000 0.02780  0.09580  0.48940  Biso   1.000  H
  H16      1.0000 0.97220  0.59580  0.01060  Biso   1.000  H
  H17      1.0000 0.72150  0.93760  0.45540  Biso   1.000  H
  H18      1.0000 0.27850  0.43760  0.04460  Biso   1.000  H
  H19      1.0000 0.27850  0.06240  0.54460  Biso   1.000  H
  H20      1.0000 0.72150  0.56240  0.95540  Biso   1.000  H
  H21      1.0000 0.64290  0.01450  0.57770  Biso   1.000  H
  H22      1.0000 0.35710  0.51450  0.92230  Biso   1.000  H
  H23      1.0000 0.35710  0.98550  0.42230  Biso   1.000  H
  H24      1.0000 0.64290  0.48550  0.07770  Biso   1.000  H
  H25      1.0000 0.81360  0.05740  0.75620  Biso   1.000  H
  H26      1.0000 0.18640  0.55740  0.74380  Biso   1.000  H
  H27      1.0000 0.18640  0.94260  0.24380  Biso   1.000  H
  H28      1.0000 0.81360  0.44260  0.25620  Biso   1.000  H
  H29      1.0000 0.06570  0.17470  0.97000  Biso   1.000  H
  H30      1.0000 0.93430  0.67470  0.53000  Biso   1.000  H
  H31      1.0000 0.93430  0.82530  0.03000  Biso   1.000  H
  H32      1.0000 0.06570  0.32530  0.47000  Biso   1.000  H
  H33      1.0000 0.10880  0.29200  0.92620  Biso   1.000  H
  H34      1.0000 0.89120  0.79200  0.57380  Biso   1.000  H
  H35      1.0000 0.89120  0.70800  0.07380  Biso   1.000  H
  H36      1.0000 0.10880  0.20800  0.42620  Biso   1.000  H
  H37      1.0000 0.22480  0.31700  0.78410  Biso   1.000  H
  H38      1.0000 0.77520  0.81700  0.71590  Biso   1.000  H
  H39      1.0000 0.77520  0.68300  0.21590  Biso   1.000  H
  H40      1.0000 0.22480  0.18300  0.28410  Biso   1.000  H
  H41      1.0000 0.29960  0.22410  0.68680  Biso   1.000  H
  H42      1.0000 0.70040  0.72410  0.81320  Biso   1.000  H
  H43      1.0000 0.70040  0.77590  0.31320  Biso   1.000  H
  H44      1.0000 0.29960  0.27590  0.18680  Biso   1.000  H
  H45      1.0000 0.26060  0.10620  0.73100  Biso   1.000  H
  H46      1.0000 0.73940  0.60620  0.76900  Biso   1.000  H
  H47      1.0000 0.73940  0.89380  0.26900  Biso   1.000  H
  H48      1.0000 0.26060  0.39380  0.23100  Biso   1.000  H
