data_image0
_cell_length_a       9.7221
_cell_length_b       13.3548
_cell_length_c       14.1771
_cell_angle_alpha    66.767
_cell_angle_beta     82.514
_cell_angle_gamma    87.967

_symmetry_space_group_name_H-M    "P 1"
_symmetry_int_tables_number       1

loop_
  _symmetry_equiv_pos_as_xyz
  'x, y, z'

loop_
  _atom_site_label
  _atom_site_occupancy
  _atom_site_fract_x
  _atom_site_fract_y
  _atom_site_fract_z
  _atom_site_thermal_displace_type
  _atom_site_B_iso_or_equiv
  _atom_site_type_symbol
  I1       1.0000 0.74789  0.25764  0.23332  Biso   1.000  I
  I2       1.0000 0.25211  0.74236  0.76668  Biso   1.000  I
  I3       1.0000 0.73566  0.44250  0.41844  Biso   1.000  I
  I4       1.0000 0.26434  0.55750  0.58156  Biso   1.000  I
  Cu1      1.0000 0.87420  0.41384  0.26056  Biso   1.000  Cu
  Cu2      1.0000 0.12580  0.58616  0.73944  Biso   1.000  Cu
  Cu3      1.0000 0.61957  0.27465  0.40231  Biso   1.000  Cu
  Cu4      1.0000 0.38043  0.72535  0.59769  Biso   1.000  Cu
  S1       1.0000 0.28599  0.29710  0.52141  Biso   1.000  S
  S2       1.0000 0.71401  0.70290  0.47859  Biso   1.000  S
  S3       1.0000 0.37785  0.51514  0.31946  Biso   1.000  S
  S4       1.0000 0.62215  0.48486  0.68054  Biso   1.000  S
  S5       1.0000 0.26964  0.30433  0.29197  Biso   1.000  S
  S6       1.0000 0.73036  0.69567  0.70803  Biso   1.000  S
  P1       1.0000 0.40501  0.34556  0.37614  Biso   1.000  P
  P2       1.0000 0.59499  0.65444  0.62386  Biso   1.000  P
  P3       1.0000 0.08677  0.37893  0.32667  Biso   1.000  P
  P4       1.0000 0.91323  0.62107  0.67333  Biso   1.000  P
  P5       1.0000 0.09751  0.37502  0.48524  Biso   1.000  P
  P6       1.0000 0.90249  0.62498  0.51476  Biso   1.000  P
  P7       1.0000 0.16173  0.52638  0.34538  Biso   1.000  P
  P8       1.0000 0.83827  0.47362  0.65462  Biso   1.000  P
  P9       1.0000 0.62224  0.11424  0.54115  Biso   1.000  P
  P10      1.0000 0.37776  0.88576  0.45885  Biso   1.000  P
  P11      1.0000 0.91553  0.56736  0.11600  Biso   1.000  P
  P12      1.0000 0.08447  0.43264  0.88400  Biso   1.000  P
  C1       1.0000 0.57080  0.99430  0.52000  Biso   1.000  C
  C2       1.0000 0.42920  0.00570  0.48000  Biso   1.000  C
  C3       1.0000 0.79180  0.07210  0.58310  Biso   1.000  C
  C4       1.0000 0.20820  0.92790  0.41690  Biso   1.000  C
  C5       1.0000 0.80510  0.98300  0.67520  Biso   1.000  C
  C6       1.0000 0.19490  0.01700  0.32480  Biso   1.000  C
  C7       1.0000 0.93600  0.94960  0.70460  Biso   1.000  C
  C8       1.0000 0.06400  0.05040  0.29540  Biso   1.000  C
  C9       1.0000 0.05310  0.00590  0.64180  Biso   1.000  C
  C10      1.0000 0.94690  0.99410  0.35820  Biso   1.000  C
  C11      1.0000 0.04090  0.09270  0.54930  Biso   1.000  C
  C12      1.0000 0.95910  0.90730  0.45070  Biso   1.000  C
  C13      1.0000 0.91000  0.12660  0.52030  Biso   1.000  C
  C14      1.0000 0.09000  0.87340  0.47970  Biso   1.000  C
  C15      1.0000 0.51830  0.10580  0.66100  Biso   1.000  C
  C16      1.0000 0.48170  0.89420  0.33900  Biso   1.000  C
  C17      1.0000 0.43110  0.01760  0.72330  Biso   1.000  C
  C18      1.0000 0.56890  0.98240  0.27670  Biso   1.000  C
  C19      1.0000 0.35550  0.01600  0.81430  Biso   1.000  C
  C20      1.0000 0.64450  0.98400  0.18570  Biso   1.000  C
  C21      1.0000 0.36710  0.10240  0.84380  Biso   1.000  C
  C22      1.0000 0.63290  0.89760  0.15620  Biso   1.000  C
  C23      1.0000 0.45350  0.18990  0.78280  Biso   1.000  C
  C24      1.0000 0.54650  0.81010  0.21720  Biso   1.000  C
  C25      1.0000 0.52880  0.19240  0.69150  Biso   1.000  C
  C26      1.0000 0.47120  0.80760  0.30850  Biso   1.000  C
  C27      1.0000 0.03070  0.54360  0.01370  Biso   1.000  C
  C28      1.0000 0.96930  0.45640  0.98630  Biso   1.000  C
  C29      1.0000 0.76660  0.63560  0.05250  Biso   1.000  C
  C30      1.0000 0.23340  0.36440  0.94750  Biso   1.000  C
  C31      1.0000 0.77030  0.74520  0.98690  Biso   1.000  C
  C32      1.0000 0.22970  0.25480  0.01310  Biso   1.000  C
  C33      1.0000 0.65470  0.79470  0.94110  Biso   1.000  C
  C34      1.0000 0.34530  0.20530  0.05890  Biso   1.000  C
  C35      1.0000 0.53420  0.73410  0.95860  Biso   1.000  C
  C36      1.0000 0.46580  0.26590  0.04140  Biso   1.000  C
  C37      1.0000 0.52950  0.62500  0.02390  Biso   1.000  C
  C38      1.0000 0.47050  0.37500  0.97610  Biso   1.000  C
  C39      1.0000 0.64410  0.57570  0.07160  Biso   1.000  C
  C40      1.0000 0.35590  0.42430  0.92840  Biso   1.000  C
  C41      1.0000 0.00260  0.67630  0.13330  Biso   1.000  C
  C42      1.0000 0.99740  0.32370  0.86670  Biso   1.000  C
  C43      1.0000 0.13790  0.71130  0.09010  Biso   1.000  C
  C44      1.0000 0.86210  0.28870  0.90990  Biso   1.000  C
  C45      1.0000 0.20270  0.78870  0.11390  Biso   1.000  C
  C46      1.0000 0.79730  0.21130  0.88610  Biso   1.000  C
  C47      1.0000 0.13060  0.83180  0.17980  Biso   1.000  C
  C48      1.0000 0.86940  0.16820  0.82020  Biso   1.000  C
  C49      1.0000 0.99480  0.79900  0.22190  Biso   1.000  C
  C50      1.0000 0.00520  0.20100  0.77810  Biso   1.000  C
  C51      1.0000 0.93110  0.72080  0.19960  Biso   1.000  C
  C52      1.0000 0.06890  0.27920  0.80040  Biso   1.000  C
  H1       1.0000 0.64230  0.98180  0.46960  Biso   1.000  H
  H2       1.0000 0.35770  0.01820  0.53040  Biso   1.000  H
  H3       1.0000 0.56750  0.92960  0.58600  Biso   1.000  H
  H4       1.0000 0.43250  0.07040  0.41400  Biso   1.000  H
  H5       1.0000 0.72450  0.94490  0.71810  Biso   1.000  H
  H6       1.0000 0.27550  0.05510  0.28190  Biso   1.000  H
  H7       1.0000 0.94490  0.88870  0.76720  Biso   1.000  H
  H8       1.0000 0.05510  0.11130  0.23280  Biso   1.000  H
  H9       1.0000 0.14240  0.98460  0.66250  Biso   1.000  H
  H10      1.0000 0.85760  0.01540  0.33750  Biso   1.000  H
  H11      1.0000 0.12170  0.12930  0.50550  Biso   1.000  H
  H12      1.0000 0.87830  0.87070  0.49450  Biso   1.000  H
  H13      1.0000 0.90170  0.18720  0.45730  Biso   1.000  H
  H14      1.0000 0.09830  0.81280  0.54270  Biso   1.000  H
  H15      1.0000 0.42330  0.95810  0.70360  Biso   1.000  H
  H16      1.0000 0.57670  0.04190  0.29640  Biso   1.000  H
  H17      1.0000 0.29590  0.95580  0.85610  Biso   1.000  H
  H18      1.0000 0.70410  0.04420  0.14390  Biso   1.000  H
  H19      1.0000 0.31560  0.10130  0.90600  Biso   1.000  H
  H20      1.0000 0.68440  0.89870  0.09400  Biso   1.000  H
  H21      1.0000 0.46170  0.24890  0.80330  Biso   1.000  H
  H22      1.0000 0.53830  0.75110  0.19670  Biso   1.000  H
  H23      1.0000 0.58760  0.25320  0.64970  Biso   1.000  H
  H24      1.0000 0.41240  0.74680  0.35030  Biso   1.000  H
  H25      1.0000 0.04460  0.61240  0.95140  Biso   1.000  H
  H26      1.0000 0.95540  0.38760  0.04860  Biso   1.000  H
  H27      1.0000 0.12240  0.52000  0.03740  Biso   1.000  H
  H28      1.0000 0.87760  0.48000  0.96260  Biso   1.000  H
  H29      1.0000 0.85320  0.78680  0.97320  Biso   1.000  H
  H30      1.0000 0.14680  0.21320  0.02680  Biso   1.000  H
  H31      1.0000 0.65800  0.87020  0.89770  Biso   1.000  H
  H32      1.0000 0.34200  0.12980  0.10230  Biso   1.000  H
  H33      1.0000 0.45550  0.76720  0.92610  Biso   1.000  H
  H34      1.0000 0.54450  0.23280  0.07390  Biso   1.000  H
  H35      1.0000 0.44690  0.58330  0.03610  Biso   1.000  H
  H36      1.0000 0.55310  0.41670  0.96390  Biso   1.000  H
  H37      1.0000 0.63910  0.50100  0.11740  Biso   1.000  H
  H38      1.0000 0.36090  0.49900  0.88260  Biso   1.000  H
  H39      1.0000 0.18670  0.68240  0.04410  Biso   1.000  H
  H40      1.0000 0.81330  0.31760  0.95590  Biso   1.000  H
  H41      1.0000 0.29570  0.81160  0.08510  Biso   1.000  H
  H42      1.0000 0.70430  0.18840  0.91490  Biso   1.000  H
  H43      1.0000 0.17450  0.88430  0.19620  Biso   1.000  H
  H44      1.0000 0.82550  0.11570  0.80380  Biso   1.000  H
  H45      1.0000 0.94530  0.82990  0.26590  Biso   1.000  H
  H46      1.0000 0.05470  0.17010  0.73410  Biso   1.000  H
  H47      1.0000 0.83860  0.69730  0.22950  Biso   1.000  H
  H48      1.0000 0.16140  0.30270  0.77050  Biso   1.000  H
