data_image0
_cell_length_a       9.6842
_cell_length_b       13.2636
_cell_length_c       14.0701
_cell_angle_alpha    66.352
_cell_angle_beta     83.362
_cell_angle_gamma    89.38

_symmetry_space_group_name_H-M    "P 1"
_symmetry_int_tables_number       1

loop_
  _symmetry_equiv_pos_as_xyz
  'x, y, z'

loop_
  _atom_site_label
  _atom_site_occupancy
  _atom_site_fract_x
  _atom_site_fract_y
  _atom_site_fract_z
  _atom_site_thermal_displace_type
  _atom_site_B_iso_or_equiv
  _atom_site_type_symbol
  Br1      1.0000 0.74398  0.06816  0.08272  Biso   1.000  Br
  Br2      1.0000 0.25602  0.93184  0.91728  Biso   1.000  Br
  Br3      1.0000 0.75042  0.23477  0.25316  Biso   1.000  Br
  Br4      1.0000 0.24958  0.76523  0.74684  Biso   1.000  Br
  Cu1      1.0000 0.87137  0.22604  0.08990  Biso   1.000  Cu
  Cu2      1.0000 0.12863  0.77396  0.91010  Biso   1.000  Cu
  Cu3      1.0000 0.61832  0.08299  0.23817  Biso   1.000  Cu
  Cu4      1.0000 0.38168  0.91701  0.76183  Biso   1.000  Cu
  S1       1.0000 0.21746  0.18919  0.20372  Biso   1.000  S
  S2       1.0000 0.78254  0.81081  0.79628  Biso   1.000  S
  S3       1.0000 0.10441  0.97824  0.17282  Biso   1.000  S
  S4       1.0000 0.89559  0.02176  0.82718  Biso   1.000  S
  S5       1.0000 0.20627  0.19749  0.97161  Biso   1.000  S
  S6       1.0000 0.79373  0.80251  0.02839  Biso   1.000  S
  P1       1.0000 0.58292  0.92980  0.38604  Biso   1.000  P
  P2       1.0000 0.41708  0.07020  0.61396  Biso   1.000  P
  P3       1.0000 0.87293  0.39072  0.95251  Biso   1.000  P
  P4       1.0000 0.12707  0.60928  0.04749  Biso   1.000  P
  P5       1.0000 0.08289  0.14933  0.11570  Biso   1.000  P
  P6       1.0000 0.91711  0.85067  0.88430  Biso   1.000  P
  P7       1.0000 0.39934  0.11390  0.17323  Biso   1.000  P
  P8       1.0000 0.60066  0.88610  0.82677  Biso   1.000  P
  P9       1.0000 0.32098  0.96605  0.15313  Biso   1.000  P
  P10      1.0000 0.67902  0.03395  0.84687  Biso   1.000  P
  P11      1.0000 0.39184  0.11828  0.01314  Biso   1.000  P
  P12      1.0000 0.60816  0.88172  0.98686  Biso   1.000  P
  C1       1.0000 0.47030  0.95301  0.48913  Biso   1.000  C
  C2       1.0000 0.52970  0.04699  0.51087  Biso   1.000  C
  C3       1.0000 0.73640  0.86724  0.44748  Biso   1.000  C
  C4       1.0000 0.26360  0.13276  0.55252  Biso   1.000  C
  C5       1.0000 0.73690  0.75690  0.51481  Biso   1.000  C
  C6       1.0000 0.26310  0.24310  0.48519  Biso   1.000  C
  C7       1.0000 0.85620  0.71180  0.55890  Biso   1.000  C
  C8       1.0000 0.14380  0.28820  0.44110  Biso   1.000  C
  C9       1.0000 0.97500  0.77690  0.53710  Biso   1.000  C
  C10      1.0000 0.02500  0.22310  0.46290  Biso   1.000  C
  C11      1.0000 0.97610  0.88550  0.46910  Biso   1.000  C
  C12      1.0000 0.02390  0.11450  0.53090  Biso   1.000  C
  C13      1.0000 0.85760  0.93040  0.42370  Biso   1.000  C
  C14      1.0000 0.14240  0.06960  0.57630  Biso   1.000  C
  C15      1.0000 0.49690  0.81651  0.37200  Biso   1.000  C
  C16      1.0000 0.50310  0.18349  0.62800  Biso   1.000  C
  C17      1.0000 0.36460  0.77490  0.41930  Biso   1.000  C
  C18      1.0000 0.63540  0.22510  0.58070  Biso   1.000  C
  C19      1.0000 0.30170  0.69360  0.39840  Biso   1.000  C
  C20      1.0000 0.69830  0.30640  0.60160  Biso   1.000  C
  C21      1.0000 0.37200  0.65250  0.33140  Biso   1.000  C
  C22      1.0000 0.62800  0.34750  0.66860  Biso   1.000  C
  C23      1.0000 0.50400  0.69280  0.28450  Biso   1.000  C
  C24      1.0000 0.49600  0.30720  0.71550  Biso   1.000  C
  C25      1.0000 0.56540  0.77540  0.30310  Biso   1.000  C
  C26      1.0000 0.43460  0.22460  0.69690  Biso   1.000  C
  C27      1.0000 0.92921  0.50763  0.97889  Biso   1.000  C
  C28      1.0000 0.07079  0.49237  0.02111  Biso   1.000  C
  C29      1.0000 0.70393  0.43538  0.90935  Biso   1.000  C
  C30      1.0000 0.29607  0.56462  0.09065  Biso   1.000  C
  C31      1.0000 0.58430  0.37691  0.96887  Biso   1.000  C
  C32      1.0000 0.41570  0.62309  0.03113  Biso   1.000  C
  C33      1.0000 0.45450  0.41340  0.94010  Biso   1.000  C
  C34      1.0000 0.54550  0.58660  0.05990  Biso   1.000  C
  C35      1.0000 0.44380  0.50690  0.85190  Biso   1.000  C
  C36      1.0000 0.55620  0.49310  0.14810  Biso   1.000  C
  C37      1.0000 0.56170  0.56660  0.79240  Biso   1.000  C
  C38      1.0000 0.43830  0.43340  0.20760  Biso   1.000  C
  C39      1.0000 0.69160  0.53120  0.82105  Biso   1.000  C
  C40      1.0000 0.30840  0.46880  0.17895  Biso   1.000  C
  C41      1.0000 0.97880  0.40366  0.83186  Biso   1.000  C
  C42      1.0000 0.02120  0.59634  0.16814  Biso   1.000  C
  C43      1.0000 0.96660  0.31870  0.79871  Biso   1.000  C
  C44      1.0000 0.03340  0.68130  0.20129  Biso   1.000  C
  C45      1.0000 0.04370  0.32280  0.70790  Biso   1.000  C
  C46      1.0000 0.95630  0.67720  0.29210  Biso   1.000  C
  C47      1.0000 0.13420  0.41080  0.65020  Biso   1.000  C
  C48      1.0000 0.86580  0.58920  0.34980  Biso   1.000  C
  C49      1.0000 0.14840  0.49460  0.68250  Biso   1.000  C
  C50      1.0000 0.85160  0.50540  0.31750  Biso   1.000  C
  C51      1.0000 0.07040  0.49190  0.77251  Biso   1.000  C
  C52      1.0000 0.92960  0.50810  0.22749  Biso   1.000  C
  H1       1.0000 0.46160  0.88610  0.55260  Biso   1.000  H
  H2       1.0000 0.53840  0.11390  0.44740  Biso   1.000  H
  H3       1.0000 0.37820  0.97080  0.46780  Biso   1.000  H
  H4       1.0000 0.62180  0.02920  0.53220  Biso   1.000  H
  H5       1.0000 0.65650  0.71280  0.53060  Biso   1.000  H
  H6       1.0000 0.34350  0.28720  0.46940  Biso   1.000  H
  H7       1.0000 0.85570  0.63760  0.60320  Biso   1.000  H
  H8       1.0000 0.14430  0.36240  0.39680  Biso   1.000  H
  H9       1.0000 0.05420  0.74760  0.56820  Biso   1.000  H
  H10      1.0000 0.94580  0.25240  0.43180  Biso   1.000  H
  H11      1.0000 0.05680  0.92930  0.45330  Biso   1.000  H
  H12      1.0000 0.94320  0.07070  0.54670  Biso   1.000  H
  H13      1.0000 0.86010  0.00380  0.37680  Biso   1.000  H
  H14      1.0000 0.13990  0.99620  0.62320  Biso   1.000  H
  H15      1.0000 0.31750  0.80150  0.46540  Biso   1.000  H
  H16      1.0000 0.68250  0.19850  0.53460  Biso   1.000  H
  H17      1.0000 0.21210  0.66690  0.42950  Biso   1.000  H
  H18      1.0000 0.78790  0.33310  0.57050  Biso   1.000  H
  H19      1.0000 0.33010  0.59760  0.31800  Biso   1.000  H
  H20      1.0000 0.66990  0.40240  0.68200  Biso   1.000  H
  H21      1.0000 0.55190  0.66430  0.24010  Biso   1.000  H
  H22      1.0000 0.44810  0.33570  0.75990  Biso   1.000  H
  H23      1.0000 0.65340  0.80400  0.26930  Biso   1.000  H
  H24      1.0000 0.34660  0.19600  0.73070  Biso   1.000  H
  H25      1.0000 0.93480  0.57380  0.91480  Biso   1.000  H
  H26      1.0000 0.06520  0.42620  0.08520  Biso   1.000  H
  H27      1.0000 0.85980  0.51800  0.02930  Biso   1.000  H
  H28      1.0000 0.14020  0.48200  0.97070  Biso   1.000  H
  H29      1.0000 0.59100  0.31300  0.02830  Biso   1.000  H
  H30      1.0000 0.40900  0.68700  0.97170  Biso   1.000  H
  H31      1.0000 0.37450  0.37440  0.98080  Biso   1.000  H
  H32      1.0000 0.62550  0.62560  0.01920  Biso   1.000  H
  H33      1.0000 0.35660  0.53010  0.83210  Biso   1.000  H
  H34      1.0000 0.64340  0.46990  0.16790  Biso   1.000  H
  H35      1.0000 0.55410  0.63050  0.73320  Biso   1.000  H
  H36      1.0000 0.44590  0.36950  0.26680  Biso   1.000  H
  H37      1.0000 0.77120  0.57170  0.78100  Biso   1.000  H
  H38      1.0000 0.22880  0.42830  0.21900  Biso   1.000  H
  H39      1.0000 0.90600  0.25870  0.83790  Biso   1.000  H
  H40      1.0000 0.09400  0.74130  0.16210  Biso   1.000  H
  H41      1.0000 0.03420  0.26600  0.68610  Biso   1.000  H
  H42      1.0000 0.96580  0.73400  0.31390  Biso   1.000  H
  H43      1.0000 0.18590  0.41360  0.58910  Biso   1.000  H
  H44      1.0000 0.81410  0.58640  0.41090  Biso   1.000  H
  H45      1.0000 0.21090  0.55350  0.64380  Biso   1.000  H
  H46      1.0000 0.78910  0.44650  0.35620  Biso   1.000  H
  H47      1.0000 0.07950  0.54960  0.79320  Biso   1.000  H
  H48      1.0000 0.92050  0.45040  0.20680  Biso   1.000  H
