data_image0
_cell_length_a       9.2102
_cell_length_b       9.2878
_cell_length_c       12.557
_cell_angle_alpha    106.429
_cell_angle_beta     108.915
_cell_angle_gamma    94.939

_symmetry_space_group_name_H-M    "P 1"
_symmetry_int_tables_number       1

loop_
  _symmetry_equiv_pos_as_xyz
  'x, y, z'

loop_
  _atom_site_label
  _atom_site_occupancy
  _atom_site_fract_x
  _atom_site_fract_y
  _atom_site_fract_z
  _atom_site_thermal_displace_type
  _atom_site_B_iso_or_equiv
  _atom_site_type_symbol
  Br1      1.0000 0.87333  0.72226  0.59913  Biso   1.000  Br
  Br2      1.0000 0.12667  0.27774  0.40087  Biso   1.000  Br
  Br3      1.0000 0.87594  0.44567  0.79769  Biso   1.000  Br
  Br4      1.0000 0.12406  0.55433  0.20231  Biso   1.000  Br
  Br5      1.0000 0.09914  0.14764  0.66868  Biso   1.000  Br
  Br6      1.0000 0.90086  0.85236  0.33132  Biso   1.000  Br
  Cu1      1.0000 0.80128  0.67610  0.76065  Biso   1.000  Cu
  Cu2      1.0000 0.19872  0.32390  0.23935  Biso   1.000  Cu
  Cu3      1.0000 0.98606  0.37401  0.64367  Biso   1.000  Cu
  Cu4      1.0000 0.01394  0.62599  0.35633  Biso   1.000  Cu
  Cu5      1.0000 0.87111  0.94816  0.52951  Biso   1.000  Cu
  Cu6      1.0000 0.12889  0.05184  0.47049  Biso   1.000  Cu
  S1       1.0000 0.42338  0.67097  0.53705  Biso   1.000  S
  S2       1.0000 0.57662  0.32903  0.46295  Biso   1.000  S
  S3       1.0000 0.40663  0.49096  0.71988  Biso   1.000  S
  S4       1.0000 0.59337  0.50904  0.28012  Biso   1.000  S
  S5       1.0000 0.49062  0.86202  0.81204  Biso   1.000  S
  S6       1.0000 0.50938  0.13798  0.18796  Biso   1.000  S
  P1       1.0000 0.54905  0.66991  0.70937  Biso   1.000  P
  P2       1.0000 0.45095  0.33009  0.29063  Biso   1.000  P
  P3       1.0000 0.20081  0.68000  0.54415  Biso   1.000  P
  P4       1.0000 0.79919  0.32000  0.45585  Biso   1.000  P
  P5       1.0000 0.19019  0.55695  0.67014  Biso   1.000  P
  P6       1.0000 0.80981  0.44305  0.32986  Biso   1.000  P
  P7       1.0000 0.24423  0.81597  0.73665  Biso   1.000  P
  P8       1.0000 0.75577  0.18403  0.26335  Biso   1.000  P
  N1       1.0000 0.92890  0.86590  0.90340  Biso   1.000  N
  N2       1.0000 0.07110  0.13410  0.09660  Biso   1.000  N
  N3       1.0000 0.65480  0.98680  0.51050  Biso   1.000  N
  N4       1.0000 0.34520  0.01320  0.48950  Biso   1.000  N
  C1       1.0000 0.96690  0.99870  0.88760  Biso   1.000  C
  C2       1.0000 0.03310  0.00130  0.11240  Biso   1.000  C
  C3       1.0000 0.96320  0.86720  0.01550  Biso   1.000  C
  C4       1.0000 0.03680  0.13280  0.98450  Biso   1.000  C
  C5       1.0000 0.53420  0.92510  0.40610  Biso   1.000  C
  C6       1.0000 0.46580  0.07490  0.59390  Biso   1.000  C
  C7       1.0000 0.61890  0.06260  0.60400  Biso   1.000  C
  C8       1.0000 0.38110  0.93740  0.39600  Biso   1.000  C
  C9       1.0000 0.41170  0.61310  0.01630  Biso   1.000  C
  C10      1.0000 0.58830  0.38690  0.98370  Biso   1.000  C
  C11      1.0000 0.34320  0.45720  0.97220  Biso   1.000  C
  C12      1.0000 0.65680  0.54280  0.02780  Biso   1.000  C
  C13      1.0000 0.57200  0.65400  0.04370  Biso   1.000  C
  C14      1.0000 0.42800  0.34600  0.95630  Biso   1.000  C
  C15      1.0000 0.32520  0.71530  0.02740  Biso   1.000  C
  C16      1.0000 0.67480  0.28470  0.97260  Biso   1.000  C
  H1       1.0000 0.55390  0.87150  0.33720  Biso   1.000  H
  H2       1.0000 0.44610  0.12850  0.66280  Biso   1.000  H
  H3       1.0000 0.94600  0.00160  0.80910  Biso   1.000  H
  H4       1.0000 0.05400  0.99840  0.19090  Biso   1.000  H
  H5       1.0000 0.93940  0.77430  0.02960  Biso   1.000  H
  H6       1.0000 0.06060  0.22570  0.97040  Biso   1.000  H
  H7       1.0000 0.70070  0.10940  0.67950  Biso   1.000  H
  H8       1.0000 0.29930  0.89060  0.32050  Biso   1.000  H
  H9       1.0000 0.35030  0.68920  0.02720  Biso   1.000  H
  H10      1.0000 0.64970  0.31080  0.97280  Biso   1.000  H
  H11      1.0000 0.23390  0.42850  0.95270  Biso   1.000  H
  H12      1.0000 0.76610  0.57150  0.04730  Biso   1.000  H
  H13      1.0000 0.62150  0.75890  0.07330  Biso   1.000  H
  H14      1.0000 0.37850  0.24110  0.92670  Biso   1.000  H
  H15      1.0000 0.35580  0.79570  0.99800  Biso   1.000  H
  H16      1.0000 0.64420  0.20430  0.00200  Biso   1.000  H
  H17      1.0000 0.33960  0.76040  0.11160  Biso   1.000  H
  H18      1.0000 0.66040  0.23960  0.88840  Biso   1.000  H
  H19      1.0000 0.21510  0.66710  0.98100  Biso   1.000  H
  H20      1.0000 0.78490  0.33290  0.01900  Biso   1.000  H
