data_image0
_cell_length_a       10.596
_cell_length_b       18.196
_cell_length_c       18.761
_cell_angle_alpha    90
_cell_angle_beta     103.37
_cell_angle_gamma    90

_symmetry_space_group_name_H-M    "P 1"
_symmetry_int_tables_number       1

loop_
  _symmetry_equiv_pos_as_xyz
  'x, y, z'

loop_
  _atom_site_label
  _atom_site_occupancy
  _atom_site_fract_x
  _atom_site_fract_y
  _atom_site_fract_z
  _atom_site_thermal_displace_type
  _atom_site_B_iso_or_equiv
  _atom_site_type_symbol
  Cu1      1.0000 0.13751  0.86151  0.21425  Biso   1.000  Cu
  Cu2      1.0000 0.36249  0.36151  0.28575  Biso   1.000  Cu
  Cu3      1.0000 0.86249  0.13849  0.78575  Biso   1.000  Cu
  Cu4      1.0000 0.63751  0.63849  0.71425  Biso   1.000  Cu
  Cu5      1.0000 0.56353  0.02915  0.24872  Biso   1.000  Cu
  Cu6      1.0000 0.93647  0.52915  0.25128  Biso   1.000  Cu
  Cu7      1.0000 0.43647  0.97085  0.75128  Biso   1.000  Cu
  Cu8      1.0000 0.06353  0.47085  0.74872  Biso   1.000  Cu
  N1       1.0000 0.96300  0.92150  0.19450  Biso   1.000  N
  N2       1.0000 0.53700  0.42150  0.30550  Biso   1.000  N
  N3       1.0000 0.03700  0.07850  0.80550  Biso   1.000  N
  N4       1.0000 0.46300  0.57850  0.69450  Biso   1.000  N
  N5       1.0000 0.76600  0.10270  0.86270  Biso   1.000  N
  N6       1.0000 0.73400  0.60270  0.63730  Biso   1.000  N
  N7       1.0000 0.23400  0.89730  0.13730  Biso   1.000  N
  N8       1.0000 0.26600  0.39730  0.36270  Biso   1.000  N
  N9       1.0000 0.53240  0.06310  0.15170  Biso   1.000  N
  N10      1.0000 0.96760  0.56310  0.34830  Biso   1.000  N
  N11      1.0000 0.46760  0.93690  0.84830  Biso   1.000  N
  N12      1.0000 0.03240  0.43690  0.65170  Biso   1.000  N
  N13      1.0000 0.46160  0.11710  0.04140  Biso   1.000  N
  N14      1.0000 0.03840  0.61710  0.45860  Biso   1.000  N
  N15      1.0000 0.53840  0.88290  0.95860  Biso   1.000  N
  N16      1.0000 0.96160  0.38290  0.54140  Biso   1.000  N
  N17      1.0000 0.07060  0.16050  0.15620  Biso   1.000  N
  N18      1.0000 0.42940  0.66050  0.34380  Biso   1.000  N
  N19      1.0000 0.92940  0.83950  0.84380  Biso   1.000  N
  N20      1.0000 0.57060  0.33950  0.65620  Biso   1.000  N
  N21      1.0000 0.23770  0.88480  0.31480  Biso   1.000  N
  N22      1.0000 0.26230  0.38480  0.18520  Biso   1.000  N
  N23      1.0000 0.76230  0.11520  0.68520  Biso   1.000  N
  N24      1.0000 0.73770  0.61520  0.81480  Biso   1.000  N
  N25      1.0000 0.56540  0.73770  0.67770  Biso   1.000  N
  N26      1.0000 0.93460  0.23770  0.82230  Biso   1.000  N
  N27      1.0000 0.43460  0.26230  0.32230  Biso   1.000  N
  N28      1.0000 0.06540  0.76230  0.17770  Biso   1.000  N
  N29      1.0000 0.38610  0.99450  0.65180  Biso   1.000  N
  N30      1.0000 0.11390  0.49450  0.84820  Biso   1.000  N
  N31      1.0000 0.61390  0.00550  0.34820  Biso   1.000  N
  N32      1.0000 0.88610  0.50550  0.15180  Biso   1.000  N
  N33      1.0000 0.32030  0.04880  0.54100  Biso   1.000  N
  N34      1.0000 0.17970  0.54880  0.95900  Biso   1.000  N
  N35      1.0000 0.67970  0.95120  0.45900  Biso   1.000  N
  N36      1.0000 0.82030  0.45120  0.04100  Biso   1.000  N
  N37      1.0000 0.29430  0.26550  0.71260  Biso   1.000  N
  N38      1.0000 0.20570  0.76550  0.78740  Biso   1.000  N
  N39      1.0000 0.70570  0.73450  0.28740  Biso   1.000  N
  N40      1.0000 0.79430  0.23450  0.21260  Biso   1.000  N
  C1       1.0000 0.62450  0.05250  0.11220  Biso   1.000  C
  C2       1.0000 0.87550  0.55250  0.38780  Biso   1.000  C
  C3       1.0000 0.37550  0.94750  0.88780  Biso   1.000  C
  C4       1.0000 0.12450  0.44750  0.61220  Biso   1.000  C
  C5       1.0000 0.58020  0.08590  0.04390  Biso   1.000  C
  C6       1.0000 0.91980  0.58590  0.45610  Biso   1.000  C
  C7       1.0000 0.41980  0.91410  0.95610  Biso   1.000  C
  C8       1.0000 0.08020  0.41410  0.54390  Biso   1.000  C
  C9       1.0000 0.43510  0.10150  0.10630  Biso   1.000  C
  C10      1.0000 0.06490  0.60150  0.39370  Biso   1.000  C
  C11      1.0000 0.56490  0.89850  0.89370  Biso   1.000  C
  C12      1.0000 0.93510  0.39850  0.60630  Biso   1.000  C
  C13      1.0000 0.31300  0.12170  0.12590  Biso   1.000  C
  C14      1.0000 0.18700  0.62170  0.37410  Biso   1.000  C
  C15      1.0000 0.68700  0.87830  0.87410  Biso   1.000  C
  C16      1.0000 0.81300  0.37830  0.62590  Biso   1.000  C
  C17      1.0000 0.29220  0.11620  0.19540  Biso   1.000  C
  C18      1.0000 0.20780  0.61620  0.30460  Biso   1.000  C
  C19      1.0000 0.70780  0.88380  0.80460  Biso   1.000  C
  C20      1.0000 0.79220  0.38380  0.69540  Biso   1.000  C
  H1       1.0000 0.35790  0.09910  0.23360  Biso   1.000  H
  H2       1.0000 0.14210  0.59910  0.26640  Biso   1.000  H
  H3       1.0000 0.64210  0.90090  0.76640  Biso   1.000  H
  H4       1.0000 0.85790  0.40090  0.73360  Biso   1.000  H
  C21      1.0000 0.17230  0.13620  0.20850  Biso   1.000  C
  C22      1.0000 0.32770  0.63620  0.29150  Biso   1.000  C
  C23      1.0000 0.82770  0.86380  0.79150  Biso   1.000  C
  C24      1.0000 0.67230  0.36380  0.70850  Biso   1.000  C
  H5       1.0000 0.16170  0.13250  0.25620  Biso   1.000  H
  H6       1.0000 0.33830  0.63250  0.24380  Biso   1.000  H
  H7       1.0000 0.83830  0.86750  0.74380  Biso   1.000  H
  H8       1.0000 0.66170  0.36750  0.75620  Biso   1.000  H
  C25      1.0000 0.09410  0.16660  0.08910  Biso   1.000  C
  C26      1.0000 0.40590  0.66660  0.41090  Biso   1.000  C
  C27      1.0000 0.90590  0.83340  0.91090  Biso   1.000  C
  C28      1.0000 0.59410  0.33340  0.58910  Biso   1.000  C
  H9       1.0000 0.02720  0.18400  0.05180  Biso   1.000  H
  H10      1.0000 0.47280  0.68400  0.44820  Biso   1.000  H
  H11      1.0000 0.97280  0.81600  0.94820  Biso   1.000  H
  H12      1.0000 0.52720  0.31600  0.55180  Biso   1.000  H
  C29      1.0000 0.20980  0.14910  0.07100  Biso   1.000  C
  C30      1.0000 0.29020  0.64910  0.42900  Biso   1.000  C
  C31      1.0000 0.79020  0.85090  0.92900  Biso   1.000  C
  C32      1.0000 0.70980  0.35090  0.57100  Biso   1.000  C
  H13      1.0000 0.21930  0.15520  0.02330  Biso   1.000  H
  H14      1.0000 0.28070  0.65520  0.47670  Biso   1.000  H
  H15      1.0000 0.78070  0.84480  0.97670  Biso   1.000  H
  H16      1.0000 0.71930  0.34480  0.52330  Biso   1.000  H
  C33      1.0000 0.64410  0.09120  0.98220  Biso   1.000  C
  C34      1.0000 0.85590  0.59120  0.51780  Biso   1.000  C
  C35      1.0000 0.35590  0.90880  0.01780  Biso   1.000  C
  C36      1.0000 0.14410  0.40880  0.48220  Biso   1.000  C
  C37      1.0000 0.57830  0.11550  0.91390  Biso   1.000  C
  C38      1.0000 0.92170  0.61550  0.58610  Biso   1.000  C
  C39      1.0000 0.42170  0.88450  0.08610  Biso   1.000  C
  C40      1.0000 0.07830  0.38450  0.41390  Biso   1.000  C
  H17      1.0000 0.49170  0.12910  0.90650  Biso   1.000  H
  H18      1.0000 0.00830  0.62910  0.59350  Biso   1.000  H
  H19      1.0000 0.50830  0.87090  0.09350  Biso   1.000  H
  H20      1.0000 0.99170  0.37090  0.40650  Biso   1.000  H
  C41      1.0000 0.64020  0.11980  0.85600  Biso   1.000  C
  C42      1.0000 0.85980  0.61980  0.64400  Biso   1.000  C
  C43      1.0000 0.35980  0.88020  0.14400  Biso   1.000  C
  C44      1.0000 0.14020  0.38020  0.35600  Biso   1.000  C
  H21      1.0000 0.59210  0.13520  0.81050  Biso   1.000  H
  H22      1.0000 0.90790  0.63520  0.68950  Biso   1.000  H
  H23      1.0000 0.40790  0.86480  0.18950  Biso   1.000  H
  H24      1.0000 0.09210  0.36480  0.31050  Biso   1.000  H
  C45      1.0000 0.83100  0.07950  0.93000  Biso   1.000  C
  C46      1.0000 0.66900  0.57950  0.57000  Biso   1.000  C
  C47      1.0000 0.16900  0.92050  0.07000  Biso   1.000  C
  C48      1.0000 0.33100  0.42050  0.43000  Biso   1.000  C
  H25      1.0000 0.91740  0.06590  0.93620  Biso   1.000  H
  H26      1.0000 0.58260  0.56590  0.56380  Biso   1.000  H
  H27      1.0000 0.08260  0.93410  0.06380  Biso   1.000  H
  H28      1.0000 0.41740  0.43410  0.43620  Biso   1.000  H
  C49      1.0000 0.77620  0.07510  0.98930  Biso   1.000  C
  C50      1.0000 0.72380  0.57510  0.51070  Biso   1.000  C
  C51      1.0000 0.22380  0.92490  0.01070  Biso   1.000  C
  C52      1.0000 0.27620  0.42490  0.48930  Biso   1.000  C
  H29      1.0000 0.82690  0.06140  0.03470  Biso   1.000  H
  H30      1.0000 0.67310  0.56140  0.46530  Biso   1.000  H
  H31      1.0000 0.17310  0.93860  0.96530  Biso   1.000  H
  H32      1.0000 0.32690  0.43860  0.53470  Biso   1.000  H
  C53      1.0000 0.74230  0.00890  0.14130  Biso   1.000  C
  C54      1.0000 0.75770  0.50890  0.35870  Biso   1.000  C
  C55      1.0000 0.25770  0.99110  0.85870  Biso   1.000  C
  C56      1.0000 0.24230  0.49110  0.64130  Biso   1.000  C
  C57      1.0000 0.83610  0.02970  0.20260  Biso   1.000  C
  C58      1.0000 0.66390  0.52970  0.29740  Biso   1.000  C
  C59      1.0000 0.16390  0.97030  0.79740  Biso   1.000  C
  C60      1.0000 0.33610  0.47030  0.70260  Biso   1.000  C
  H33      1.0000 0.82680  0.07310  0.22710  Biso   1.000  H
  H34      1.0000 0.67320  0.57310  0.27290  Biso   1.000  H
  H35      1.0000 0.17320  0.92690  0.77290  Biso   1.000  H
  H36      1.0000 0.32680  0.42690  0.72710  Biso   1.000  H
  C61      1.0000 0.94430  0.98510  0.22720  Biso   1.000  C
  C62      1.0000 0.55570  0.48510  0.27280  Biso   1.000  C
  C63      1.0000 0.05570  0.01490  0.77280  Biso   1.000  C
  C64      1.0000 0.44430  0.51490  0.72720  Biso   1.000  C
  H37      1.0000 0.00660  0.00000  0.26820  Biso   1.000  H
  H38      1.0000 0.49340  0.50000  0.23180  Biso   1.000  H
  H39      1.0000 0.99340  0.00000  0.73180  Biso   1.000  H
  H40      1.0000 0.50660  0.50000  0.76820  Biso   1.000  H
  C65      1.0000 0.87030  0.90130  0.13550  Biso   1.000  C
  C66      1.0000 0.62970  0.40130  0.36450  Biso   1.000  C
  C67      1.0000 0.12970  0.09870  0.86450  Biso   1.000  C
  C68      1.0000 0.37030  0.59870  0.63550  Biso   1.000  C
  H41      1.0000 0.88000  0.85690  0.11280  Biso   1.000  H
  H42      1.0000 0.62000  0.35690  0.38720  Biso   1.000  H
  H43      1.0000 0.12000  0.14310  0.88720  Biso   1.000  H
  H44      1.0000 0.38000  0.64310  0.61280  Biso   1.000  H
  C69      1.0000 0.76180  0.94340  0.10710  Biso   1.000  C
  C70      1.0000 0.73820  0.44340  0.39290  Biso   1.000  C
  C71      1.0000 0.23820  0.05660  0.89290  Biso   1.000  C
  C72      1.0000 0.26180  0.55660  0.60710  Biso   1.000  C
  H45      1.0000 0.70200  0.92790  0.06540  Biso   1.000  H
  H46      1.0000 0.79800  0.42790  0.43460  Biso   1.000  H
  H47      1.0000 0.29800  0.07210  0.93460  Biso   1.000  H
  H48      1.0000 0.20200  0.57210  0.56540  Biso   1.000  H
  C73      1.0000 0.27930  0.95510  0.32710  Biso   1.000  C
  C74      1.0000 0.22070  0.45510  0.17290  Biso   1.000  C
  C75      1.0000 0.72070  0.04490  0.67290  Biso   1.000  C
  C76      1.0000 0.77930  0.54490  0.82710  Biso   1.000  C
  H49      1.0000 0.28470  0.98420  0.28720  Biso   1.000  H
  H50      1.0000 0.21530  0.48420  0.21280  Biso   1.000  H
  H51      1.0000 0.71530  0.01580  0.71280  Biso   1.000  H
  H52      1.0000 0.78470  0.51580  0.78720  Biso   1.000  H
  C77      1.0000 0.31390  0.98530  0.39600  Biso   1.000  C
  C78      1.0000 0.18610  0.48530  0.10400  Biso   1.000  C
  C79      1.0000 0.68610  0.01470  0.60400  Biso   1.000  C
  C80      1.0000 0.81390  0.51470  0.89600  Biso   1.000  C
  H53      1.0000 0.33700  0.03460  0.40150  Biso   1.000  H
  H54      1.0000 0.16300  0.53460  0.09850  Biso   1.000  H
  H55      1.0000 0.66300  0.96540  0.59850  Biso   1.000  H
  H56      1.0000 0.83700  0.46540  0.90150  Biso   1.000  H
  C81      1.0000 0.31470  0.94270  0.45720  Biso   1.000  C
  C82      1.0000 0.18530  0.44270  0.04280  Biso   1.000  C
  C83      1.0000 0.68530  0.05730  0.54280  Biso   1.000  C
  C84      1.0000 0.81470  0.55730  0.95720  Biso   1.000  C
  C85      1.0000 0.27930  0.86960  0.44470  Biso   1.000  C
  C86      1.0000 0.22070  0.36960  0.05530  Biso   1.000  C
  C87      1.0000 0.72070  0.13040  0.55530  Biso   1.000  C
  C88      1.0000 0.77930  0.63040  0.94470  Biso   1.000  C
  H57      1.0000 0.28120  0.83820  0.48410  Biso   1.000  H
  H58      1.0000 0.21880  0.33820  0.01590  Biso   1.000  H
  H59      1.0000 0.71880  0.16180  0.51590  Biso   1.000  H
  H60      1.0000 0.78120  0.66180  0.98410  Biso   1.000  H
  C89      1.0000 0.24090  0.84310  0.37340  Biso   1.000  C
  C90      1.0000 0.25910  0.34310  0.12660  Biso   1.000  C
  C91      1.0000 0.75910  0.15690  0.62660  Biso   1.000  C
  C92      1.0000 0.74090  0.65690  0.87340  Biso   1.000  C
  H61      1.0000 0.21630  0.79410  0.36640  Biso   1.000  H
  H62      1.0000 0.28370  0.29410  0.13360  Biso   1.000  H
  H63      1.0000 0.78370  0.20590  0.63360  Biso   1.000  H
  H64      1.0000 0.71630  0.70590  0.86640  Biso   1.000  H
  C93      1.0000 0.34490  0.97530  0.53100  Biso   1.000  C
  C94      1.0000 0.15510  0.47530  0.96900  Biso   1.000  C
  C95      1.0000 0.65510  0.02470  0.46900  Biso   1.000  C
  C96      1.0000 0.84490  0.52470  0.03100  Biso   1.000  C
  C97      1.0000 0.38610  0.94210  0.59880  Biso   1.000  C
  C98      1.0000 0.11390  0.44210  0.90120  Biso   1.000  C
  C99      1.0000 0.61390  0.05790  0.40120  Biso   1.000  C
  C100     1.0000 0.88610  0.55790  0.09880  Biso   1.000  C
  C101     1.0000 0.34600  0.05730  0.61330  Biso   1.000  C
  C102     1.0000 0.15400  0.55730  0.88670  Biso   1.000  C
  C103     1.0000 0.65400  0.94270  0.38670  Biso   1.000  C
  C104     1.0000 0.84600  0.44270  0.11330  Biso   1.000  C
  C105     1.0000 0.32960  0.12840  0.64850  Biso   1.000  C
  C106     1.0000 0.17040  0.62840  0.85150  Biso   1.000  C
  C107     1.0000 0.67040  0.87160  0.35150  Biso   1.000  C
  C108     1.0000 0.82960  0.37160  0.14850  Biso   1.000  C
  C109     1.0000 0.32970  0.13610  0.72170  Biso   1.000  C
  C110     1.0000 0.17030  0.63610  0.77830  Biso   1.000  C
  C111     1.0000 0.67030  0.86390  0.27830  Biso   1.000  C
  C112     1.0000 0.82970  0.36390  0.22170  Biso   1.000  C
  H65      1.0000 0.34090  0.09490  0.75180  Biso   1.000  H
  H66      1.0000 0.15910  0.59490  0.74820  Biso   1.000  H
  H67      1.0000 0.65910  0.90510  0.24820  Biso   1.000  H
  H68      1.0000 0.84090  0.40510  0.25180  Biso   1.000  H
  C113     1.0000 0.31330  0.20430  0.75110  Biso   1.000  C
  C114     1.0000 0.18670  0.70430  0.74890  Biso   1.000  C
  C115     1.0000 0.68670  0.79570  0.24890  Biso   1.000  C
  C116     1.0000 0.81330  0.29570  0.25110  Biso   1.000  C
  H69      1.0000 0.31590  0.20700  0.80090  Biso   1.000  H
  H70      1.0000 0.18410  0.70700  0.69910  Biso   1.000  H
  H71      1.0000 0.68410  0.79300  0.19910  Biso   1.000  H
  H72      1.0000 0.81590  0.29300  0.30090  Biso   1.000  H
  C117     1.0000 0.29160  0.25810  0.64220  Biso   1.000  C
  C118     1.0000 0.20840  0.75810  0.85780  Biso   1.000  C
  C119     1.0000 0.70840  0.74190  0.35780  Biso   1.000  C
  C120     1.0000 0.79160  0.24190  0.14220  Biso   1.000  C
  H73      1.0000 0.27690  0.30030  0.61350  Biso   1.000  H
  H74      1.0000 0.22310  0.80030  0.88650  Biso   1.000  H
  H75      1.0000 0.72310  0.69970  0.38650  Biso   1.000  H
  H76      1.0000 0.77690  0.19970  0.11350  Biso   1.000  H
  C121     1.0000 0.30880  0.19260  0.60720  Biso   1.000  C
  C122     1.0000 0.19120  0.69260  0.89280  Biso   1.000  C
  C123     1.0000 0.69120  0.80740  0.39280  Biso   1.000  C
  C124     1.0000 0.80880  0.30740  0.10720  Biso   1.000  C
  H77      1.0000 0.30640  0.19180  0.55740  Biso   1.000  H
  H78      1.0000 0.19360  0.69180  0.94260  Biso   1.000  H
  H79      1.0000 0.69360  0.80820  0.44260  Biso   1.000  H
  H80      1.0000 0.80640  0.30820  0.05740  Biso   1.000  H
  C125     1.0000 0.43780  0.86820  0.62120  Biso   1.000  C
  C126     1.0000 0.06220  0.36820  0.87880  Biso   1.000  C
  C127     1.0000 0.56220  0.13180  0.37880  Biso   1.000  C
  C128     1.0000 0.93780  0.63180  0.12120  Biso   1.000  C
  C129     1.0000 0.53250  0.83570  0.58910  Biso   1.000  C
  C130     1.0000 0.96750  0.33570  0.91090  Biso   1.000  C
  C131     1.0000 0.46750  0.16430  0.41090  Biso   1.000  C
  C132     1.0000 0.03250  0.66430  0.08910  Biso   1.000  C
  H81      1.0000 0.55380  0.85730  0.54850  Biso   1.000  H
  H82      1.0000 0.94620  0.35730  0.95150  Biso   1.000  H
  H83      1.0000 0.44620  0.14270  0.45150  Biso   1.000  H
  H84      1.0000 0.05380  0.64270  0.04850  Biso   1.000  H
  C133     1.0000 0.59300  0.77190  0.61830  Biso   1.000  C
  C134     1.0000 0.90700  0.27190  0.88170  Biso   1.000  C
  C135     1.0000 0.40700  0.22810  0.38170  Biso   1.000  C
  C136     1.0000 0.09300  0.72810  0.11830  Biso   1.000  C
  H85      1.0000 0.65520  0.75130  0.59670  Biso   1.000  H
  H86      1.0000 0.84480  0.25130  0.90330  Biso   1.000  H
  H87      1.0000 0.34480  0.24870  0.40330  Biso   1.000  H
  H88      1.0000 0.15520  0.74870  0.09670  Biso   1.000  H
  C137     1.0000 0.47010  0.76750  0.70510  Biso   1.000  C
  C138     1.0000 0.02990  0.26750  0.79490  Biso   1.000  C
  C139     1.0000 0.52990  0.23250  0.29490  Biso   1.000  C
  C140     1.0000 0.97010  0.73250  0.20510  Biso   1.000  C
  H89      1.0000 0.44750  0.74380  0.74420  Biso   1.000  H
  H90      1.0000 0.05250  0.24380  0.75580  Biso   1.000  H
  H91      1.0000 0.55250  0.25620  0.25580  Biso   1.000  H
  H92      1.0000 0.94750  0.75620  0.24420  Biso   1.000  H
  C141     1.0000 0.40360  0.83120  0.67890  Biso   1.000  C
  C142     1.0000 0.09640  0.33120  0.82110  Biso   1.000  C
  C143     1.0000 0.59640  0.16880  0.32110  Biso   1.000  C
  C144     1.0000 0.90360  0.66880  0.17890  Biso   1.000  C
  H93      1.0000 0.33760  0.84890  0.69940  Biso   1.000  H
  H94      1.0000 0.16240  0.34890  0.80060  Biso   1.000  H
  H95      1.0000 0.66240  0.15110  0.30060  Biso   1.000  H
  H96      1.0000 0.83760  0.65110  0.19940  Biso   1.000  H
  O1       1.0000 0.39220  0.25120  0.95710  Biso   1.000  O
  O2       1.0000 0.10780  0.75120  0.54290  Biso   1.000  O
  O3       1.0000 0.60780  0.74880  0.04290  Biso   1.000  O
  O4       1.0000 0.89220  0.24880  0.45710  Biso   1.000  O
  C145     1.0000 0.49390  0.30070  0.95890  Biso   1.000  C
  C146     1.0000 0.00610  0.80070  0.54110  Biso   1.000  C
  C147     1.0000 0.50610  0.69930  0.04110  Biso   1.000  C
  C148     1.0000 0.99390  0.19930  0.45890  Biso   1.000  C
  C149     1.0000 0.47100  0.34190  0.88460  Biso   1.000  C
  C150     1.0000 0.02900  0.84190  0.61540  Biso   1.000  C
  C151     1.0000 0.52900  0.65810  0.11540  Biso   1.000  C
  C152     1.0000 0.97100  0.15810  0.38460  Biso   1.000  C
  O5       1.0000 0.62400  0.35210  0.94250  Biso   1.000  O
  O6       1.0000 0.87600  0.85210  0.55750  Biso   1.000  O
  O7       1.0000 0.37600  0.64790  0.05750  Biso   1.000  O
  O8       1.0000 0.12400  0.14790  0.44250  Biso   1.000  O
  O9       1.0000 0.33430  0.24080  0.94920  Biso   1.000  O
  O10      1.0000 0.16570  0.74080  0.55080  Biso   1.000  O
  O11      1.0000 0.66570  0.75920  0.05080  Biso   1.000  O
  O12      1.0000 0.83430  0.25920  0.44920  Biso   1.000  O
  C153     1.0000 0.58200  0.42610  0.92830  Biso   1.000  C
  C154     1.0000 0.91800  0.92610  0.57170  Biso   1.000  C
  C155     1.0000 0.41800  0.57390  0.07170  Biso   1.000  C
  C156     1.0000 0.08200  0.07390  0.42830  Biso   1.000  C
  C157     1.0000 0.50000  0.48420  0.95670  Biso   1.000  C
  C158     1.0000 0.00000  0.98420  0.54330  Biso   1.000  C
  C159     1.0000 0.50000  0.51580  0.04330  Biso   1.000  C
  C160     1.0000 0.00000  0.01580  0.45670  Biso   1.000  C
