data_image0
_cell_length_a       7.6246
_cell_length_b       11.9848
_cell_length_c       12.2452
_cell_angle_alpha    68.202
_cell_angle_beta     74.607
_cell_angle_gamma    87.652

_symmetry_space_group_name_H-M    "P 1"
_symmetry_int_tables_number       1

loop_
  _symmetry_equiv_pos_as_xyz
  'x, y, z'

loop_
  _atom_site_label
  _atom_site_occupancy
  _atom_site_fract_x
  _atom_site_fract_y
  _atom_site_fract_z
  _atom_site_thermal_displace_type
  _atom_site_B_iso_or_equiv
  _atom_site_type_symbol
  Br1      1.0000 0.67197  0.85832  0.24485  Biso   1.000  Br
  Br2      1.0000 0.32803  0.14168  0.75515  Biso   1.000  Br
  Br3      1.0000 0.17266  0.80069  0.46529  Biso   1.000  Br
  Br4      1.0000 0.82734  0.19931  0.53471  Biso   1.000  Br
  Br5      1.0000 0.73311  0.49720  0.02692  Biso   1.000  Br
  Br6      1.0000 0.26689  0.50280  0.97308  Biso   1.000  Br
  Cu1      1.0000 0.55473  0.01336  0.09294  Biso   1.000  Cu
  Cu2      1.0000 0.44527  0.98664  0.90706  Biso   1.000  Cu
  Cu3      1.0000 0.35327  0.79188  0.26997  Biso   1.000  Cu
  Cu4      1.0000 0.64673  0.20812  0.73003  Biso   1.000  Cu
  Cu5      1.0000 0.55208  0.38304  0.95612  Biso   1.000  Cu
  Cu6      1.0000 0.44792  0.61696  0.04388  Biso   1.000  Cu
  S1       1.0000 0.74955  0.08254  0.89691  Biso   1.000  S
  S2       1.0000 0.25045  0.91746  0.10309  Biso   1.000  S
  S3       1.0000 0.33598  0.61004  0.24002  Biso   1.000  S
  S4       1.0000 0.66402  0.38996  0.75998  Biso   1.000  S
  S5       1.0000 0.47027  0.19446  0.10236  Biso   1.000  S
  S6       1.0000 0.52973  0.80554  0.89764  Biso   1.000  S
  N1       1.0000 0.92310  0.87750  0.95920  Biso   1.000  N
  N2       1.0000 0.07690  0.12250  0.04080  Biso   1.000  N
  H1       1.0000 0.89300  0.86810  0.03680  Biso   1.000  H
  H2       1.0000 0.10700  0.13190  0.96320  Biso   1.000  H
  N3       1.0000 0.95490  0.96460  0.76330  Biso   1.000  N
  N4       1.0000 0.04510  0.03540  0.23670  Biso   1.000  N
  H3       1.0000 0.93710  0.01570  0.69440  Biso   1.000  H
  H4       1.0000 0.06290  0.98430  0.30560  Biso   1.000  H
  N5       1.0000 0.98770  0.60550  0.36860  Biso   1.000  N
  N6       1.0000 0.01230  0.39450  0.63140  Biso   1.000  N
  H5       1.0000 0.01880  0.64890  0.40570  Biso   1.000  H
  H6       1.0000 0.98120  0.35110  0.59430  Biso   1.000  H
  N7       1.0000 0.01570  0.51790  0.23980  Biso   1.000  N
  N8       1.0000 0.98430  0.48210  0.76020  Biso   1.000  N
  H7       1.0000 0.07000  0.48540  0.18690  Biso   1.000  H
  H8       1.0000 0.93000  0.51460  0.81310  Biso   1.000  H
  N9       1.0000 0.40850  0.29000  0.27470  Biso   1.000  N
  N10      1.0000 0.59150  0.71000  0.72530  Biso   1.000  N
  H9       1.0000 0.42380  0.36410  0.22020  Biso   1.000  H
  H10      1.0000 0.57620  0.63590  0.77980  Biso   1.000  H
  N11      1.0000 0.38830  0.09650  0.34740  Biso   1.000  N
  N12      1.0000 0.61170  0.90350  0.65260  Biso   1.000  N
  H11      1.0000 0.39930  0.02290  0.34820  Biso   1.000  H
  H12      1.0000 0.60070  0.97710  0.65180  Biso   1.000  H
  C1       1.0000 0.88010  0.96860  0.87280  Biso   1.000  C
  C2       1.0000 0.11990  0.03140  0.12720  Biso   1.000  C
  C3       1.0000 0.02720  0.79340  0.91040  Biso   1.000  C
  C4       1.0000 0.97280  0.20660  0.08960  Biso   1.000  C
  H13      1.0000 0.95330  0.71780  0.93480  Biso   1.000  H
  H14      1.0000 0.04670  0.28220  0.06520  Biso   1.000  H
  H15      1.0000 0.13930  0.77430  0.93820  Biso   1.000  H
  H16      1.0000 0.86070  0.22570  0.06180  Biso   1.000  H
  C5       1.0000 0.07210  0.86250  0.77380  Biso   1.000  C
  C6       1.0000 0.92790  0.13750  0.22620  Biso   1.000  C
  H17      1.0000 0.20260  0.89050  0.73950  Biso   1.000  H
  H18      1.0000 0.79740  0.10950  0.26050  Biso   1.000  H
  H19      1.0000 0.04220  0.81260  0.73160  Biso   1.000  H
  H20      1.0000 0.95780  0.18740  0.26840  Biso   1.000  H
  C7       1.0000 0.10290  0.57780  0.28260  Biso   1.000  C
  C8       1.0000 0.89710  0.42220  0.71740  Biso   1.000  C
  C9       1.0000 0.80150  0.55560  0.39560  Biso   1.000  C
  C10      1.0000 0.19850  0.44440  0.60440  Biso   1.000  C
  H21      1.0000 0.76630  0.48820  0.47590  Biso   1.000  H
  H22      1.0000 0.23370  0.51180  0.52410  Biso   1.000  H
  H23      1.0000 0.71210  0.61800  0.39400  Biso   1.000  H
  H24      1.0000 0.28790  0.38200  0.60600  Biso   1.000  H
  C11      1.0000 0.81780  0.51180  0.29060  Biso   1.000  C
  C12      1.0000 0.18220  0.48820  0.70940  Biso   1.000  C
  H25      1.0000 0.75810  0.56530  0.22940  Biso   1.000  H
  H26      1.0000 0.24190  0.43470  0.77060  Biso   1.000  H
  H27      1.0000 0.76410  0.42840  0.32110  Biso   1.000  H
  H28      1.0000 0.23590  0.57160  0.67890  Biso   1.000  H
  C13      1.0000 0.42090  0.19380  0.24650  Biso   1.000  C
  C14      1.0000 0.57910  0.80620  0.75350  Biso   1.000  C
  C15      1.0000 0.36670  0.26090  0.40600  Biso   1.000  C
  C16      1.0000 0.63330  0.73910  0.59400  Biso   1.000  C
  H29      1.0000 0.25730  0.30050  0.43480  Biso   1.000  H
  H30      1.0000 0.74270  0.69950  0.56520  Biso   1.000  H
  H31      1.0000 0.47060  0.28490  0.42840  Biso   1.000  H
  H32      1.0000 0.52940  0.71510  0.57160  Biso   1.000  H
  C17      1.0000 0.33190  0.12440  0.45750  Biso   1.000  C
  C18      1.0000 0.66810  0.87560  0.54250  Biso   1.000  C
  H33      1.0000 0.40640  0.08450  0.51460  Biso   1.000  H
  H34      1.0000 0.59360  0.91550  0.48540  Biso   1.000  H
  H35      1.0000 0.20160  0.10010  0.50000  Biso   1.000  H
  H36      1.0000 0.79840  0.89990  0.50000  Biso   1.000  H
