data_image0
_cell_length_a       7.595
_cell_length_b       11.968
_cell_length_c       12.225
_cell_angle_alpha    68.016
_cell_angle_beta     74.724
_cell_angle_gamma    87.67

_symmetry_space_group_name_H-M    "P 1"
_symmetry_int_tables_number       1

loop_
  _symmetry_equiv_pos_as_xyz
  'x, y, z'

loop_
  _atom_site_label
  _atom_site_occupancy
  _atom_site_fract_x
  _atom_site_fract_y
  _atom_site_fract_z
  _atom_site_thermal_displace_type
  _atom_site_B_iso_or_equiv
  _atom_site_type_symbol
  Cu1      1.0000 0.94845  0.11654  0.54416  Biso   1.000  Cu
  Cu2      1.0000 0.05155  0.88346  0.45584  Biso   1.000  Cu
  Cu3      1.0000 0.94632  0.48757  0.40656  Biso   1.000  Cu
  Cu4      1.0000 0.05368  0.51243  0.59344  Biso   1.000  Cu
  Cu5      1.0000 0.85408  0.29090  0.77027  Biso   1.000  Cu
  Cu6      1.0000 0.14592  0.70910  0.22973  Biso   1.000  Cu
  Br1      1.0000 0.23288  0.99622  0.52779  Biso   1.000  Br
  Br2      1.0000 0.76712  0.00378  0.47221  Biso   1.000  Br
  Br3      1.0000 0.17432  0.35678  0.74556  Biso   1.000  Br
  Br4      1.0000 0.82568  0.64322  0.25444  Biso   1.000  Br
  Br5      1.0000 0.67294  0.29911  0.96617  Biso   1.000  Br
  Br6      1.0000 0.32706  0.70089  0.03383  Biso   1.000  Br
  S1       1.0000 0.03029  0.30582  0.39757  Biso   1.000  S
  S2       1.0000 0.96971  0.69418  0.60243  Biso   1.000  S
  N1       1.0000 0.09570  0.21060  0.22450  Biso   1.000  N
  N2       1.0000 0.90430  0.78940  0.77550  Biso   1.000  N
  H1       1.0000 0.07000  0.13900  0.27200  Biso   1.000  H
  H2       1.0000 0.93000  0.86100  0.72800  Biso   1.000  H
  N3       1.0000 0.11040  0.40600  0.15140  Biso   1.000  N
  N4       1.0000 0.88960  0.59400  0.84860  Biso   1.000  N
  H3       1.0000 0.13300  0.47400  0.14500  Biso   1.000  H
  H4       1.0000 0.86700  0.52600  0.85500  Biso   1.000  H
  C1       1.0000 0.07980  0.30720  0.25310  Biso   1.000  C
  C2       1.0000 0.92020  0.69280  0.74690  Biso   1.000  C
  C3       1.0000 0.13450  0.24070  0.09300  Biso   1.000  C
  C4       1.0000 0.86550  0.75930  0.90700  Biso   1.000  C
  H5       1.0000 0.02850  0.21790  0.07120  Biso   1.000  H
  H6       1.0000 0.97150  0.78210  0.92880  Biso   1.000  H
  H7       1.0000 0.24290  0.20080  0.06300  Biso   1.000  H
  H8       1.0000 0.75710  0.79920  0.93700  Biso   1.000  H
  C5       1.0000 0.17150  0.37790  0.04200  Biso   1.000  C
  C6       1.0000 0.82850  0.62210  0.95800  Biso   1.000  C
  H9       1.0000 0.30310  0.40130  0.00210  Biso   1.000  H
  H10      1.0000 0.69690  0.59870  0.99790  Biso   1.000  H
  H11      1.0000 0.10040  0.41890  0.98240  Biso   1.000  H
  H12      1.0000 0.89960  0.58110  0.01760  Biso   1.000  H
  S3       1.0000 0.75075  0.41695  0.60295  Biso   1.000  S
  S4       1.0000 0.24925  0.58305  0.39705  Biso   1.000  S
  N5       1.0000 0.57570  0.62240  0.54100  Biso   1.000  N
  N6       1.0000 0.42430  0.37760  0.45900  Biso   1.000  N
  H13      1.0000 0.62200  0.63200  0.46670  Biso   1.000  H
  H14      1.0000 0.37800  0.36800  0.53330  Biso   1.000  H
  N7       1.0000 0.54590  0.53540  0.73660  Biso   1.000  N
  N8       1.0000 0.45410  0.46460  0.26340  Biso   1.000  N
  H15      1.0000 0.56100  0.48100  0.80100  Biso   1.000  H
  H16      1.0000 0.43900  0.51900  0.19900  Biso   1.000  H
  C7       1.0000 0.61920  0.53080  0.62750  Biso   1.000  C
  C8       1.0000 0.38080  0.46920  0.37250  Biso   1.000  C
  C9       1.0000 0.47230  0.70780  0.58890  Biso   1.000  C
  C10      1.0000 0.52770  0.29220  0.41110  Biso   1.000  C
  H17      1.0000 0.36040  0.72810  0.56040  Biso   1.000  H
  H18      1.0000 0.63960  0.27190  0.43960  Biso   1.000  H
  H19      1.0000 0.54770  0.78300  0.56500  Biso   1.000  H
  H20      1.0000 0.45230  0.21700  0.43500  Biso   1.000  H
  C11      1.0000 0.42580  0.63640  0.72740  Biso   1.000  C
  C12      1.0000 0.57420  0.36360  0.27260  Biso   1.000  C
  H21      1.0000 0.45390  0.68580  0.77080  Biso   1.000  H
  H22      1.0000 0.54610  0.31420  0.22920  Biso   1.000  H
  H23      1.0000 0.29530  0.60710  0.76100  Biso   1.000  H
  H24      1.0000 0.70470  0.39290  0.23900  Biso   1.000  H
  S5       1.0000 0.83623  0.10899  0.74025  Biso   1.000  S
  S6       1.0000 0.16377  0.89101  0.25975  Biso   1.000  S
  N9       1.0000 0.48690  0.10490  0.86870  Biso   1.000  N
  N10      1.0000 0.51310  0.89510  0.13130  Biso   1.000  N
  H25      1.0000 0.51700  0.14500  0.90000  Biso   1.000  H
  H26      1.0000 0.48300  0.85500  0.10000  Biso   1.000  H
  N11      1.0000 0.51570  0.01650  0.73980  Biso   1.000  N
  N12      1.0000 0.48430  0.98350  0.26020  Biso   1.000  N
  H27      1.0000 0.56600  0.00300  0.67500  Biso   1.000  H
  H28      1.0000 0.43400  0.99700  0.32500  Biso   1.000  H
  C13      1.0000 0.60250  0.07680  0.78340  Biso   1.000  C
  C14      1.0000 0.39750  0.92320  0.21660  Biso   1.000  C
  C15      1.0000 0.30050  0.05430  0.89550  Biso   1.000  C
  C16      1.0000 0.69950  0.94570  0.10450  Biso   1.000  C
  H29      1.0000 0.20990  0.11630  0.89510  Biso   1.000  H
  H30      1.0000 0.79010  0.88370  0.10490  Biso   1.000  H
  H31      1.0000 0.26610  0.98560  0.97530  Biso   1.000  H
  H32      1.0000 0.73390  0.01440  0.02470  Biso   1.000  H
  C17      1.0000 0.31690  0.01290  0.78880  Biso   1.000  C
  C18      1.0000 0.68310  0.98710  0.21120  Biso   1.000  C
  H33      1.0000 0.26040  0.93020  0.81790  Biso   1.000  H
  H34      1.0000 0.73960  0.06980  0.18210  Biso   1.000  H
  H35      1.0000 0.25960  0.06870  0.72690  Biso   1.000  H
  H36      1.0000 0.74040  0.93130  0.27310  Biso   1.000  H
