data_image0
_cell_length_a       7.883
_cell_length_b       12.164
_cell_length_c       12.615
_cell_angle_alpha    68.835
_cell_angle_beta     73.432
_cell_angle_gamma    87.814

_symmetry_space_group_name_H-M    "P 1"
_symmetry_int_tables_number       1

loop_
  _symmetry_equiv_pos_as_xyz
  'x, y, z'

loop_
  _atom_site_label
  _atom_site_occupancy
  _atom_site_fract_x
  _atom_site_fract_y
  _atom_site_fract_z
  _atom_site_thermal_displace_type
  _atom_site_B_iso_or_equiv
  _atom_site_type_symbol
  Cu1      1.0000 0.93784  0.11810  0.54874  Biso   1.000  Cu
  Cu2      1.0000 0.06216  0.88190  0.45126  Biso   1.000  Cu
  Cu3      1.0000 0.94896  0.48571  0.41083  Biso   1.000  Cu
  Cu4      1.0000 0.05104  0.51429  0.58917  Biso   1.000  Cu
  Cu5      1.0000 0.84259  0.29855  0.76810  Biso   1.000  Cu
  Cu6      1.0000 0.15741  0.70145  0.23190  Biso   1.000  Cu
  I1       1.0000 0.23545  0.99787  0.53393  Biso   1.000  I
  I2       1.0000 0.76455  0.00213  0.46607  Biso   1.000  I
  I3       1.0000 0.27980  0.00240  0.46210  Biso   1.000  I
  I4       1.0000 0.72020  0.99760  0.53790  Biso   1.000  I
  I5       1.0000 0.17457  0.35927  0.74681  Biso   1.000  I
  I6       1.0000 0.82543  0.64073  0.25319  Biso   1.000  I
  I7       1.0000 0.66441  0.30471  0.97588  Biso   1.000  I
  I8       1.0000 0.33559  0.69529  0.02412  Biso   1.000  I
  S1       1.0000 0.03081  0.30448  0.40632  Biso   1.000  S
  S2       1.0000 0.96919  0.69552  0.59368  Biso   1.000  S
  N1       1.0000 0.12060  0.20820  0.23820  Biso   1.000  N
  N2       1.0000 0.87940  0.79180  0.76180  Biso   1.000  N
  H1       1.0000 0.13900  0.13970  0.28800  Biso   1.000  H
  H2       1.0000 0.86100  0.86030  0.71200  Biso   1.000  H
  N3       1.0000 0.07990  0.39540  0.17000  Biso   1.000  N
  N4       1.0000 0.92010  0.60460  0.83000  Biso   1.000  N
  H3       1.0000 0.04960  0.46560  0.17070  Biso   1.000  H
  H4       1.0000 0.95040  0.53440  0.82930  Biso   1.000  H
  C1       1.0000 0.07680  0.30270  0.26650  Biso   1.000  C
  C2       1.0000 0.92320  0.69730  0.73350  Biso   1.000  C
  C3       1.0000 0.13460  0.23270  0.11300  Biso   1.000  C
  C4       1.0000 0.86540  0.76730  0.88700  Biso   1.000  C
  H5       1.0000 0.03060  0.19650  0.10530  Biso   1.000  H
  H6       1.0000 0.96940  0.80350  0.89470  Biso   1.000  H
  H7       1.0000 0.24420  0.20350  0.07350  Biso   1.000  H
  H8       1.0000 0.75580  0.79650  0.92650  Biso   1.000  H
  C5       1.0000 0.13960  0.36780  0.06180  Biso   1.000  C
  C6       1.0000 0.86040  0.63220  0.93820  Biso   1.000  C
  H9       1.0000 0.26110  0.40320  0.01420  Biso   1.000  H
  H10      1.0000 0.73890  0.59680  0.98580  Biso   1.000  H
  H11      1.0000 0.05810  0.39550  0.01210  Biso   1.000  H
  H12      1.0000 0.94190  0.60450  0.98790  Biso   1.000  H
  S3       1.0000 0.75395  0.42097  0.60423  Biso   1.000  S
  S4       1.0000 0.24605  0.57903  0.39577  Biso   1.000  S
  N5       1.0000 0.57050  0.61330  0.54610  Biso   1.000  N
  N6       1.0000 0.42950  0.38670  0.45390  Biso   1.000  N
  H13      1.0000 0.59800  0.61830  0.47170  Biso   1.000  H
  H14      1.0000 0.40200  0.38170  0.52830  Biso   1.000  H
  N7       1.0000 0.55670  0.54280  0.73340  Biso   1.000  N
  N8       1.0000 0.44330  0.45720  0.26660  Biso   1.000  N
  H15      1.0000 0.57900  0.49670  0.79920  Biso   1.000  H
  H16      1.0000 0.42100  0.50330  0.20080  Biso   1.000  H
  C7       1.0000 0.62180  0.53180  0.62840  Biso   1.000  C
  C8       1.0000 0.37820  0.46820  0.37160  Biso   1.000  C
  C9       1.0000 0.46120  0.69640  0.59150  Biso   1.000  C
  C10      1.0000 0.53880  0.30360  0.40850  Biso   1.000  C
  H17      1.0000 0.34400  0.69990  0.57670  Biso   1.000  H
  H18      1.0000 0.65600  0.30010  0.42330  Biso   1.000  H
  H19      1.0000 0.52130  0.77680  0.55530  Biso   1.000  H
  H20      1.0000 0.47870  0.22320  0.44470  Biso   1.000  H
  C11      1.0000 0.44290  0.64210  0.72470  Biso   1.000  C
  C12      1.0000 0.55710  0.35790  0.27530  Biso   1.000  C
  H21      1.0000 0.48510  0.69970  0.75230  Biso   1.000  H
  H22      1.0000 0.51490  0.30030  0.24770  Biso   1.000  H
  H23      1.0000 0.31820  0.61430  0.77190  Biso   1.000  H
  H24      1.0000 0.68180  0.38570  0.22810  Biso   1.000  H
  S5       1.0000 0.82058  0.11744  0.73811  Biso   1.000  S
  S6       1.0000 0.17942  0.88256  0.26189  Biso   1.000  S
  N9       1.0000 0.48440  0.10430  0.87630  Biso   1.000  N
  N10      1.0000 0.51560  0.89570  0.12370  Biso   1.000  N
  H25      1.0000 0.51730  0.14290  0.91500  Biso   1.000  H
  H26      1.0000 0.48270  0.85710  0.08500  Biso   1.000  H
  N11      1.0000 0.50560  0.03060  0.74100  Biso   1.000  N
  N12      1.0000 0.49440  0.96940  0.25900  Biso   1.000  N
  H27      1.0000 0.55560  0.00490  0.68330  Biso   1.000  H
  H28      1.0000 0.44440  0.99510  0.31670  Biso   1.000  H
  C13      1.0000 0.59460  0.08320  0.78450  Biso   1.000  C
  C14      1.0000 0.40540  0.91680  0.21550  Biso   1.000  C
  C15      1.0000 0.30240  0.05580  0.90530  Biso   1.000  C
  C16      1.0000 0.69760  0.94420  0.09470  Biso   1.000  C
  H29      1.0000 0.21570  0.11630  0.90980  Biso   1.000  H
  H30      1.0000 0.78430  0.88370  0.09020  Biso   1.000  H
  H31      1.0000 0.26960  0.98690  0.98100  Biso   1.000  H
  H32      1.0000 0.73040  0.01310  0.01900  Biso   1.000  H
  C17      1.0000 0.31520  0.01930  0.79800  Biso   1.000  C
  C18      1.0000 0.68480  0.98070  0.20200  Biso   1.000  C
  H33      1.0000 0.26580  0.93700  0.82430  Biso   1.000  H
  H34      1.0000 0.73420  0.06300  0.17570  Biso   1.000  H
  H35      1.0000 0.25230  0.07270  0.74410  Biso   1.000  H
  H36      1.0000 0.74770  0.92730  0.25590  Biso   1.000  H
