data_image0
_cell_length_a       7.9179
_cell_length_b       12.1698
_cell_length_c       12.6444
_cell_angle_alpha    69.023
_cell_angle_beta     73.269
_cell_angle_gamma    87.855

_symmetry_space_group_name_H-M    "P 1"
_symmetry_int_tables_number       1

loop_
  _symmetry_equiv_pos_as_xyz
  'x, y, z'

loop_
  _atom_site_label
  _atom_site_occupancy
  _atom_site_fract_x
  _atom_site_fract_y
  _atom_site_fract_z
  _atom_site_thermal_displace_type
  _atom_site_B_iso_or_equiv
  _atom_site_type_symbol
  I1       1.0000 0.32774  0.64076  0.75374  Biso   1.000  I
  I2       1.0000 0.67226  0.35924  0.24626  Biso   1.000  I
  I3       1.0000 0.83755  0.69436  0.52486  Biso   1.000  I
  I4       1.0000 0.16245  0.30564  0.47514  Biso   1.000  I
  I5       1.0000 0.26437  0.00047  0.96707  Biso   1.000  I
  I6       1.0000 0.73563  0.99953  0.03293  Biso   1.000  I
  Cu1      1.0000 0.44719  0.48482  0.91124  Biso   1.000  Cu
  Cu2      1.0000 0.55281  0.51518  0.08876  Biso   1.000  Cu
  Cu3      1.0000 0.65905  0.70112  0.73202  Biso   1.000  Cu
  Cu4      1.0000 0.34095  0.29888  0.26798  Biso   1.000  Cu
  Cu5      1.0000 0.43645  0.11836  0.04797  Biso   1.000  Cu
  Cu6      1.0000 0.56355  0.88164  0.95203  Biso   1.000  Cu
  S1       1.0000 0.25380  0.42165  0.10428  Biso   1.000  S
  S2       1.0000 0.74620  0.57835  0.89572  Biso   1.000  S
  S3       1.0000 0.68008  0.88188  0.76280  Biso   1.000  S
  S4       1.0000 0.31992  0.11812  0.23720  Biso   1.000  S
  S5       1.0000 0.52904  0.30450  0.90595  Biso   1.000  S
  S6       1.0000 0.47096  0.69550  0.09405  Biso   1.000  S
  N1       1.0000 0.07100  0.61420  0.04630  Biso   1.000  N
  N2       1.0000 0.92900  0.38580  0.95370  Biso   1.000  N
  H1       1.0000 0.09960  0.61970  0.97190  Biso   1.000  H
  H2       1.0000 0.90040  0.38030  0.02810  Biso   1.000  H
  N3       1.0000 0.05530  0.54330  0.23250  Biso   1.000  N
  N4       1.0000 0.94470  0.45670  0.76750  Biso   1.000  N
  H3       1.0000 0.07540  0.49680  0.29850  Biso   1.000  H
  H4       1.0000 0.92460  0.50320  0.70150  Biso   1.000  H
  N5       1.0000 0.01490  0.89670  0.62430  Biso   1.000  N
  N6       1.0000 0.98510  0.10330  0.37570  Biso   1.000  N
  H5       1.0000 0.98250  0.85920  0.58450  Biso   1.000  H
  H6       1.0000 0.01750  0.14080  0.41550  Biso   1.000  H
  N7       1.0000 0.99470  0.96940  0.75920  Biso   1.000  N
  N8       1.0000 0.00530  0.03060  0.24080  Biso   1.000  N
  H7       1.0000 0.94500  0.99470  0.81720  Biso   1.000  H
  H8       1.0000 0.05500  0.00530  0.18280  Biso   1.000  H
  N9       1.0000 0.61650  0.20840  0.73820  Biso   1.000  N
  N10      1.0000 0.38350  0.79160  0.26180  Biso   1.000  N
  H9       1.0000 0.63240  0.13980  0.78830  Biso   1.000  H
  H10      1.0000 0.36760  0.86020  0.21170  Biso   1.000  H
  N11      1.0000 0.57900  0.39380  0.67090  Biso   1.000  N
  N12      1.0000 0.42100  0.60620  0.32910  Biso   1.000  N
  H11      1.0000 0.54900  0.46400  0.67160  Biso   1.000  H
  H12      1.0000 0.45100  0.53600  0.32840  Biso   1.000  H
  C1       1.0000 0.12210  0.53180  0.12830  Biso   1.000  C
  C2       1.0000 0.87790  0.46820  0.87170  Biso   1.000  C
  C3       1.0000 0.96150  0.69590  0.09170  Biso   1.000  C
  C4       1.0000 0.03850  0.30410  0.90830  Biso   1.000  C
  H13      1.0000 0.84450  0.69800  0.07760  Biso   1.000  H
  H14      1.0000 0.15550  0.30200  0.92240  Biso   1.000  H
  H15      1.0000 0.02000  0.77660  0.05520  Biso   1.000  H
  H16      1.0000 0.98000  0.22340  0.94480  Biso   1.000  H
  C5       1.0000 0.94440  0.64280  0.22390  Biso   1.000  C
  C6       1.0000 0.05560  0.35720  0.77610  Biso   1.000  C
  H17      1.0000 0.98830  0.70040  0.25050  Biso   1.000  H
  H18      1.0000 0.01170  0.29960  0.74950  Biso   1.000  H
  H19      1.0000 0.82010  0.61590  0.27160  Biso   1.000  H
  H20      1.0000 0.17990  0.38410  0.72840  Biso   1.000  H
  C7       1.0000 0.90520  0.91580  0.71550  Biso   1.000  C
  C8       1.0000 0.09480  0.08420  0.28450  Biso   1.000  C
  C9       1.0000 0.19410  0.94390  0.59630  Biso   1.000  C
  C10      1.0000 0.80590  0.05610  0.40370  Biso   1.000  C
  H21      1.0000 0.27960  0.88290  0.59250  Biso   1.000  H
  H22      1.0000 0.72040  0.11710  0.40750  Biso   1.000  H
  H23      1.0000 0.22790  0.01190  0.52030  Biso   1.000  H
  H24      1.0000 0.77210  0.98810  0.47970  Biso   1.000  H
  C11      1.0000 0.18350  0.98190  0.70110  Biso   1.000  C
  C12      1.0000 0.81650  0.01810  0.29890  Biso   1.000  C
  H25      1.0000 0.23160  0.06460  0.67370  Biso   1.000  H
  H26      1.0000 0.76840  0.93540  0.32630  Biso   1.000  H
  H27      1.0000 0.24780  0.92980  0.75420  Biso   1.000  H
  H28      1.0000 0.75220  0.07020  0.24580  Biso   1.000  H
  C13      1.0000 0.57530  0.30190  0.76660  Biso   1.000  C
  C14      1.0000 0.42470  0.69810  0.23340  Biso   1.000  C
  C15      1.0000 0.63320  0.23160  0.61280  Biso   1.000  C
  C16      1.0000 0.36680  0.76840  0.38720  Biso   1.000  C
  H29      1.0000 0.53010  0.19570  0.60430  Biso   1.000  H
  H30      1.0000 0.46990  0.80430  0.39570  Biso   1.000  H
  H31      1.0000 0.74290  0.20220  0.57410  Biso   1.000  H
  H32      1.0000 0.25710  0.79780  0.42590  Biso   1.000  H
  C17      1.0000 0.63910  0.36600  0.56290  Biso   1.000  C
  C18      1.0000 0.36090  0.63400  0.43710  Biso   1.000  C
  H33      1.0000 0.76040  0.40100  0.51560  Biso   1.000  H
  H34      1.0000 0.23960  0.59900  0.48440  Biso   1.000  H
  H35      1.0000 0.55850  0.39410  0.51310  Biso   1.000  H
  H36      1.0000 0.44150  0.60590  0.48690  Biso   1.000  H
