data_image0
_cell_length_a       7.1455
_cell_length_b       8.7718
_cell_length_c       10.462
_cell_angle_alpha    67.487
_cell_angle_beta     87.84
_cell_angle_gamma    78.498

_symmetry_space_group_name_H-M    "P 1"
_symmetry_int_tables_number       1

loop_
  _symmetry_equiv_pos_as_xyz
  'x, y, z'

loop_
  _atom_site_label
  _atom_site_occupancy
  _atom_site_fract_x
  _atom_site_fract_y
  _atom_site_fract_z
  _atom_site_thermal_displace_type
  _atom_site_B_iso_or_equiv
  _atom_site_type_symbol
  I1       1.0000 0.31459  0.99218  0.83896  Biso   1.000  I
  I2       1.0000 0.68541  0.00782  0.16104  Biso   1.000  I
  Cu1      1.0000 0.41232  0.89460  0.09345  Biso   1.000  Cu
  Cu2      1.0000 0.58768  0.10540  0.90655  Biso   1.000  Cu
  N1       1.0000 0.30910  0.71970  0.24350  Biso   1.000  N
  N2       1.0000 0.69090  0.28030  0.75650  Biso   1.000  N
  N3       1.0000 0.27940  0.46230  0.38410  Biso   1.000  N
  N4       1.0000 0.72060  0.53770  0.61590  Biso   1.000  N
  C1       1.0000 0.26800  0.71980  0.37480  Biso   1.000  C
  C2       1.0000 0.73200  0.28020  0.62520  Biso   1.000  C
  C3       1.0000 0.25180  0.55730  0.46410  Biso   1.000  C
  C4       1.0000 0.74820  0.44270  0.53590  Biso   1.000  C
  C5       1.0000 0.22120  0.51810  0.60420  Biso   1.000  C
  C6       1.0000 0.77880  0.48190  0.39580  Biso   1.000  C
  H1       1.0000 0.21500  0.40920  0.66430  Biso   1.000  H
  H2       1.0000 0.78500  0.59080  0.33570  Biso   1.000  H
  C7       1.0000 0.20070  0.64810  0.64970  Biso   1.000  C
  C8       1.0000 0.79930  0.35190  0.35030  Biso   1.000  C
  H3       1.0000 0.18020  0.62620  0.74280  Biso   1.000  H
  H4       1.0000 0.81980  0.37380  0.25720  Biso   1.000  H
  C9       1.0000 0.20950  0.81140  0.56060  Biso   1.000  C
  C10      1.0000 0.79050  0.18860  0.43940  Biso   1.000  C
  H5       1.0000 0.19140  0.89640  0.59500  Biso   1.000  H
  H6       1.0000 0.80860  0.10360  0.40500  Biso   1.000  H
  C11      1.0000 0.24440  0.84970  0.42310  Biso   1.000  C
  C12      1.0000 0.75560  0.15030  0.57690  Biso   1.000  C
  H7       1.0000 0.25220  0.95880  0.36420  Biso   1.000  H
  H8       1.0000 0.74780  0.04120  0.63580  Biso   1.000  H
  C13      1.0000 0.31340  0.56460  0.25360  Biso   1.000  C
  C14      1.0000 0.68660  0.43540  0.74640  Biso   1.000  C
  C15      1.0000 0.27770  0.28240  0.43230  Biso   1.000  C
  C16      1.0000 0.72230  0.71760  0.56770  Biso   1.000  C
  H9       1.0000 0.25090  0.24040  0.52890  Biso   1.000  H
  H10      1.0000 0.74910  0.75960  0.47110  Biso   1.000  H
  H11      1.0000 0.40030  0.22290  0.41920  Biso   1.000  H
  H12      1.0000 0.59970  0.77710  0.58080  Biso   1.000  H
  H13      1.0000 0.18090  0.26590  0.38050  Biso   1.000  H
  H14      1.0000 0.81910  0.73410  0.61950  Biso   1.000  H
  C17      1.0000 0.16520  0.50300  0.06770  Biso   1.000  C
  C18      1.0000 0.83480  0.49700  0.93230  Biso   1.000  C
  C19      1.0000 0.15040  0.36530  0.03630  Biso   1.000  C
  C20      1.0000 0.84960  0.63470  0.96370  Biso   1.000  C
  H15      1.0000 0.25190  0.27330  0.06040  Biso   1.000  H
  H16      1.0000 0.74810  0.72670  0.93960  Biso   1.000  H
  C21      1.0000 0.01200  0.63790  0.02990  Biso   1.000  C
  C22      1.0000 0.98800  0.36210  0.97010  Biso   1.000  C
  H17      1.0000 0.01810  0.73180  0.04920  Biso   1.000  H
  H18      1.0000 0.98190  0.26820  0.95080  Biso   1.000  H
  C23      1.0000 0.34530  0.50870  0.13480  Biso   1.000  C
  C24      1.0000 0.65470  0.49130  0.86520  Biso   1.000  C
  H19      1.0000 0.42640  0.39730  0.16740  Biso   1.000  H
  H20      1.0000 0.57360  0.60270  0.83260  Biso   1.000  H
  H21      1.0000 0.41350  0.58450  0.06520  Biso   1.000  H
  H22      1.0000 0.58650  0.41550  0.93480  Biso   1.000  H
