data_image0
_cell_length_a       13.9773
_cell_length_b       13.9773
_cell_length_c       18.263
_cell_angle_alpha    90
_cell_angle_beta     90
_cell_angle_gamma    120

_symmetry_space_group_name_H-M    "P 1"
_symmetry_int_tables_number       1

loop_
  _symmetry_equiv_pos_as_xyz
  'x, y, z'

loop_
  _atom_site_label
  _atom_site_occupancy
  _atom_site_fract_x
  _atom_site_fract_y
  _atom_site_fract_z
  _atom_site_thermal_displace_type
  _atom_site_B_iso_or_equiv
  _atom_site_type_symbol
  Cu1      1.0000 0.32531  0.00000  0.00000  Biso   1.000  Cu
  Cu2      1.0000 0.00000  0.32531  0.33333  Biso   1.000  Cu
  Cu3      1.0000 0.67469  0.67469  0.66667  Biso   1.000  Cu
  Cu4      1.0000 0.67469  0.00000  0.50000  Biso   1.000  Cu
  Cu5      1.0000 0.00000  0.67469  0.83333  Biso   1.000  Cu
  Cu6      1.0000 0.32531  0.32531  0.16667  Biso   1.000  Cu
  N1       1.0000 0.17116  0.87308  0.02955  Biso   1.000  N
  N2       1.0000 0.12692  0.29808  0.36288  Biso   1.000  N
  N3       1.0000 0.70192  0.82884  0.69622  Biso   1.000  N
  N4       1.0000 0.82884  0.12692  0.52955  Biso   1.000  N
  N5       1.0000 0.87308  0.70192  0.86288  Biso   1.000  N
  N6       1.0000 0.29808  0.17116  0.19622  Biso   1.000  N
  N7       1.0000 0.87308  0.17116  0.30378  Biso   1.000  N
  N8       1.0000 0.29808  0.12692  0.97045  Biso   1.000  N
  N9       1.0000 0.82884  0.70192  0.63712  Biso   1.000  N
  N10      1.0000 0.12692  0.82884  0.80378  Biso   1.000  N
  N11      1.0000 0.70192  0.87308  0.47045  Biso   1.000  N
  N12      1.0000 0.17116  0.29808  0.13712  Biso   1.000  N
  N13      1.0000 0.02910  0.57535  0.90970  Biso   1.000  N
  N14      1.0000 0.42465  0.45375  0.24303  Biso   1.000  N
  N15      1.0000 0.54625  0.97090  0.57637  Biso   1.000  N
  N16      1.0000 0.97090  0.42465  0.40970  Biso   1.000  N
  N17      1.0000 0.57535  0.54625  0.74303  Biso   1.000  N
  N18      1.0000 0.45375  0.02910  0.07637  Biso   1.000  N
  N19      1.0000 0.57535  0.02910  0.42363  Biso   1.000  N
  N20      1.0000 0.45375  0.42465  0.09030  Biso   1.000  N
  N21      1.0000 0.97090  0.54625  0.75697  Biso   1.000  N
  N22      1.0000 0.42465  0.97090  0.92363  Biso   1.000  N
  N23      1.0000 0.54625  0.57535  0.59030  Biso   1.000  N
  N24      1.0000 0.02910  0.45375  0.25697  Biso   1.000  N
  H1       1.0000 0.10270  0.60310  0.90750  Biso   1.000  H
  H2       1.0000 0.39690  0.49960  0.24083  Biso   1.000  H
  H3       1.0000 0.50040  0.89730  0.57417  Biso   1.000  H
  H4       1.0000 0.89730  0.39690  0.40750  Biso   1.000  H
  H5       1.0000 0.60310  0.50040  0.74083  Biso   1.000  H
  H6       1.0000 0.49960  0.10270  0.07417  Biso   1.000  H
  H7       1.0000 0.60310  0.10270  0.42583  Biso   1.000  H
  H8       1.0000 0.49960  0.39690  0.09250  Biso   1.000  H
  H9       1.0000 0.89730  0.50040  0.75917  Biso   1.000  H
  H10      1.0000 0.39690  0.89730  0.92583  Biso   1.000  H
  H11      1.0000 0.50040  0.60310  0.59250  Biso   1.000  H
  H12      1.0000 0.10270  0.49960  0.25917  Biso   1.000  H
  C1       1.0000 0.13220  0.76990  0.00465  Biso   1.000  C
  C2       1.0000 0.23010  0.36230  0.33798  Biso   1.000  C
  C3       1.0000 0.63770  0.86780  0.67132  Biso   1.000  C
  C4       1.0000 0.86780  0.23010  0.50465  Biso   1.000  C
  C5       1.0000 0.76990  0.63770  0.83798  Biso   1.000  C
  C6       1.0000 0.36230  0.13220  0.17132  Biso   1.000  C
  C7       1.0000 0.76990  0.13220  0.32868  Biso   1.000  C
  C8       1.0000 0.36230  0.23010  0.99535  Biso   1.000  C
  C9       1.0000 0.86780  0.63770  0.66202  Biso   1.000  C
  C10      1.0000 0.23010  0.86780  0.82868  Biso   1.000  C
  C11      1.0000 0.63770  0.76990  0.49535  Biso   1.000  C
  C12      1.0000 0.13220  0.36230  0.16202  Biso   1.000  C
  H13      1.0000 0.17920  0.75540  0.97680  Biso   1.000  H
  H14      1.0000 0.24460  0.42380  0.31013  Biso   1.000  H
  H15      1.0000 0.57620  0.82080  0.64347  Biso   1.000  H
  H16      1.0000 0.82080  0.24460  0.47680  Biso   1.000  H
  H17      1.0000 0.75540  0.57620  0.81013  Biso   1.000  H
  H18      1.0000 0.42380  0.17920  0.14347  Biso   1.000  H
  H19      1.0000 0.75540  0.17920  0.35653  Biso   1.000  H
  H20      1.0000 0.42380  0.24460  0.02320  Biso   1.000  H
  H21      1.0000 0.82080  0.57620  0.68987  Biso   1.000  H
  H22      1.0000 0.24460  0.82080  0.85653  Biso   1.000  H
  H23      1.0000 0.57620  0.75540  0.52320  Biso   1.000  H
  H24      1.0000 0.17920  0.42380  0.18987  Biso   1.000  H
  C13      1.0000 0.10320  0.89190  0.07200  Biso   1.000  C
  C14      1.0000 0.10810  0.21130  0.40533  Biso   1.000  C
  C15      1.0000 0.78870  0.89680  0.73867  Biso   1.000  C
  C16      1.0000 0.89680  0.10810  0.57200  Biso   1.000  C
  C17      1.0000 0.89190  0.78870  0.90533  Biso   1.000  C
  C18      1.0000 0.21130  0.10320  0.23867  Biso   1.000  C
  C19      1.0000 0.89190  0.10320  0.26133  Biso   1.000  C
  C20      1.0000 0.21130  0.10810  0.92800  Biso   1.000  C
  C21      1.0000 0.89680  0.78870  0.59467  Biso   1.000  C
  C22      1.0000 0.10810  0.89680  0.76133  Biso   1.000  C
  C23      1.0000 0.78870  0.89190  0.42800  Biso   1.000  C
  C24      1.0000 0.10320  0.21130  0.09467  Biso   1.000  C
  H25      1.0000 0.12840  0.96310  0.08950  Biso   1.000  H
  H26      1.0000 0.03690  0.16530  0.42283  Biso   1.000  H
  H27      1.0000 0.83470  0.87160  0.75617  Biso   1.000  H
  H28      1.0000 0.87160  0.03690  0.58950  Biso   1.000  H
  H29      1.0000 0.96310  0.83470  0.92283  Biso   1.000  H
  H30      1.0000 0.16530  0.12840  0.25617  Biso   1.000  H
  H31      1.0000 0.96310  0.12840  0.24383  Biso   1.000  H
  H32      1.0000 0.16530  0.03690  0.91050  Biso   1.000  H
  H33      1.0000 0.87160  0.83470  0.57717  Biso   1.000  H
  H34      1.0000 0.03690  0.87160  0.74383  Biso   1.000  H
  H35      1.0000 0.83470  0.96310  0.41050  Biso   1.000  H
  H36      1.0000 0.12840  0.16530  0.07717  Biso   1.000  H
  C25      1.0000 0.99810  0.81030  0.09062  Biso   1.000  C
  C26      1.0000 0.18970  0.18780  0.42395  Biso   1.000  C
  C27      1.0000 0.81220  0.00190  0.75729  Biso   1.000  C
  C28      1.0000 0.00190  0.18970  0.59062  Biso   1.000  C
  C29      1.0000 0.81030  0.81220  0.92395  Biso   1.000  C
  C30      1.0000 0.18780  0.99810  0.25729  Biso   1.000  C
  C31      1.0000 0.81030  0.99810  0.24271  Biso   1.000  C
  C32      1.0000 0.18780  0.18970  0.90938  Biso   1.000  C
  C33      1.0000 0.00190  0.81220  0.57605  Biso   1.000  C
  C34      1.0000 0.18970  0.00190  0.74271  Biso   1.000  C
  C35      1.0000 0.81220  0.81030  0.40938  Biso   1.000  C
  C36      1.0000 0.99810  0.18780  0.07605  Biso   1.000  C
  H37      1.0000 0.95440  0.82580  0.12120  Biso   1.000  H
  H38      1.0000 0.17420  0.12860  0.45453  Biso   1.000  H
  H39      1.0000 0.87140  0.04560  0.78787  Biso   1.000  H
  H40      1.0000 0.04560  0.17420  0.62120  Biso   1.000  H
  H41      1.0000 0.82580  0.87140  0.95453  Biso   1.000  H
  H42      1.0000 0.12860  0.95440  0.28787  Biso   1.000  H
  H43      1.0000 0.82580  0.95440  0.21213  Biso   1.000  H
  H44      1.0000 0.12860  0.17420  0.87880  Biso   1.000  H
  H45      1.0000 0.04560  0.87140  0.54547  Biso   1.000  H
  H46      1.0000 0.17420  0.04560  0.71213  Biso   1.000  H
  H47      1.0000 0.87140  0.82580  0.37880  Biso   1.000  H
  H48      1.0000 0.95440  0.12860  0.04547  Biso   1.000  H
  C37      1.0000 0.95870  0.70470  0.06299  Biso   1.000  C
  C38      1.0000 0.29530  0.25400  0.39632  Biso   1.000  C
  C39      1.0000 0.74600  0.04130  0.72966  Biso   1.000  C
  C40      1.0000 0.04130  0.29530  0.56299  Biso   1.000  C
  C41      1.0000 0.70470  0.74600  0.89632  Biso   1.000  C
  C42      1.0000 0.25400  0.95870  0.22966  Biso   1.000  C
  C43      1.0000 0.70470  0.95870  0.27034  Biso   1.000  C
  C44      1.0000 0.25400  0.29530  0.93701  Biso   1.000  C
  C45      1.0000 0.04130  0.74600  0.60368  Biso   1.000  C
  C46      1.0000 0.29530  0.04130  0.77034  Biso   1.000  C
  C47      1.0000 0.74600  0.70470  0.43701  Biso   1.000  C
  C48      1.0000 0.95870  0.25400  0.10368  Biso   1.000  C
  H49      1.0000 0.88770  0.64880  0.07470  Biso   1.000  H
  H50      1.0000 0.35120  0.23890  0.40803  Biso   1.000  H
  H51      1.0000 0.76110  0.11230  0.74137  Biso   1.000  H
  H52      1.0000 0.11230  0.35120  0.57470  Biso   1.000  H
  H53      1.0000 0.64880  0.76110  0.90803  Biso   1.000  H
  H54      1.0000 0.23890  0.88770  0.24137  Biso   1.000  H
  H55      1.0000 0.64880  0.88770  0.25863  Biso   1.000  H
  H56      1.0000 0.23890  0.35120  0.92530  Biso   1.000  H
  H57      1.0000 0.11230  0.76110  0.59197  Biso   1.000  H
  H58      1.0000 0.35120  0.11230  0.75863  Biso   1.000  H
  H59      1.0000 0.76110  0.64880  0.42530  Biso   1.000  H
  H60      1.0000 0.88770  0.23890  0.09197  Biso   1.000  H
  C49      1.0000 0.02480  0.68260  0.01804  Biso   1.000  C
  C50      1.0000 0.31740  0.34220  0.35137  Biso   1.000  C
  C51      1.0000 0.65780  0.97520  0.68471  Biso   1.000  C
  C52      1.0000 0.97520  0.31740  0.51804  Biso   1.000  C
  C53      1.0000 0.68260  0.65780  0.85137  Biso   1.000  C
  C54      1.0000 0.34220  0.02480  0.18471  Biso   1.000  C
  C55      1.0000 0.68260  0.02480  0.31529  Biso   1.000  C
  C56      1.0000 0.34220  0.31740  0.98196  Biso   1.000  C
  C57      1.0000 0.97520  0.65780  0.64863  Biso   1.000  C
  C58      1.0000 0.31740  0.97520  0.81529  Biso   1.000  C
  C59      1.0000 0.65780  0.68260  0.48196  Biso   1.000  C
  C60      1.0000 0.02480  0.34220  0.14863  Biso   1.000  C
  C61      1.0000 0.98310  0.56860  0.98436  Biso   1.000  C
  C62      1.0000 0.43140  0.41450  0.31769  Biso   1.000  C
  C63      1.0000 0.58550  0.01690  0.65103  Biso   1.000  C
  C64      1.0000 0.01690  0.43140  0.48436  Biso   1.000  C
  C65      1.0000 0.56860  0.58550  0.81769  Biso   1.000  C
  C66      1.0000 0.41450  0.98310  0.15103  Biso   1.000  C
  C67      1.0000 0.56860  0.98310  0.34897  Biso   1.000  C
  C68      1.0000 0.41450  0.43140  0.01564  Biso   1.000  C
  C69      1.0000 0.01690  0.58550  0.68231  Biso   1.000  C
  C70      1.0000 0.43140  0.01690  0.84897  Biso   1.000  C
  C71      1.0000 0.58550  0.56860  0.51564  Biso   1.000  C
  C72      1.0000 0.98310  0.41450  0.18231  Biso   1.000  C
  H61      1.0000 0.00360  0.52580  0.01580  Biso   1.000  H
  H62      1.0000 0.47420  0.47780  0.34913  Biso   1.000  H
  H63      1.0000 0.52220  0.99640  0.68247  Biso   1.000  H
  H64      1.0000 0.99640  0.47420  0.51580  Biso   1.000  H
  H65      1.0000 0.52580  0.52220  0.84913  Biso   1.000  H
  H66      1.0000 0.47780  0.00360  0.18247  Biso   1.000  H
  H67      1.0000 0.52580  0.00360  0.31753  Biso   1.000  H
  H68      1.0000 0.47780  0.47420  0.98420  Biso   1.000  H
  H69      1.0000 0.99640  0.52220  0.65087  Biso   1.000  H
  H70      1.0000 0.47420  0.99640  0.81753  Biso   1.000  H
  H71      1.0000 0.52220  0.52580  0.48420  Biso   1.000  H
  H72      1.0000 0.00360  0.47780  0.15087  Biso   1.000  H
  H73      1.0000 0.90310  0.53050  0.98160  Biso   1.000  H
  H74      1.0000 0.46950  0.37260  0.31493  Biso   1.000  H
  H75      1.0000 0.62740  0.09690  0.64827  Biso   1.000  H
  H76      1.0000 0.09690  0.46950  0.48160  Biso   1.000  H
  H77      1.0000 0.53050  0.62740  0.81493  Biso   1.000  H
  H78      1.0000 0.37260  0.90310  0.14827  Biso   1.000  H
  H79      1.0000 0.53050  0.90310  0.35173  Biso   1.000  H
  H80      1.0000 0.37260  0.46950  0.01840  Biso   1.000  H
  H81      1.0000 0.09690  0.62740  0.68507  Biso   1.000  H
  H82      1.0000 0.46950  0.09690  0.85173  Biso   1.000  H
  H83      1.0000 0.62740  0.53050  0.51840  Biso   1.000  H
  H84      1.0000 0.90310  0.37260  0.18507  Biso   1.000  H
  C73      1.0000 0.98020  0.46464  0.87378  Biso   1.000  C
  C74      1.0000 0.53536  0.51556  0.20711  Biso   1.000  C
  C75      1.0000 0.48444  0.01980  0.54045  Biso   1.000  C
  C76      1.0000 0.01980  0.53536  0.37378  Biso   1.000  C
  C77      1.0000 0.46464  0.48444  0.70711  Biso   1.000  C
  C78      1.0000 0.51556  0.98020  0.04045  Biso   1.000  C
  C79      1.0000 0.46464  0.98020  0.45955  Biso   1.000  C
  C80      1.0000 0.51556  0.53536  0.12622  Biso   1.000  C
  C81      1.0000 0.01980  0.48444  0.79289  Biso   1.000  C
  C82      1.0000 0.53536  0.01980  0.95955  Biso   1.000  C
  C83      1.0000 0.48444  0.46464  0.62622  Biso   1.000  C
  C84      1.0000 0.98020  0.51556  0.29289  Biso   1.000  C
  H85      1.0000 0.89960  0.43090  0.87420  Biso   1.000  H
  H86      1.0000 0.56910  0.46870  0.20753  Biso   1.000  H
  H87      1.0000 0.53130  0.10040  0.54087  Biso   1.000  H
  H88      1.0000 0.10040  0.56910  0.37420  Biso   1.000  H
  H89      1.0000 0.43090  0.53130  0.70753  Biso   1.000  H
  H90      1.0000 0.46870  0.89960  0.04087  Biso   1.000  H
  H91      1.0000 0.43090  0.89960  0.45913  Biso   1.000  H
  H92      1.0000 0.46870  0.56910  0.12580  Biso   1.000  H
  H93      1.0000 0.10040  0.53130  0.79247  Biso   1.000  H
  H94      1.0000 0.56910  0.10040  0.95913  Biso   1.000  H
  H95      1.0000 0.53130  0.43090  0.62580  Biso   1.000  H
  H96      1.0000 0.89960  0.46870  0.29247  Biso   1.000  H
  C85      1.0000 0.01080  0.38610  0.91372  Biso   1.000  C
  C86      1.0000 0.61390  0.62470  0.24705  Biso   1.000  C
  C87      1.0000 0.37530  0.98920  0.58039  Biso   1.000  C
  C88      1.0000 0.98920  0.61390  0.41372  Biso   1.000  C
  C89      1.0000 0.38610  0.37530  0.74705  Biso   1.000  C
  C90      1.0000 0.62470  0.01080  0.08039  Biso   1.000  C
  C91      1.0000 0.38610  0.01080  0.41961  Biso   1.000  C
  C92      1.0000 0.62470  0.61390  0.08628  Biso   1.000  C
  C93      1.0000 0.98920  0.37530  0.75295  Biso   1.000  C
  C94      1.0000 0.61390  0.98920  0.91961  Biso   1.000  C
  C95      1.0000 0.37530  0.38610  0.58628  Biso   1.000  C
  C96      1.0000 0.01080  0.62470  0.25295  Biso   1.000  C
  H97      1.0000 0.09030  0.42290  0.92000  Biso   1.000  H
  H98      1.0000 0.57710  0.66740  0.25333  Biso   1.000  H
  H99      1.0000 0.33260  0.90970  0.58667  Biso   1.000  H
  H100     1.0000 0.90970  0.57710  0.42000  Biso   1.000  H
  H101     1.0000 0.42290  0.33260  0.75333  Biso   1.000  H
  H102     1.0000 0.66740  0.09030  0.08667  Biso   1.000  H
  H103     1.0000 0.42290  0.09030  0.41333  Biso   1.000  H
  H104     1.0000 0.66740  0.57710  0.08000  Biso   1.000  H
  H105     1.0000 0.90970  0.33260  0.74667  Biso   1.000  H
  H106     1.0000 0.57710  0.90970  0.91333  Biso   1.000  H
  H107     1.0000 0.33260  0.42290  0.58000  Biso   1.000  H
  H108     1.0000 0.09030  0.66740  0.24667  Biso   1.000  H
  H109     1.0000 0.97730  0.36920  0.96200  Biso   1.000  H
  H110     1.0000 0.63080  0.60810  0.29533  Biso   1.000  H
  H111     1.0000 0.39190  0.02270  0.62867  Biso   1.000  H
  H112     1.0000 0.02270  0.63080  0.46200  Biso   1.000  H
  H113     1.0000 0.36920  0.39190  0.79533  Biso   1.000  H
  H114     1.0000 0.60810  0.97730  0.12867  Biso   1.000  H
  H115     1.0000 0.36920  0.97730  0.37133  Biso   1.000  H
  H116     1.0000 0.60810  0.63080  0.03800  Biso   1.000  H
  H117     1.0000 0.02270  0.39190  0.70467  Biso   1.000  H
  H118     1.0000 0.63080  0.02270  0.87133  Biso   1.000  H
  H119     1.0000 0.39190  0.36920  0.53800  Biso   1.000  H
  H120     1.0000 0.97730  0.60810  0.20467  Biso   1.000  H
  C97      1.0000 0.97190  0.27830  0.87110  Biso   1.000  C
  C98      1.0000 0.72170  0.69360  0.20443  Biso   1.000  C
  C99      1.0000 0.30640  0.02810  0.53777  Biso   1.000  C
  C100     1.0000 0.02810  0.72170  0.37110  Biso   1.000  C
  C101     1.0000 0.27830  0.30640  0.70443  Biso   1.000  C
  C102     1.0000 0.69360  0.97190  0.03777  Biso   1.000  C
  C103     1.0000 0.27830  0.97190  0.46223  Biso   1.000  C
  C104     1.0000 0.69360  0.72170  0.12890  Biso   1.000  C
  C105     1.0000 0.02810  0.30640  0.79557  Biso   1.000  C
  C106     1.0000 0.72170  0.02810  0.96223  Biso   1.000  C
  C107     1.0000 0.30640  0.27830  0.62890  Biso   1.000  C
  C108     1.0000 0.97190  0.69360  0.29557  Biso   1.000  C
  H121     1.0000 0.89230  0.24010  0.86540  Biso   1.000  H
  H122     1.0000 0.75990  0.65220  0.19873  Biso   1.000  H
  H123     1.0000 0.34780  0.10770  0.53207  Biso   1.000  H
  H124     1.0000 0.10770  0.75990  0.36540  Biso   1.000  H
  H125     1.0000 0.24010  0.34780  0.69873  Biso   1.000  H
  H126     1.0000 0.65220  0.89230  0.03207  Biso   1.000  H
  H127     1.0000 0.24010  0.89230  0.46793  Biso   1.000  H
  H128     1.0000 0.65220  0.75990  0.13460  Biso   1.000  H
  H129     1.0000 0.10770  0.34780  0.80127  Biso   1.000  H
  H130     1.0000 0.75990  0.10770  0.96793  Biso   1.000  H
  H131     1.0000 0.34780  0.24010  0.63460  Biso   1.000  H
  H132     1.0000 0.89230  0.65220  0.30127  Biso   1.000  H
  H133     1.0000 0.99140  0.23030  0.89770  Biso   1.000  H
  H134     1.0000 0.76970  0.76110  0.23103  Biso   1.000  H
  H135     1.0000 0.23890  0.00860  0.56437  Biso   1.000  H
  H136     1.0000 0.00860  0.76970  0.39770  Biso   1.000  H
  H137     1.0000 0.23030  0.23890  0.73103  Biso   1.000  H
  H138     1.0000 0.76110  0.99140  0.06437  Biso   1.000  H
  H139     1.0000 0.23030  0.99140  0.43563  Biso   1.000  H
  H140     1.0000 0.76110  0.76970  0.10230  Biso   1.000  H
  H141     1.0000 0.00860  0.23890  0.76897  Biso   1.000  H
  H142     1.0000 0.76970  0.00860  0.93563  Biso   1.000  H
  H143     1.0000 0.23890  0.23030  0.60230  Biso   1.000  H
  H144     1.0000 0.99140  0.76110  0.26897  Biso   1.000  H
  N25      1.0000 0.34646  0.65354  0.91670  Biso   1.000  N
  N26      1.0000 0.34646  0.69292  0.25003  Biso   1.000  N
  N27      1.0000 0.30708  0.65354  0.58337  Biso   1.000  N
  N28      1.0000 0.65354  0.34646  0.41670  Biso   1.000  N
  N29      1.0000 0.65354  0.30708  0.75003  Biso   1.000  N
  N30      1.0000 0.69292  0.34646  0.08337  Biso   1.000  N
  O1       1.0000 0.29894  0.70106  0.91670  Biso   1.000  O
  O2       1.0000 0.29894  0.59788  0.25003  Biso   1.000  O
  O3       1.0000 0.40212  0.70106  0.58337  Biso   1.000  O
  O4       1.0000 0.70106  0.29894  0.41670  Biso   1.000  O
  O5       1.0000 0.70106  0.40212  0.75003  Biso   1.000  O
  O6       1.0000 0.59788  0.29894  0.08337  Biso   1.000  O
  O7       1.0000 0.31750  0.56950  0.88090  Biso   1.000  O
  O8       1.0000 0.43050  0.74800  0.21423  Biso   1.000  O
  O9       1.0000 0.25200  0.68250  0.54757  Biso   1.000  O
  O10      1.0000 0.68250  0.43050  0.38090  Biso   1.000  O
  O11      1.0000 0.56950  0.25200  0.71423  Biso   1.000  O
  O12      1.0000 0.74800  0.31750  0.04757  Biso   1.000  O
  O13      1.0000 0.56950  0.31750  0.45243  Biso   1.000  O
  O14      1.0000 0.74800  0.43050  0.11910  Biso   1.000  O
  O15      1.0000 0.68250  0.25200  0.78577  Biso   1.000  O
  O16      1.0000 0.43050  0.68250  0.95243  Biso   1.000  O
  O17      1.0000 0.25200  0.56950  0.61910  Biso   1.000  O
  O18      1.0000 0.31750  0.74800  0.28577  Biso   1.000  O
  O19      1.0000 0.23390  0.61700  0.08330  Biso   1.000  O
  O20      1.0000 0.38300  0.61690  0.41663  Biso   1.000  O
  O21      1.0000 0.38310  0.76610  0.74997  Biso   1.000  O
  O22      1.0000 0.76610  0.38300  0.58330  Biso   1.000  O
  O23      1.0000 0.61700  0.38310  0.91663  Biso   1.000  O
  O24      1.0000 0.61690  0.23390  0.24997  Biso   1.000  O
  H145     1.0000 0.25100  0.63920  0.03940  Biso   1.000  H
  H146     1.0000 0.36080  0.61180  0.37273  Biso   1.000  H
  H147     1.0000 0.38820  0.74900  0.70607  Biso   1.000  H
  H148     1.0000 0.74900  0.36080  0.53940  Biso   1.000  H
  H149     1.0000 0.63920  0.38820  0.87273  Biso   1.000  H
  H150     1.0000 0.61180  0.25100  0.20607  Biso   1.000  H
  H151     1.0000 0.63920  0.25100  0.29393  Biso   1.000  H
  H152     1.0000 0.61180  0.36080  0.96060  Biso   1.000  H
  H153     1.0000 0.74900  0.38820  0.62727  Biso   1.000  H
  H154     1.0000 0.36080  0.74900  0.79393  Biso   1.000  H
  H155     1.0000 0.38820  0.63920  0.46060  Biso   1.000  H
  H156     1.0000 0.25100  0.61180  0.12727  Biso   1.000  H
