data_image0
_cell_length_a       5.7415
_cell_length_b       16.7408
_cell_length_c       9.2343
_cell_angle_alpha    90
_cell_angle_beta     95.568
_cell_angle_gamma    90

_symmetry_space_group_name_H-M    "P 1"
_symmetry_int_tables_number       1

loop_
  _symmetry_equiv_pos_as_xyz
  'x, y, z'

loop_
  _atom_site_label
  _atom_site_occupancy
  _atom_site_fract_x
  _atom_site_fract_y
  _atom_site_fract_z
  _atom_site_thermal_displace_type
  _atom_site_B_iso_or_equiv
  _atom_site_type_symbol
  Cu1      1.0000 0.25424  0.56592  0.48458  Biso   1.000  Cu
  Cu2      1.0000 0.74576  0.06592  0.01542  Biso   1.000  Cu
  Cu3      1.0000 0.74576  0.43408  0.51542  Biso   1.000  Cu
  Cu4      1.0000 0.25424  0.93408  0.98458  Biso   1.000  Cu
  C1       1.0000 0.83060  0.65080  0.31970  Biso   1.000  C
  C2       1.0000 0.16940  0.15080  0.18030  Biso   1.000  C
  C3       1.0000 0.16940  0.34920  0.68030  Biso   1.000  C
  C4       1.0000 0.83060  0.84920  0.81970  Biso   1.000  C
  C5       1.0000 0.99140  0.85390  0.20170  Biso   1.000  C
  C6       1.0000 0.00860  0.35390  0.29830  Biso   1.000  C
  C7       1.0000 0.00860  0.14610  0.79830  Biso   1.000  C
  C8       1.0000 0.99140  0.64610  0.70170  Biso   1.000  C
  H1       1.0000 0.94130  0.90610  0.21390  Biso   1.000  H
  H2       1.0000 0.05870  0.40610  0.28610  Biso   1.000  H
  H3       1.0000 0.05870  0.09390  0.78610  Biso   1.000  H
  H4       1.0000 0.94130  0.59390  0.71390  Biso   1.000  H
  C9       1.0000 0.87710  0.79330  0.26650  Biso   1.000  C
  C10      1.0000 0.12290  0.29330  0.23350  Biso   1.000  C
  C11      1.0000 0.12290  0.20670  0.73350  Biso   1.000  C
  C12      1.0000 0.87710  0.70670  0.76650  Biso   1.000  C
  H5       1.0000 0.75080  0.80450  0.31910  Biso   1.000  H
  H6       1.0000 0.24920  0.30450  0.18090  Biso   1.000  H
  H7       1.0000 0.24920  0.19550  0.68090  Biso   1.000  H
  H8       1.0000 0.75080  0.69550  0.81910  Biso   1.000  H
  C13      1.0000 0.95280  0.71550  0.25220  Biso   1.000  C
  C14      1.0000 0.04720  0.21550  0.24780  Biso   1.000  C
  C15      1.0000 0.04720  0.28450  0.74780  Biso   1.000  C
  C16      1.0000 0.95280  0.78450  0.75220  Biso   1.000  C
  C17      1.0000 0.13830  0.70250  0.17190  Biso   1.000  C
  C18      1.0000 0.86170  0.20250  0.32810  Biso   1.000  C
  C19      1.0000 0.86170  0.29750  0.82810  Biso   1.000  C
  C20      1.0000 0.13830  0.79750  0.67190  Biso   1.000  C
  H9       1.0000 0.19400  0.65110  0.15950  Biso   1.000  H
  H10      1.0000 0.80600  0.15110  0.34050  Biso   1.000  H
  H11      1.0000 0.80600  0.34890  0.84050  Biso   1.000  H
  H12      1.0000 0.19400  0.84890  0.65950  Biso   1.000  H
  C21      1.0000 0.24120  0.76690  0.10990  Biso   1.000  C
  C22      1.0000 0.75880  0.26690  0.39010  Biso   1.000  C
  C23      1.0000 0.75880  0.23310  0.89010  Biso   1.000  C
  C24      1.0000 0.24120  0.73310  0.60990  Biso   1.000  C
  H13      1.0000 0.36730  0.75720  0.05640  Biso   1.000  H
  H14      1.0000 0.63270  0.25720  0.44360  Biso   1.000  H
  H15      1.0000 0.63270  0.24280  0.94360  Biso   1.000  H
  H16      1.0000 0.36730  0.74280  0.55640  Biso   1.000  H
  N1       1.0000 0.60730  0.65700  0.34430  Biso   1.000  N
  N2       1.0000 0.39270  0.15700  0.15570  Biso   1.000  N
  N3       1.0000 0.39270  0.34300  0.65570  Biso   1.000  N
  N4       1.0000 0.60730  0.84300  0.84430  Biso   1.000  N
  N5       1.0000 0.55960  0.58760  0.40510  Biso   1.000  N
  N6       1.0000 0.44040  0.08760  0.09490  Biso   1.000  N
  N7       1.0000 0.44040  0.41240  0.59490  Biso   1.000  N
  N8       1.0000 0.55960  0.91240  0.90510  Biso   1.000  N
  N9       1.0000 0.74360  0.54190  0.41770  Biso   1.000  N
  N10      1.0000 0.25640  0.04190  0.08230  Biso   1.000  N
  N11      1.0000 0.25640  0.45810  0.58230  Biso   1.000  N
  N12      1.0000 0.74360  0.95810  0.91770  Biso   1.000  N
  N13      1.0000 0.92190  0.58060  0.36400  Biso   1.000  N
  N14      1.0000 0.07810  0.08060  0.13600  Biso   1.000  N
  N15      1.0000 0.07810  0.41940  0.63600  Biso   1.000  N
  N16      1.0000 0.92190  0.91940  0.86400  Biso   1.000  N
  N17      1.0000 0.17060  0.84180  0.12220  Biso   1.000  N
  N18      1.0000 0.82940  0.34180  0.37780  Biso   1.000  N
  N19      1.0000 0.82940  0.15820  0.87780  Biso   1.000  N
  N20      1.0000 0.17060  0.65820  0.62220  Biso   1.000  N
  O1       1.0000 0.50000  0.50000  0.00000  Biso   1.000  O
  O2       1.0000 0.50000  0.00000  0.50000  Biso   1.000  O
  H17      1.0000 0.47840  0.54250  0.95020  Biso   1.000  H
  H18      1.0000 0.52160  0.04250  0.54980  Biso   1.000  H
  H19      1.0000 0.52160  0.45750  0.04980  Biso   1.000  H
  H20      1.0000 0.47840  0.95750  0.45020  Biso   1.000  H
