data_image0
_cell_length_a       12.938
_cell_length_b       19.422
_cell_length_c       9.406
_cell_angle_alpha    90
_cell_angle_beta     121.891
_cell_angle_gamma    90

_symmetry_space_group_name_H-M    "P 1"
_symmetry_int_tables_number       1

loop_
  _symmetry_equiv_pos_as_xyz
  'x, y, z'

loop_
  _atom_site_label
  _atom_site_occupancy
  _atom_site_fract_x
  _atom_site_fract_y
  _atom_site_fract_z
  _atom_site_thermal_displace_type
  _atom_site_B_iso_or_equiv
  _atom_site_type_symbol
  Cu1      1.0000 0.36847  0.02274  0.94221  Biso   1.000  Cu
  Cu2      1.0000 0.86847  0.52274  0.94221  Biso   1.000  Cu
  Cu3      1.0000 0.63153  0.02274  0.55779  Biso   1.000  Cu
  Cu4      1.0000 0.13153  0.52274  0.55779  Biso   1.000  Cu
  Cu5      1.0000 0.63153  0.97726  0.05779  Biso   1.000  Cu
  Cu6      1.0000 0.13153  0.47726  0.05779  Biso   1.000  Cu
  Cu7      1.0000 0.36847  0.97726  0.44221  Biso   1.000  Cu
  Cu8      1.0000 0.86847  0.47726  0.44221  Biso   1.000  Cu
  Cu9      1.0000 0.15505  0.21313  0.55176  Biso   1.000  Cu
  Cu10     1.0000 0.65505  0.71313  0.55176  Biso   1.000  Cu
  Cu11     1.0000 0.84495  0.21313  0.94824  Biso   1.000  Cu
  Cu12     1.0000 0.34495  0.71313  0.94824  Biso   1.000  Cu
  Cu13     1.0000 0.84495  0.78687  0.44824  Biso   1.000  Cu
  Cu14     1.0000 0.34495  0.28687  0.44824  Biso   1.000  Cu
  Cu15     1.0000 0.15505  0.78687  0.05176  Biso   1.000  Cu
  Cu16     1.0000 0.65505  0.28687  0.05176  Biso   1.000  Cu
  C1       1.0000 0.34790  0.86940  0.94410  Biso   1.000  C
  C2       1.0000 0.84790  0.36940  0.94410  Biso   1.000  C
  C3       1.0000 0.65210  0.86940  0.55590  Biso   1.000  C
  C4       1.0000 0.15210  0.36940  0.55590  Biso   1.000  C
  C5       1.0000 0.65210  0.13060  0.05590  Biso   1.000  C
  C6       1.0000 0.15210  0.63060  0.05590  Biso   1.000  C
  C7       1.0000 0.34790  0.13060  0.44410  Biso   1.000  C
  C8       1.0000 0.84790  0.63060  0.44410  Biso   1.000  C
  H1       1.0000 0.40650  0.86980  0.05800  Biso   1.000  H
  H2       1.0000 0.90650  0.36980  0.05800  Biso   1.000  H
  H3       1.0000 0.59350  0.86980  0.44200  Biso   1.000  H
  H4       1.0000 0.09350  0.36980  0.44200  Biso   1.000  H
  H5       1.0000 0.59350  0.13020  0.94200  Biso   1.000  H
  H6       1.0000 0.09350  0.63020  0.94200  Biso   1.000  H
  H7       1.0000 0.40650  0.13020  0.55800  Biso   1.000  H
  H8       1.0000 0.90650  0.63020  0.55800  Biso   1.000  H
  C9       1.0000 0.22540  0.83330  0.70170  Biso   1.000  C
  C10      1.0000 0.72540  0.33330  0.70170  Biso   1.000  C
  C11      1.0000 0.77460  0.83330  0.79830  Biso   1.000  C
  C12      1.0000 0.27460  0.33330  0.79830  Biso   1.000  C
  C13      1.0000 0.77460  0.16670  0.29830  Biso   1.000  C
  C14      1.0000 0.27460  0.66670  0.29830  Biso   1.000  C
  C15      1.0000 0.22540  0.16670  0.20170  Biso   1.000  C
  C16      1.0000 0.72540  0.66670  0.20170  Biso   1.000  C
  H9       1.0000 0.17930  0.80530  0.60890  Biso   1.000  H
  H10      1.0000 0.67930  0.30530  0.60890  Biso   1.000  H
  H11      1.0000 0.82070  0.80530  0.89110  Biso   1.000  H
  H12      1.0000 0.32070  0.30530  0.89110  Biso   1.000  H
  H13      1.0000 0.82070  0.19470  0.39110  Biso   1.000  H
  H14      1.0000 0.32070  0.69470  0.39110  Biso   1.000  H
  H15      1.0000 0.17930  0.19470  0.10890  Biso   1.000  H
  H16      1.0000 0.67930  0.69470  0.10890  Biso   1.000  H
  C17      1.0000 0.14310  0.94730  0.56100  Biso   1.000  C
  C18      1.0000 0.64310  0.44730  0.56100  Biso   1.000  C
  C19      1.0000 0.85690  0.94730  0.93900  Biso   1.000  C
  C20      1.0000 0.35690  0.44730  0.93900  Biso   1.000  C
  C21      1.0000 0.85690  0.05270  0.43900  Biso   1.000  C
  C22      1.0000 0.35690  0.55270  0.43900  Biso   1.000  C
  C23      1.0000 0.14310  0.05270  0.06100  Biso   1.000  C
  C24      1.0000 0.64310  0.55270  0.06100  Biso   1.000  C
  H17      1.0000 0.11020  0.92250  0.45630  Biso   1.000  H
  H18      1.0000 0.61020  0.42250  0.45630  Biso   1.000  H
  H19      1.0000 0.88980  0.92250  0.04370  Biso   1.000  H
  H20      1.0000 0.38980  0.42250  0.04370  Biso   1.000  H
  H21      1.0000 0.88980  0.07750  0.54370  Biso   1.000  H
  H22      1.0000 0.38980  0.57750  0.54370  Biso   1.000  H
  H23      1.0000 0.11020  0.07750  0.95630  Biso   1.000  H
  H24      1.0000 0.61020  0.57750  0.95630  Biso   1.000  H
  H25      1.0000 0.19180  0.98510  0.56020  Biso   1.000  H
  H26      1.0000 0.69180  0.48510  0.56020  Biso   1.000  H
  H27      1.0000 0.80820  0.98510  0.93980  Biso   1.000  H
  H28      1.0000 0.30820  0.48510  0.93980  Biso   1.000  H
  H29      1.0000 0.80820  0.01490  0.43980  Biso   1.000  H
  H30      1.0000 0.30820  0.51490  0.43980  Biso   1.000  H
  H31      1.0000 0.19180  0.01490  0.06020  Biso   1.000  H
  H32      1.0000 0.69180  0.51490  0.06020  Biso   1.000  H
  C25      1.0000 0.03960  0.97590  0.57290  Biso   1.000  C
  C26      1.0000 0.53960  0.47590  0.57290  Biso   1.000  C
  C27      1.0000 0.96040  0.97590  0.92710  Biso   1.000  C
  C28      1.0000 0.46040  0.47590  0.92710  Biso   1.000  C
  C29      1.0000 0.96040  0.02410  0.42710  Biso   1.000  C
  C30      1.0000 0.46040  0.52410  0.42710  Biso   1.000  C
  C31      1.0000 0.03960  0.02410  0.07290  Biso   1.000  C
  C32      1.0000 0.53960  0.52410  0.07290  Biso   1.000  C
  H33      1.0000 0.07220  0.00070  0.67760  Biso   1.000  H
  H34      1.0000 0.57220  0.50070  0.67760  Biso   1.000  H
  H35      1.0000 0.92780  0.00070  0.82240  Biso   1.000  H
  H36      1.0000 0.42780  0.50070  0.82240  Biso   1.000  H
  H37      1.0000 0.92780  0.99930  0.32240  Biso   1.000  H
  H38      1.0000 0.42780  0.49930  0.32240  Biso   1.000  H
  H39      1.0000 0.07220  0.99930  0.17760  Biso   1.000  H
  H40      1.0000 0.57220  0.49930  0.17760  Biso   1.000  H
  H41      1.0000 0.99030  0.93820  0.57270  Biso   1.000  H
  H42      1.0000 0.49030  0.43820  0.57270  Biso   1.000  H
  H43      1.0000 0.00970  0.93820  0.92730  Biso   1.000  H
  H44      1.0000 0.50970  0.43820  0.92730  Biso   1.000  H
  H45      1.0000 0.00970  0.06180  0.42730  Biso   1.000  H
  H46      1.0000 0.50970  0.56180  0.42730  Biso   1.000  H
  H47      1.0000 0.99030  0.06180  0.07270  Biso   1.000  H
  H48      1.0000 0.49030  0.56180  0.07270  Biso   1.000  H
  C33      1.0000 0.29000  0.09830  0.79840  Biso   1.000  C
  C34      1.0000 0.79000  0.59830  0.79840  Biso   1.000  C
  C35      1.0000 0.71000  0.09830  0.70160  Biso   1.000  C
  C36      1.0000 0.21000  0.59830  0.70160  Biso   1.000  C
  C37      1.0000 0.71000  0.90170  0.20160  Biso   1.000  C
  C38      1.0000 0.21000  0.40170  0.20160  Biso   1.000  C
  C39      1.0000 0.29000  0.90170  0.29840  Biso   1.000  C
  C40      1.0000 0.79000  0.40170  0.29840  Biso   1.000  C
  N1       1.0000 0.24050  0.14290  0.71190  Biso   1.000  N
  N2       1.0000 0.74050  0.64290  0.71190  Biso   1.000  N
  N3       1.0000 0.75950  0.14290  0.78810  Biso   1.000  N
  N4       1.0000 0.25950  0.64290  0.78810  Biso   1.000  N
  N5       1.0000 0.75950  0.85710  0.28810  Biso   1.000  N
  N6       1.0000 0.25950  0.35710  0.28810  Biso   1.000  N
  N7       1.0000 0.24050  0.85710  0.21190  Biso   1.000  N
  N8       1.0000 0.74050  0.35710  0.21190  Biso   1.000  N
  C41      1.0000 0.03410  0.21660  0.31910  Biso   1.000  C
  C42      1.0000 0.53410  0.71660  0.31910  Biso   1.000  C
  C43      1.0000 0.96590  0.21660  0.18090  Biso   1.000  C
  C44      1.0000 0.46590  0.71660  0.18090  Biso   1.000  C
  C45      1.0000 0.96590  0.78340  0.68090  Biso   1.000  C
  C46      1.0000 0.46590  0.28340  0.68090  Biso   1.000  C
  C47      1.0000 0.03410  0.78340  0.81910  Biso   1.000  C
  C48      1.0000 0.53410  0.28340  0.81910  Biso   1.000  C
  C49      1.0000 0.47380  0.01480  0.18180  Biso   1.000  C
  C50      1.0000 0.97380  0.51480  0.18180  Biso   1.000  C
  C51      1.0000 0.52620  0.01480  0.31820  Biso   1.000  C
  C52      1.0000 0.02620  0.51480  0.31820  Biso   1.000  C
  C53      1.0000 0.52620  0.98520  0.81820  Biso   1.000  C
  C54      1.0000 0.02620  0.48520  0.81820  Biso   1.000  C
  C55      1.0000 0.47380  0.98520  0.68180  Biso   1.000  C
  C56      1.0000 0.97380  0.48520  0.68180  Biso   1.000  C
  N9       1.0000 0.30500  0.81090  0.85470  Biso   1.000  N
  N10      1.0000 0.80500  0.31090  0.85470  Biso   1.000  N
  N11      1.0000 0.69500  0.81090  0.64530  Biso   1.000  N
  N12      1.0000 0.19500  0.31090  0.64530  Biso   1.000  N
  N13      1.0000 0.69500  0.18910  0.14530  Biso   1.000  N
  N14      1.0000 0.19500  0.68910  0.14530  Biso   1.000  N
  N15      1.0000 0.30500  0.18910  0.35470  Biso   1.000  N
  N16      1.0000 0.80500  0.68910  0.35470  Biso   1.000  N
  N17      1.0000 0.30050  0.92540  0.85770  Biso   1.000  N
  N18      1.0000 0.80050  0.42540  0.85770  Biso   1.000  N
  N19      1.0000 0.69950  0.92540  0.64230  Biso   1.000  N
  N20      1.0000 0.19950  0.42540  0.64230  Biso   1.000  N
  N21      1.0000 0.69950  0.07460  0.14230  Biso   1.000  N
  N22      1.0000 0.19950  0.57460  0.14230  Biso   1.000  N
  N23      1.0000 0.30050  0.07460  0.35770  Biso   1.000  N
  N24      1.0000 0.80050  0.57460  0.35770  Biso   1.000  N
  N25      1.0000 0.22080  0.90120  0.69990  Biso   1.000  N
  N26      1.0000 0.72080  0.40120  0.69990  Biso   1.000  N
  N27      1.0000 0.77920  0.90120  0.80010  Biso   1.000  N
  N28      1.0000 0.27920  0.40120  0.80010  Biso   1.000  N
  N29      1.0000 0.77920  0.09880  0.30010  Biso   1.000  N
  N30      1.0000 0.27920  0.59880  0.30010  Biso   1.000  N
  N31      1.0000 0.22080  0.09880  0.19990  Biso   1.000  N
  N32      1.0000 0.72080  0.59880  0.19990  Biso   1.000  N
  O1       1.0000 0.00000  0.79020  0.25000  Biso   1.000  O
  O2       1.0000 0.50000  0.29020  0.25000  Biso   1.000  O
  O3       1.0000 0.00000  0.20980  0.75000  Biso   1.000  O
  O4       1.0000 0.50000  0.70980  0.75000  Biso   1.000  O
  H49      1.0000 0.99460  0.82240  0.18510  Biso   1.000  H
  H50      1.0000 0.49460  0.32240  0.18510  Biso   1.000  H
  H51      1.0000 0.00540  0.82240  0.31490  Biso   1.000  H
  H52      1.0000 0.50540  0.32240  0.31490  Biso   1.000  H
  H53      1.0000 0.00540  0.17760  0.81490  Biso   1.000  H
  H54      1.0000 0.50540  0.67760  0.81490  Biso   1.000  H
  H55      1.0000 0.99460  0.17760  0.68510  Biso   1.000  H
  H56      1.0000 0.49460  0.67760  0.68510  Biso   1.000  H
  H57      1.0000 0.00040  0.80860  0.33230  Biso   1.000  H
  H58      1.0000 0.50040  0.30860  0.33230  Biso   1.000  H
  H59      1.0000 0.99960  0.80860  0.16770  Biso   1.000  H
  H60      1.0000 0.49960  0.30860  0.16770  Biso   1.000  H
  H61      1.0000 0.99960  0.19140  0.66770  Biso   1.000  H
  H62      1.0000 0.49960  0.69140  0.66770  Biso   1.000  H
  H63      1.0000 0.00040  0.19140  0.83230  Biso   1.000  H
  H64      1.0000 0.50040  0.69140  0.83230  Biso   1.000  H
  O5       1.0000 0.07300  0.70110  0.38600  Biso   1.000  O
  O6       1.0000 0.57300  0.20110  0.38600  Biso   1.000  O
  O7       1.0000 0.92700  0.70110  0.11400  Biso   1.000  O
  O8       1.0000 0.42700  0.20110  0.11400  Biso   1.000  O
  O9       1.0000 0.92700  0.29890  0.61400  Biso   1.000  O
  O10      1.0000 0.42700  0.79890  0.61400  Biso   1.000  O
  O11      1.0000 0.07300  0.29890  0.88600  Biso   1.000  O
  O12      1.0000 0.57300  0.79890  0.88600  Biso   1.000  O
  H65      1.0000 0.00170  0.68560  0.32260  Biso   1.000  H
  H66      1.0000 0.50170  0.18560  0.32260  Biso   1.000  H
  H67      1.0000 0.99830  0.68560  0.17740  Biso   1.000  H
  H68      1.0000 0.49830  0.18560  0.17740  Biso   1.000  H
  H69      1.0000 0.99830  0.31440  0.67740  Biso   1.000  H
  H70      1.0000 0.49830  0.81440  0.67740  Biso   1.000  H
  H71      1.0000 0.00170  0.31440  0.82260  Biso   1.000  H
  H72      1.0000 0.50170  0.81440  0.82260  Biso   1.000  H
  H73      1.0000 0.10260  0.70910  0.32460  Biso   1.000  H
  H74      1.0000 0.60260  0.20910  0.32460  Biso   1.000  H
  H75      1.0000 0.89740  0.70910  0.17540  Biso   1.000  H
  H76      1.0000 0.39740  0.20910  0.17540  Biso   1.000  H
  H77      1.0000 0.89740  0.29090  0.67540  Biso   1.000  H
  H78      1.0000 0.39740  0.79090  0.67540  Biso   1.000  H
  H79      1.0000 0.10260  0.29090  0.82460  Biso   1.000  H
  H80      1.0000 0.60260  0.79090  0.82460  Biso   1.000  H
