data_image0
_cell_length_a       17.804
_cell_length_b       14.864
_cell_length_c       24.31
_cell_angle_alpha    90
_cell_angle_beta     111.371
_cell_angle_gamma    90

_symmetry_space_group_name_H-M    "P 1"
_symmetry_int_tables_number       1

loop_
  _symmetry_equiv_pos_as_xyz
  'x, y, z'

loop_
  _atom_site_label
  _atom_site_occupancy
  _atom_site_fract_x
  _atom_site_fract_y
  _atom_site_fract_z
  _atom_site_thermal_displace_type
  _atom_site_B_iso_or_equiv
  _atom_site_type_symbol
  Cu1      1.0000 0.26906  0.16849  0.53735  Biso   1.000  Cu
  Cu2      1.0000 0.23094  0.66849  0.96265  Biso   1.000  Cu
  Cu3      1.0000 0.73094  0.83151  0.46265  Biso   1.000  Cu
  Cu4      1.0000 0.76906  0.33151  0.03735  Biso   1.000  Cu
  Cu5      1.0000 0.30222  0.66851  0.48963  Biso   1.000  Cu
  Cu6      1.0000 0.19778  0.16851  0.01037  Biso   1.000  Cu
  Cu7      1.0000 0.69778  0.33149  0.51037  Biso   1.000  Cu
  Cu8      1.0000 0.80222  0.83149  0.98963  Biso   1.000  Cu
  Cl1      1.0000 0.15789  0.35828  0.64799  Biso   1.000  Cl
  Cl2      1.0000 0.34211  0.85828  0.85201  Biso   1.000  Cl
  Cl3      1.0000 0.84211  0.64172  0.35201  Biso   1.000  Cl
  Cl4      1.0000 0.65789  0.14172  0.14799  Biso   1.000  Cl
  Cl5      1.0000 0.33063  0.36409  0.70280  Biso   1.000  Cl
  Cl6      1.0000 0.16937  0.86409  0.79720  Biso   1.000  Cl
  Cl7      1.0000 0.66937  0.63591  0.29720  Biso   1.000  Cl
  Cl8      1.0000 0.83063  0.13591  0.20280  Biso   1.000  Cl
  Cl9      1.0000 0.34697  0.86487  0.35036  Biso   1.000  Cl
  Cl10     1.0000 0.15303  0.36487  0.14964  Biso   1.000  Cl
  Cl11     1.0000 0.65303  0.13513  0.64964  Biso   1.000  Cl
  Cl12     1.0000 0.84697  0.63513  0.85036  Biso   1.000  Cl
  Cl13     1.0000 0.17512  0.86894  0.31928  Biso   1.000  Cl
  Cl14     1.0000 0.32488  0.36894  0.18072  Biso   1.000  Cl
  Cl15     1.0000 0.82488  0.13106  0.68072  Biso   1.000  Cl
  Cl16     1.0000 0.67512  0.63106  0.81928  Biso   1.000  Cl
  N1       1.0000 0.26840  0.10790  0.46341  Biso   1.000  N
  N2       1.0000 0.23160  0.60790  0.03659  Biso   1.000  N
  N3       1.0000 0.73160  0.89210  0.53659  Biso   1.000  N
  N4       1.0000 0.76840  0.39210  0.96341  Biso   1.000  N
  N5       1.0000 0.26550  0.06010  0.57990  Biso   1.000  N
  N6       1.0000 0.23450  0.56010  0.92010  Biso   1.000  N
  N7       1.0000 0.73450  0.93990  0.42010  Biso   1.000  N
  N8       1.0000 0.76550  0.43990  0.07990  Biso   1.000  N
  N9       1.0000 0.29420  0.79260  0.48851  Biso   1.000  N
  N10      1.0000 0.20580  0.29260  0.01149  Biso   1.000  N
  N11      1.0000 0.70580  0.20740  0.51149  Biso   1.000  N
  N12      1.0000 0.79420  0.70740  0.98851  Biso   1.000  N
  N13      1.0000 0.29730  0.56030  0.44465  Biso   1.000  N
  N14      1.0000 0.20270  0.06030  0.05535  Biso   1.000  N
  N15      1.0000 0.70270  0.43970  0.55535  Biso   1.000  N
  N16      1.0000 0.79730  0.93970  0.94465  Biso   1.000  N
  N17      1.0000 0.29850  0.60830  0.56297  Biso   1.000  N
  N18      1.0000 0.20150  0.10830  0.93703  Biso   1.000  N
  N19      1.0000 0.70150  0.39170  0.43703  Biso   1.000  N
  N20      1.0000 0.79850  0.89170  0.06297  Biso   1.000  N
  N21      1.0000 0.27830  0.29350  0.53899  Biso   1.000  N
  N22      1.0000 0.22170  0.79350  0.96101  Biso   1.000  N
  N23      1.0000 0.72170  0.70650  0.46101  Biso   1.000  N
  N24      1.0000 0.77830  0.20650  0.03899  Biso   1.000  N
  C1       1.0000 0.27630  0.96080  0.50410  Biso   1.000  C
  C2       1.0000 0.22370  0.46080  0.99590  Biso   1.000  C
  C3       1.0000 0.72370  0.03920  0.49590  Biso   1.000  C
  C4       1.0000 0.77630  0.53920  0.00410  Biso   1.000  C
  C5       1.0000 0.27260  0.02250  0.45950  Biso   1.000  C
  C6       1.0000 0.22740  0.52250  0.04050  Biso   1.000  C
  C7       1.0000 0.72740  0.97750  0.54050  Biso   1.000  C
  C8       1.0000 0.77260  0.47750  0.95950  Biso   1.000  C
  C9       1.0000 0.27190  0.98090  0.56010  Biso   1.000  C
  C10      1.0000 0.22810  0.48090  0.93990  Biso   1.000  C
  C11      1.0000 0.72810  0.01910  0.43990  Biso   1.000  C
  C12      1.0000 0.77190  0.51910  0.06010  Biso   1.000  C
  C13      1.0000 0.28490  0.86800  0.49430  Biso   1.000  C
  C14      1.0000 0.21510  0.36800  0.00570  Biso   1.000  C
  C15      1.0000 0.71510  0.13200  0.50570  Biso   1.000  C
  C16      1.0000 0.78490  0.63200  0.99430  Biso   1.000  C
  C17      1.0000 0.26710  0.16590  0.41548  Biso   1.000  C
  C18      1.0000 0.23290  0.66590  0.08452  Biso   1.000  C
  C19      1.0000 0.73290  0.83410  0.58452  Biso   1.000  C
  C20      1.0000 0.76710  0.33410  0.91548  Biso   1.000  C
  C21      1.0000 0.19480  0.19160  0.37290  Biso   1.000  C
  C22      1.0000 0.30520  0.69160  0.12710  Biso   1.000  C
  C23      1.0000 0.80520  0.80840  0.62710  Biso   1.000  C
  C24      1.0000 0.69480  0.30840  0.87290  Biso   1.000  C
  C25      1.0000 0.19510  0.25550  0.33140  Biso   1.000  C
  C26      1.0000 0.30490  0.75550  0.16860  Biso   1.000  C
  C27      1.0000 0.80490  0.74450  0.66860  Biso   1.000  C
  C28      1.0000 0.69510  0.24450  0.83140  Biso   1.000  C
  C29      1.0000 0.26540  0.29300  0.33220  Biso   1.000  C
  C30      1.0000 0.23460  0.79300  0.16780  Biso   1.000  C
  C31      1.0000 0.73460  0.70700  0.66780  Biso   1.000  C
  C32      1.0000 0.76540  0.20700  0.83220  Biso   1.000  C
  C33      1.0000 0.33620  0.26620  0.37370  Biso   1.000  C
  C34      1.0000 0.16380  0.76620  0.12630  Biso   1.000  C
  C35      1.0000 0.66380  0.73380  0.62630  Biso   1.000  C
  C36      1.0000 0.83620  0.23380  0.87370  Biso   1.000  C
  C37      1.0000 0.34030  0.20190  0.41700  Biso   1.000  C
  C38      1.0000 0.15970  0.70190  0.08300  Biso   1.000  C
  C39      1.0000 0.65970  0.79810  0.58300  Biso   1.000  C
  C40      1.0000 0.84030  0.29810  0.91700  Biso   1.000  C
  C41      1.0000 0.11330  0.15320  0.37240  Biso   1.000  C
  C42      1.0000 0.38670  0.65320  0.12760  Biso   1.000  C
  C43      1.0000 0.88670  0.84680  0.62760  Biso   1.000  C
  C44      1.0000 0.61330  0.34680  0.87240  Biso   1.000  C
  C45      1.0000 0.06410  0.11210  0.31250  Biso   1.000  C
  C46      1.0000 0.43590  0.61210  0.18750  Biso   1.000  C
  C47      1.0000 0.93590  0.88790  0.68750  Biso   1.000  C
  C48      1.0000 0.56410  0.38790  0.81250  Biso   1.000  C
  C49      1.0000 0.06720  0.22520  0.39040  Biso   1.000  C
  C50      1.0000 0.43280  0.72520  0.10960  Biso   1.000  C
  C51      1.0000 0.93280  0.77480  0.60960  Biso   1.000  C
  C52      1.0000 0.56720  0.27480  0.89040  Biso   1.000  C
  C53      1.0000 0.42070  0.17230  0.46330  Biso   1.000  C
  C54      1.0000 0.07930  0.67230  0.03670  Biso   1.000  C
  C55      1.0000 0.57930  0.82770  0.53670  Biso   1.000  C
  C56      1.0000 0.92070  0.32770  0.96330  Biso   1.000  C
  C57      1.0000 0.45530  0.09320  0.43820  Biso   1.000  C
  C58      1.0000 0.04470  0.59320  0.06180  Biso   1.000  C
  C59      1.0000 0.54470  0.90680  0.56180  Biso   1.000  C
  C60      1.0000 0.95530  0.40680  0.93820  Biso   1.000  C
  C61      1.0000 0.48200  0.24770  0.48520  Biso   1.000  C
  C62      1.0000 0.01800  0.74770  0.01480  Biso   1.000  C
  C63      1.0000 0.51800  0.75230  0.51480  Biso   1.000  C
  C64      1.0000 0.98200  0.25230  0.98520  Biso   1.000  C
  C65      1.0000 0.26500  0.06560  0.63890  Biso   1.000  C
  C66      1.0000 0.23500  0.56560  0.86110  Biso   1.000  C
  C67      1.0000 0.73500  0.93440  0.36110  Biso   1.000  C
  C68      1.0000 0.76500  0.43440  0.13890  Biso   1.000  C
  C69      1.0000 0.33880  0.08040  0.68560  Biso   1.000  C
  C70      1.0000 0.16120  0.58040  0.81440  Biso   1.000  C
  C71      1.0000 0.66120  0.91960  0.31440  Biso   1.000  C
  C72      1.0000 0.83880  0.41960  0.18560  Biso   1.000  C
  C73      1.0000 0.33630  0.08660  0.74220  Biso   1.000  C
  C74      1.0000 0.16370  0.58660  0.75780  Biso   1.000  C
  C75      1.0000 0.66370  0.91340  0.25780  Biso   1.000  C
  C76      1.0000 0.83630  0.41340  0.24220  Biso   1.000  C
  C77      1.0000 0.26570  0.07800  0.75210  Biso   1.000  C
  C78      1.0000 0.23430  0.57800  0.74790  Biso   1.000  C
  C79      1.0000 0.73430  0.92200  0.24790  Biso   1.000  C
  C80      1.0000 0.76570  0.42200  0.25210  Biso   1.000  C
  C81      1.0000 0.19320  0.06570  0.70600  Biso   1.000  C
  C82      1.0000 0.30680  0.56570  0.79400  Biso   1.000  C
  C83      1.0000 0.80680  0.93430  0.29400  Biso   1.000  C
  C84      1.0000 0.69320  0.43430  0.20600  Biso   1.000  C
  C85      1.0000 0.19180  0.06030  0.64880  Biso   1.000  C
  C86      1.0000 0.30820  0.56030  0.85120  Biso   1.000  C
  C87      1.0000 0.80820  0.93970  0.35120  Biso   1.000  C
  C88      1.0000 0.69180  0.43970  0.14880  Biso   1.000  C
  C89      1.0000 0.41740  0.09350  0.67320  Biso   1.000  C
  C90      1.0000 0.08260  0.59350  0.82680  Biso   1.000  C
  C91      1.0000 0.58260  0.90650  0.32680  Biso   1.000  C
  C92      1.0000 0.91740  0.40650  0.17320  Biso   1.000  C
  C93      1.0000 0.47390  0.15950  0.71410  Biso   1.000  C
  C94      1.0000 0.02610  0.65950  0.78590  Biso   1.000  C
  C95      1.0000 0.52610  0.84050  0.28590  Biso   1.000  C
  C96      1.0000 0.97390  0.34050  0.21410  Biso   1.000  C
  C97      1.0000 0.45710  0.00080  0.67720  Biso   1.000  C
  C98      1.0000 0.04290  0.50080  0.82280  Biso   1.000  C
  C99      1.0000 0.54290  0.99920  0.32280  Biso   1.000  C
  C100     1.0000 0.95710  0.49920  0.17720  Biso   1.000  C
  C101     1.0000 0.11410  0.04730  0.59560  Biso   1.000  C
  C102     1.0000 0.38590  0.54730  0.90440  Biso   1.000  C
  C103     1.0000 0.88590  0.95270  0.40440  Biso   1.000  C
  C104     1.0000 0.61410  0.45270  0.09560  Biso   1.000  C
  C105     1.0000 0.06340  0.12200  0.58860  Biso   1.000  C
  C106     1.0000 0.43660  0.62200  0.91140  Biso   1.000  C
  C107     1.0000 0.93660  0.87800  0.41140  Biso   1.000  C
  C108     1.0000 0.56340  0.37800  0.08860  Biso   1.000  C
  C109     1.0000 0.07140  0.97850  0.59720  Biso   1.000  C
  C110     1.0000 0.42860  0.47850  0.90280  Biso   1.000  C
  C111     1.0000 0.92860  0.02150  0.40280  Biso   1.000  C
  C112     1.0000 0.57140  0.52150  0.09720  Biso   1.000  C
  C113     1.0000 0.29610  0.46060  0.52300  Biso   1.000  C
  C114     1.0000 0.20390  0.96060  0.97700  Biso   1.000  C
  C115     1.0000 0.70390  0.53940  0.47700  Biso   1.000  C
  C116     1.0000 0.79610  0.03940  0.02300  Biso   1.000  C
  C117     1.0000 0.29440  0.48110  0.46540  Biso   1.000  C
  C118     1.0000 0.20560  0.98110  0.03460  Biso   1.000  C
  C119     1.0000 0.70560  0.51890  0.53460  Biso   1.000  C
  C120     1.0000 0.79440  0.01890  0.96540  Biso   1.000  C
  C121     1.0000 0.29260  0.52440  0.56750  Biso   1.000  C
  C122     1.0000 0.20740  0.02440  0.93250  Biso   1.000  C
  C123     1.0000 0.70740  0.47560  0.43250  Biso   1.000  C
  C124     1.0000 0.79260  0.97560  0.06750  Biso   1.000  C
  C125     1.0000 0.28710  0.36700  0.53370  Biso   1.000  C
  C126     1.0000 0.21290  0.86700  0.96630  Biso   1.000  C
  C127     1.0000 0.71290  0.63300  0.46630  Biso   1.000  C
  C128     1.0000 0.78710  0.13300  0.03370  Biso   1.000  C
  C129     1.0000 0.27650  0.56690  0.38240  Biso   1.000  C
  C130     1.0000 0.22350  0.06690  0.11760  Biso   1.000  C
  C131     1.0000 0.72350  0.43310  0.61760  Biso   1.000  C
  C132     1.0000 0.77650  0.93310  0.88240  Biso   1.000  C
  C133     1.0000 0.19510  0.57160  0.34500  Biso   1.000  C
  C134     1.0000 0.30490  0.07160  0.15500  Biso   1.000  C
  C135     1.0000 0.80490  0.42840  0.65500  Biso   1.000  C
  C136     1.0000 0.69510  0.92840  0.84500  Biso   1.000  C
  C137     1.0000 0.17430  0.57770  0.28470  Biso   1.000  C
  C138     1.0000 0.32570  0.07770  0.21530  Biso   1.000  C
  C139     1.0000 0.82570  0.42230  0.71530  Biso   1.000  C
  C140     1.0000 0.67430  0.92230  0.78470  Biso   1.000  C
  C141     1.0000 0.23380  0.58080  0.26040  Biso   1.000  C
  C142     1.0000 0.26620  0.08080  0.23960  Biso   1.000  C
  C143     1.0000 0.76620  0.41920  0.73960  Biso   1.000  C
  C144     1.0000 0.73380  0.91920  0.76040  Biso   1.000  C
  C145     1.0000 0.31400  0.57830  0.29670  Biso   1.000  C
  C146     1.0000 0.18600  0.07830  0.20330  Biso   1.000  C
  C147     1.0000 0.68600  0.42170  0.70330  Biso   1.000  C
  C148     1.0000 0.81400  0.92170  0.79670  Biso   1.000  C
  C149     1.0000 0.33820  0.57380  0.35800  Biso   1.000  C
  C150     1.0000 0.16180  0.07380  0.14200  Biso   1.000  C
  C151     1.0000 0.66180  0.42620  0.64200  Biso   1.000  C
  C152     1.0000 0.83820  0.92620  0.85800  Biso   1.000  C
  C153     1.0000 0.13060  0.57050  0.37290  Biso   1.000  C
  C154     1.0000 0.36940  0.07050  0.12710  Biso   1.000  C
  C155     1.0000 0.86940  0.42950  0.62710  Biso   1.000  C
  C156     1.0000 0.63060  0.92950  0.87290  Biso   1.000  C
  C157     1.0000 0.09510  0.47570  0.37080  Biso   1.000  C
  C158     1.0000 0.40490  0.97570  0.12920  Biso   1.000  C
  C159     1.0000 0.90490  0.52430  0.62920  Biso   1.000  C
  C160     1.0000 0.59510  0.02430  0.87080  Biso   1.000  C
  C161     1.0000 0.06400  0.63940  0.34380  Biso   1.000  C
  C162     1.0000 0.43600  0.13940  0.15620  Biso   1.000  C
  C163     1.0000 0.93600  0.36060  0.65620  Biso   1.000  C
  C164     1.0000 0.56400  0.86060  0.84380  Biso   1.000  C
  C165     1.0000 0.42570  0.57530  0.39900  Biso   1.000  C
  C166     1.0000 0.07430  0.07530  0.10100  Biso   1.000  C
  C167     1.0000 0.57430  0.42470  0.60100  Biso   1.000  C
  C168     1.0000 0.92570  0.92470  0.89900  Biso   1.000  C
  C169     1.0000 0.48120  0.63160  0.37560  Biso   1.000  C
  C170     1.0000 0.01880  0.13160  0.12440  Biso   1.000  C
  C171     1.0000 0.51880  0.36840  0.62440  Biso   1.000  C
  C172     1.0000 0.98120  0.86840  0.87560  Biso   1.000  C
  C173     1.0000 0.46170  0.48190  0.41570  Biso   1.000  C
  C174     1.0000 0.03830  0.98190  0.08430  Biso   1.000  C
  C175     1.0000 0.53830  0.51810  0.58430  Biso   1.000  C
  C176     1.0000 0.96170  0.01810  0.91570  Biso   1.000  C
  C177     1.0000 0.28320  0.66640  0.60550  Biso   1.000  C
  C178     1.0000 0.21680  0.16640  0.89450  Biso   1.000  C
  C179     1.0000 0.71680  0.33360  0.39450  Biso   1.000  C
  C180     1.0000 0.78320  0.83360  0.10550  Biso   1.000  C
  C181     1.0000 0.34620  0.70410  0.65230  Biso   1.000  C
  C182     1.0000 0.15380  0.20410  0.84770  Biso   1.000  C
  C183     1.0000 0.65380  0.29590  0.34770  Biso   1.000  C
  C184     1.0000 0.84620  0.79590  0.15230  Biso   1.000  C
  C185     1.0000 0.33230  0.76620  0.68880  Biso   1.000  C
  C186     1.0000 0.16770  0.26620  0.81120  Biso   1.000  C
  C187     1.0000 0.66770  0.23380  0.31120  Biso   1.000  C
  C188     1.0000 0.83230  0.73380  0.18880  Biso   1.000  C
  C189     1.0000 0.25380  0.79610  0.67910  Biso   1.000  C
  C190     1.0000 0.24620  0.29610  0.82090  Biso   1.000  C
  C191     1.0000 0.74620  0.20390  0.32090  Biso   1.000  C
  C192     1.0000 0.75380  0.70390  0.17910  Biso   1.000  C
  C193     1.0000 0.19060  0.75700  0.63280  Biso   1.000  C
  C194     1.0000 0.30940  0.25700  0.86720  Biso   1.000  C
  C195     1.0000 0.80940  0.24300  0.36720  Biso   1.000  C
  C196     1.0000 0.69060  0.74300  0.13280  Biso   1.000  C
  C197     1.0000 0.20390  0.69310  0.59530  Biso   1.000  C
  C198     1.0000 0.29610  0.19310  0.90470  Biso   1.000  C
  C199     1.0000 0.79610  0.30690  0.40470  Biso   1.000  C
  C200     1.0000 0.70390  0.80690  0.09530  Biso   1.000  C
  C201     1.0000 0.43410  0.67060  0.66410  Biso   1.000  C
  C202     1.0000 0.06590  0.17060  0.83590  Biso   1.000  C
  C203     1.0000 0.56590  0.32940  0.33590  Biso   1.000  C
  C204     1.0000 0.93410  0.82940  0.16410  Biso   1.000  C
  C205     1.0000 0.45430  0.58930  0.70620  Biso   1.000  C
  C206     1.0000 0.04570  0.08930  0.79380  Biso   1.000  C
  C207     1.0000 0.54570  0.41070  0.29380  Biso   1.000  C
  C208     1.0000 0.95430  0.91070  0.20620  Biso   1.000  C
  C209     1.0000 0.49560  0.74440  0.68800  Biso   1.000  C
  C210     1.0000 0.00440  0.24440  0.81200  Biso   1.000  C
  C211     1.0000 0.50440  0.25560  0.31200  Biso   1.000  C
  C212     1.0000 0.99560  0.75560  0.18800  Biso   1.000  C
  C213     1.0000 0.13230  0.65660  0.54450  Biso   1.000  C
  C214     1.0000 0.36770  0.15660  0.95550  Biso   1.000  C
  C215     1.0000 0.86770  0.34340  0.45550  Biso   1.000  C
  C216     1.0000 0.63230  0.84340  0.04450  Biso   1.000  C
  C217     1.0000 0.07820  0.59530  0.56780  Biso   1.000  C
  C218     1.0000 0.42180  0.09530  0.93220  Biso   1.000  C
  C219     1.0000 0.92180  0.40470  0.43220  Biso   1.000  C
  C220     1.0000 0.57820  0.90470  0.06780  Biso   1.000  C
  C221     1.0000 0.08150  0.72810  0.50380  Biso   1.000  C
  C222     1.0000 0.41850  0.22810  0.99620  Biso   1.000  C
  C223     1.0000 0.91850  0.27190  0.49620  Biso   1.000  C
  C224     1.0000 0.58150  0.77190  0.00380  Biso   1.000  C
  C225     1.0000 0.24620  0.29240  0.67250  Biso   1.000  C
  C226     1.0000 0.25380  0.79240  0.82750  Biso   1.000  C
  C227     1.0000 0.75380  0.70760  0.32750  Biso   1.000  C
  C228     1.0000 0.74620  0.20760  0.17250  Biso   1.000  C
  C229     1.0000 0.25940  0.79990  0.33510  Biso   1.000  C
  C230     1.0000 0.24060  0.29990  0.16490  Biso   1.000  C
  C231     1.0000 0.74060  0.20010  0.66490  Biso   1.000  C
  C232     1.0000 0.75940  0.70010  0.83510  Biso   1.000  C
  H1       1.0000 0.27490  0.99810  0.42400  Biso   1.000  H
  H2       1.0000 0.22510  0.49810  0.07600  Biso   1.000  H
  H3       1.0000 0.72510  0.00190  0.57600  Biso   1.000  H
  H4       1.0000 0.77490  0.50190  0.92400  Biso   1.000  H
  H5       1.0000 0.27210  0.93130  0.58480  Biso   1.000  H
  H6       1.0000 0.22790  0.43130  0.91520  Biso   1.000  H
  H7       1.0000 0.72790  0.06870  0.41520  Biso   1.000  H
  H8       1.0000 0.77210  0.56870  0.08480  Biso   1.000  H
  H9       1.0000 0.14550  0.27500  0.30270  Biso   1.000  H
  H10      1.0000 0.35450  0.77500  0.19730  Biso   1.000  H
  H11      1.0000 0.85450  0.72500  0.69730  Biso   1.000  H
  H12      1.0000 0.64550  0.22500  0.80270  Biso   1.000  H
  H13      1.0000 0.26520  0.33680  0.30370  Biso   1.000  H
  H14      1.0000 0.23480  0.83680  0.19630  Biso   1.000  H
  H15      1.0000 0.73480  0.66320  0.69630  Biso   1.000  H
  H16      1.0000 0.76520  0.16320  0.80370  Biso   1.000  H
  H17      1.0000 0.38540  0.29180  0.37430  Biso   1.000  H
  H18      1.0000 0.11460  0.79180  0.12570  Biso   1.000  H
  H19      1.0000 0.61460  0.70820  0.62570  Biso   1.000  H
  H20      1.0000 0.88540  0.20820  0.87430  Biso   1.000  H
  H21      1.0000 0.12520  0.10710  0.40140  Biso   1.000  H
  H22      1.0000 0.37480  0.60710  0.09860  Biso   1.000  H
  H23      1.0000 0.87480  0.89290  0.59860  Biso   1.000  H
  H24      1.0000 0.62520  0.39290  0.90140  Biso   1.000  H
  H25      1.0000 0.03000  0.15700  0.28820  Biso   1.000  H
  H26      1.0000 0.47000  0.65700  0.21180  Biso   1.000  H
  H27      1.0000 0.97000  0.84300  0.71180  Biso   1.000  H
  H28      1.0000 0.53000  0.34300  0.78820  Biso   1.000  H
  H29      1.0000 0.03210  0.06480  0.31870  Biso   1.000  H
  H30      1.0000 0.46790  0.56480  0.18130  Biso   1.000  H
  H31      1.0000 0.96790  0.93520  0.68130  Biso   1.000  H
  H32      1.0000 0.53210  0.43520  0.81870  Biso   1.000  H
  H33      1.0000 0.09850  0.08890  0.29390  Biso   1.000  H
  H34      1.0000 0.40150  0.58890  0.20610  Biso   1.000  H
  H35      1.0000 0.90150  0.91110  0.70610  Biso   1.000  H
  H36      1.0000 0.59850  0.41110  0.79390  Biso   1.000  H
  H37      1.0000 0.08090  0.22530  0.43200  Biso   1.000  H
  H38      1.0000 0.41910  0.72530  0.06800  Biso   1.000  H
  H39      1.0000 0.91910  0.77470  0.56800  Biso   1.000  H
  H40      1.0000 0.58090  0.27470  0.93200  Biso   1.000  H
  H41      1.0000 0.01120  0.21330  0.37140  Biso   1.000  H
  H42      1.0000 0.48880  0.71330  0.12860  Biso   1.000  H
  H43      1.0000 0.98880  0.78670  0.62860  Biso   1.000  H
  H44      1.0000 0.51120  0.28670  0.87140  Biso   1.000  H
  H45      1.0000 0.07930  0.28230  0.37810  Biso   1.000  H
  H46      1.0000 0.42070  0.78230  0.12190  Biso   1.000  H
  H47      1.0000 0.92070  0.71770  0.62190  Biso   1.000  H
  H48      1.0000 0.57930  0.21770  0.87810  Biso   1.000  H
  H49      1.0000 0.41060  0.14990  0.49650  Biso   1.000  H
  H50      1.0000 0.08940  0.64990  0.00350  Biso   1.000  H
  H51      1.0000 0.58940  0.85010  0.50350  Biso   1.000  H
  H52      1.0000 0.91060  0.35010  0.99650  Biso   1.000  H
  H53      1.0000 0.43760  0.03660  0.44700  Biso   1.000  H
  H54      1.0000 0.06240  0.53660  0.05300  Biso   1.000  H
  H55      1.0000 0.56240  0.96340  0.55300  Biso   1.000  H
  H56      1.0000 0.93760  0.46340  0.94700  Biso   1.000  H
  H57      1.0000 0.51230  0.09710  0.45660  Biso   1.000  H
  H58      1.0000 0.98770  0.59710  0.04340  Biso   1.000  H
  H59      1.0000 0.48770  0.90290  0.54340  Biso   1.000  H
  H60      1.0000 0.01230  0.40290  0.95660  Biso   1.000  H
  H61      1.0000 0.44030  0.09900  0.39660  Biso   1.000  H
  H62      1.0000 0.05970  0.59900  0.10340  Biso   1.000  H
  H63      1.0000 0.55970  0.90100  0.60340  Biso   1.000  H
  H64      1.0000 0.94030  0.40100  0.89660  Biso   1.000  H
  H65      1.0000 0.51300  0.25050  0.46060  Biso   1.000  H
  H66      1.0000 0.98700  0.75050  0.03940  Biso   1.000  H
  H67      1.0000 0.48700  0.74950  0.53940  Biso   1.000  H
  H68      1.0000 0.01300  0.24950  0.96060  Biso   1.000  H
  H69      1.0000 0.51660  0.23650  0.52480  Biso   1.000  H
  H70      1.0000 0.98340  0.73650  0.97520  Biso   1.000  H
  H71      1.0000 0.48340  0.76350  0.47520  Biso   1.000  H
  H72      1.0000 0.01660  0.26350  0.02480  Biso   1.000  H
  H73      1.0000 0.45470  0.30330  0.48320  Biso   1.000  H
  H74      1.0000 0.04530  0.80330  0.01680  Biso   1.000  H
  H75      1.0000 0.54530  0.69670  0.51680  Biso   1.000  H
  H76      1.0000 0.95470  0.19670  0.98320  Biso   1.000  H
  H77      1.0000 0.38550  0.09550  0.77450  Biso   1.000  H
  H78      1.0000 0.11450  0.59550  0.72550  Biso   1.000  H
  H79      1.0000 0.61450  0.90450  0.22550  Biso   1.000  H
  H80      1.0000 0.88550  0.40450  0.27450  Biso   1.000  H
  H81      1.0000 0.26660  0.08220  0.79140  Biso   1.000  H
  H82      1.0000 0.23340  0.58220  0.70860  Biso   1.000  H
  H83      1.0000 0.73340  0.91780  0.20860  Biso   1.000  H
  H84      1.0000 0.76660  0.41780  0.29140  Biso   1.000  H
  H85      1.0000 0.14490  0.05930  0.71380  Biso   1.000  H
  H86      1.0000 0.35510  0.55930  0.78620  Biso   1.000  H
  H87      1.0000 0.85510  0.94070  0.28620  Biso   1.000  H
  H88      1.0000 0.64490  0.44070  0.21380  Biso   1.000  H
  H89      1.0000 0.40270  0.11460  0.63380  Biso   1.000  H
  H90      1.0000 0.09730  0.61460  0.86620  Biso   1.000  H
  H91      1.0000 0.59730  0.88540  0.36620  Biso   1.000  H
  H92      1.0000 0.90270  0.38540  0.13380  Biso   1.000  H
  H93      1.0000 0.46270  0.21700  0.69590  Biso   1.000  H
  H94      1.0000 0.03730  0.71700  0.80410  Biso   1.000  H
  H95      1.0000 0.53730  0.78300  0.30410  Biso   1.000  H
  H96      1.0000 0.96270  0.28300  0.19590  Biso   1.000  H
  H97      1.0000 0.52810  0.14330  0.72060  Biso   1.000  H
  H98      1.0000 0.97190  0.64330  0.77940  Biso   1.000  H
  H99      1.0000 0.47190  0.85670  0.27940  Biso   1.000  H
  H100     1.0000 0.02810  0.35670  0.22060  Biso   1.000  H
  H101     1.0000 0.46650  0.16150  0.75090  Biso   1.000  H
  H102     1.0000 0.03350  0.66150  0.74910  Biso   1.000  H
  H103     1.0000 0.53350  0.83850  0.24910  Biso   1.000  H
  H104     1.0000 0.96650  0.33850  0.25090  Biso   1.000  H
  H105     1.0000 0.49360  0.99100  0.71650  Biso   1.000  H
  H106     1.0000 0.00640  0.49100  0.78350  Biso   1.000  H
  H107     1.0000 0.50640  0.00900  0.28350  Biso   1.000  H
  H108     1.0000 0.99360  0.50900  0.21650  Biso   1.000  H
  H109     1.0000 0.48610  0.00160  0.65120  Biso   1.000  H
  H110     1.0000 0.01390  0.50160  0.84880  Biso   1.000  H
  H111     1.0000 0.51390  0.99840  0.34880  Biso   1.000  H
  H112     1.0000 0.98610  0.49840  0.15120  Biso   1.000  H
  H113     1.0000 0.41830  0.95390  0.66600  Biso   1.000  H
  H114     1.0000 0.08170  0.45390  0.83400  Biso   1.000  H
  H115     1.0000 0.58170  0.04610  0.33400  Biso   1.000  H
  H116     1.0000 0.91830  0.54610  0.16600  Biso   1.000  H
  H117     1.0000 0.12200  0.05460  0.55930  Biso   1.000  H
  H118     1.0000 0.37800  0.55460  0.94070  Biso   1.000  H
  H119     1.0000 0.87800  0.94540  0.44070  Biso   1.000  H
  H120     1.0000 0.62200  0.44540  0.05930  Biso   1.000  H
  H121     1.0000 0.03340  0.09220  0.60850  Biso   1.000  H
  H122     1.0000 0.46660  0.59220  0.89150  Biso   1.000  H
  H123     1.0000 0.96660  0.90780  0.39150  Biso   1.000  H
  H124     1.0000 0.53340  0.40780  0.10850  Biso   1.000  H
  H125     1.0000 0.02850  0.13820  0.55000  Biso   1.000  H
  H126     1.0000 0.47150  0.63820  0.95000  Biso   1.000  H
  H127     1.0000 0.97150  0.86180  0.45000  Biso   1.000  H
  H128     1.0000 0.52850  0.36180  0.05000  Biso   1.000  H
  H129     1.0000 0.08740  0.17470  0.60990  Biso   1.000  H
  H130     1.0000 0.41260  0.67470  0.89010  Biso   1.000  H
  H131     1.0000 0.91260  0.82530  0.39010  Biso   1.000  H
  H132     1.0000 0.58740  0.32530  0.10990  Biso   1.000  H
  H133     1.0000 0.08690  0.93200  0.57670  Biso   1.000  H
  H134     1.0000 0.41310  0.43200  0.92330  Biso   1.000  H
  H135     1.0000 0.91310  0.06800  0.42330  Biso   1.000  H
  H136     1.0000 0.58690  0.56800  0.07670  Biso   1.000  H
  H137     1.0000 0.01550  0.99070  0.57790  Biso   1.000  H
  H138     1.0000 0.48450  0.49070  0.92210  Biso   1.000  H
  H139     1.0000 0.98450  0.00930  0.42210  Biso   1.000  H
  H140     1.0000 0.51550  0.50930  0.07790  Biso   1.000  H
  H141     1.0000 0.08160  0.96010  0.63660  Biso   1.000  H
  H142     1.0000 0.41840  0.46010  0.86340  Biso   1.000  H
  H143     1.0000 0.91840  0.03990  0.36340  Biso   1.000  H
  H144     1.0000 0.58160  0.53990  0.13660  Biso   1.000  H
  H145     1.0000 0.29160  0.43140  0.44020  Biso   1.000  H
  H146     1.0000 0.20840  0.93140  0.05980  Biso   1.000  H
  H147     1.0000 0.70840  0.56860  0.55980  Biso   1.000  H
  H148     1.0000 0.79160  0.06860  0.94020  Biso   1.000  H
  H149     1.0000 0.28510  0.50070  0.60140  Biso   1.000  H
  H150     1.0000 0.21490  0.00070  0.89860  Biso   1.000  H
  H151     1.0000 0.71490  0.49930  0.39860  Biso   1.000  H
  H152     1.0000 0.78510  0.99930  0.10140  Biso   1.000  H
  H153     1.0000 0.11910  0.57960  0.25960  Biso   1.000  H
  H154     1.0000 0.38090  0.07960  0.24040  Biso   1.000  H
  H155     1.0000 0.88090  0.42040  0.74040  Biso   1.000  H
  H156     1.0000 0.61910  0.92040  0.75960  Biso   1.000  H
  H157     1.0000 0.21920  0.58350  0.21870  Biso   1.000  H
  H158     1.0000 0.28080  0.08350  0.28130  Biso   1.000  H
  H159     1.0000 0.78080  0.41650  0.78130  Biso   1.000  H
  H160     1.0000 0.71920  0.91650  0.71870  Biso   1.000  H
  H161     1.0000 0.35390  0.58070  0.27930  Biso   1.000  H
  H162     1.0000 0.14610  0.08070  0.22070  Biso   1.000  H
  H163     1.0000 0.64610  0.41930  0.72070  Biso   1.000  H
  H164     1.0000 0.85390  0.91930  0.77930  Biso   1.000  H
  H165     1.0000 0.15630  0.58600  0.41340  Biso   1.000  H
  H166     1.0000 0.34370  0.08600  0.08660  Biso   1.000  H
  H167     1.0000 0.84370  0.41400  0.58660  Biso   1.000  H
  H168     1.0000 0.65630  0.91400  0.91340  Biso   1.000  H
  H169     1.0000 0.04970  0.46970  0.33520  Biso   1.000  H
  H170     1.0000 0.45030  0.96970  0.16480  Biso   1.000  H
  H171     1.0000 0.95030  0.53030  0.66480  Biso   1.000  H
  H172     1.0000 0.54970  0.03030  0.83520  Biso   1.000  H
  H173     1.0000 0.07900  0.46690  0.40360  Biso   1.000  H
  H174     1.0000 0.42100  0.96690  0.09640  Biso   1.000  H
  H175     1.0000 0.92100  0.53310  0.59640  Biso   1.000  H
  H176     1.0000 0.57900  0.03310  0.90360  Biso   1.000  H
  H177     1.0000 0.13440  0.43190  0.37170  Biso   1.000  H
  H178     1.0000 0.36560  0.93190  0.12830  Biso   1.000  H
  H179     1.0000 0.86560  0.56810  0.62830  Biso   1.000  H
  H180     1.0000 0.63440  0.06810  0.87170  Biso   1.000  H
  H181     1.0000 0.07830  0.69530  0.36390  Biso   1.000  H
  H182     1.0000 0.42170  0.19530  0.13610  Biso   1.000  H
  H183     1.0000 0.92170  0.30470  0.63610  Biso   1.000  H
  H184     1.0000 0.57830  0.80470  0.86390  Biso   1.000  H
  H185     1.0000 0.01470  0.61870  0.34610  Biso   1.000  H
  H186     1.0000 0.48530  0.11870  0.15390  Biso   1.000  H
  H187     1.0000 0.98530  0.38130  0.65390  Biso   1.000  H
  H188     1.0000 0.51470  0.88130  0.84610  Biso   1.000  H
  H189     1.0000 0.05750  0.64710  0.30350  Biso   1.000  H
  H190     1.0000 0.44250  0.14710  0.19650  Biso   1.000  H
  H191     1.0000 0.94250  0.35290  0.69650  Biso   1.000  H
  H192     1.0000 0.55750  0.85290  0.80350  Biso   1.000  H
  H193     1.0000 0.42810  0.60380  0.43460  Biso   1.000  H
  H194     1.0000 0.07190  0.10380  0.06540  Biso   1.000  H
  H195     1.0000 0.57190  0.39620  0.56540  Biso   1.000  H
  H196     1.0000 0.92810  0.89620  0.93460  Biso   1.000  H
  H197     1.0000 0.50180  0.59310  0.35320  Biso   1.000  H
  H198     1.0000 0.99820  0.09310  0.14680  Biso   1.000  H
  H199     1.0000 0.49820  0.40690  0.64680  Biso   1.000  H
  H200     1.0000 0.00180  0.90690  0.85320  Biso   1.000  H
  H201     1.0000 0.52480  0.65700  0.40740  Biso   1.000  H
  H202     1.0000 0.97520  0.15700  0.09260  Biso   1.000  H
  H203     1.0000 0.47520  0.34300  0.59260  Biso   1.000  H
  H204     1.0000 0.02480  0.84300  0.90740  Biso   1.000  H
  H205     1.0000 0.45040  0.67830  0.35100  Biso   1.000  H
  H206     1.0000 0.04960  0.17830  0.14900  Biso   1.000  H
  H207     1.0000 0.54960  0.32170  0.64900  Biso   1.000  H
  H208     1.0000 0.95040  0.82170  0.85100  Biso   1.000  H
  H209     1.0000 0.45440  0.46250  0.45070  Biso   1.000  H
  H210     1.0000 0.04560  0.96250  0.04930  Biso   1.000  H
  H211     1.0000 0.54560  0.53750  0.54930  Biso   1.000  H
  H212     1.0000 0.95440  0.03750  0.95070  Biso   1.000  H
  H213     1.0000 0.51770  0.48330  0.42230  Biso   1.000  H
  H214     1.0000 0.98230  0.98330  0.07770  Biso   1.000  H
  H215     1.0000 0.48230  0.51670  0.57770  Biso   1.000  H
  H216     1.0000 0.01770  0.01670  0.92230  Biso   1.000  H
  H217     1.0000 0.43510  0.44150  0.38440  Biso   1.000  H
  H218     1.0000 0.06490  0.94150  0.11560  Biso   1.000  H
  H219     1.0000 0.56490  0.55850  0.61560  Biso   1.000  H
  H220     1.0000 0.93510  0.05850  0.88440  Biso   1.000  H
  H221     1.0000 0.37590  0.79130  0.72060  Biso   1.000  H
  H222     1.0000 0.12410  0.29130  0.77940  Biso   1.000  H
  H223     1.0000 0.62410  0.20870  0.27940  Biso   1.000  H
  H224     1.0000 0.87590  0.70870  0.22060  Biso   1.000  H
  H225     1.0000 0.24370  0.83990  0.70400  Biso   1.000  H
  H226     1.0000 0.25630  0.33990  0.79600  Biso   1.000  H
  H227     1.0000 0.75630  0.16010  0.29600  Biso   1.000  H
  H228     1.0000 0.74370  0.66010  0.20400  Biso   1.000  H
  H229     1.0000 0.13680  0.77560  0.62580  Biso   1.000  H
  H230     1.0000 0.36320  0.27560  0.87420  Biso   1.000  H
  H231     1.0000 0.86320  0.22440  0.37420  Biso   1.000  H
  H232     1.0000 0.63680  0.72440  0.12580  Biso   1.000  H
  H233     1.0000 0.43680  0.65160  0.62760  Biso   1.000  H
  H234     1.0000 0.06320  0.15160  0.87240  Biso   1.000  H
  H235     1.0000 0.56320  0.34840  0.37240  Biso   1.000  H
  H236     1.0000 0.93680  0.84840  0.12760  Biso   1.000  H
  H237     1.0000 0.47730  0.61030  0.74580  Biso   1.000  H
  H238     1.0000 0.02270  0.11030  0.75420  Biso   1.000  H
  H239     1.0000 0.52270  0.38970  0.25420  Biso   1.000  H
  H240     1.0000 0.97730  0.88970  0.24580  Biso   1.000  H
  H241     1.0000 0.49210  0.55220  0.69760  Biso   1.000  H
  H242     1.0000 0.00790  0.05220  0.80240  Biso   1.000  H
  H243     1.0000 0.50790  0.44780  0.30240  Biso   1.000  H
  H244     1.0000 0.99210  0.94780  0.19760  Biso   1.000  H
  H245     1.0000 0.40710  0.55550  0.70150  Biso   1.000  H
  H246     1.0000 0.09290  0.05550  0.79850  Biso   1.000  H
  H247     1.0000 0.59290  0.44450  0.29850  Biso   1.000  H
  H248     1.0000 0.90710  0.94450  0.20150  Biso   1.000  H
  H249     1.0000 0.50350  0.77590  0.65650  Biso   1.000  H
  H250     1.0000 0.99650  0.27590  0.84350  Biso   1.000  H
  H251     1.0000 0.49650  0.22410  0.34350  Biso   1.000  H
  H252     1.0000 0.00350  0.72410  0.15650  Biso   1.000  H
  H253     1.0000 0.54500  0.71790  0.71250  Biso   1.000  H
  H254     1.0000 0.95500  0.21790  0.78750  Biso   1.000  H
  H255     1.0000 0.45500  0.28210  0.28750  Biso   1.000  H
  H256     1.0000 0.04500  0.78210  0.21250  Biso   1.000  H
  H257     1.0000 0.47750  0.78520  0.71060  Biso   1.000  H
  H258     1.0000 0.02250  0.28520  0.78940  Biso   1.000  H
  H259     1.0000 0.52250  0.21480  0.28940  Biso   1.000  H
  H260     1.0000 0.97750  0.71480  0.21060  Biso   1.000  H
  H261     1.0000 0.15250  0.61930  0.52130  Biso   1.000  H
  H262     1.0000 0.34750  0.11930  0.97870  Biso   1.000  H
  H263     1.0000 0.84750  0.38070  0.47870  Biso   1.000  H
  H264     1.0000 0.65250  0.88070  0.02130  Biso   1.000  H
  H265     1.0000 0.09600  0.53460  0.57090  Biso   1.000  H
  H266     1.0000 0.40400  0.03460  0.92910  Biso   1.000  H
  H267     1.0000 0.90400  0.46540  0.42910  Biso   1.000  H
  H268     1.0000 0.59600  0.96540  0.07090  Biso   1.000  H
  H269     1.0000 0.02400  0.59890  0.54080  Biso   1.000  H
  H270     1.0000 0.47600  0.09890  0.95920  Biso   1.000  H
  H271     1.0000 0.97600  0.40110  0.45920  Biso   1.000  H
  H272     1.0000 0.52400  0.90110  0.04080  Biso   1.000  H
  H273     1.0000 0.08120  0.61610  0.60550  Biso   1.000  H
  H274     1.0000 0.41880  0.11610  0.89450  Biso   1.000  H
  H275     1.0000 0.91880  0.38390  0.39450  Biso   1.000  H
  H276     1.0000 0.58120  0.88390  0.10550  Biso   1.000  H
  H277     1.0000 0.04130  0.74860  0.51800  Biso   1.000  H
  H278     1.0000 0.45870  0.24860  0.98200  Biso   1.000  H
  H279     1.0000 0.95870  0.25140  0.48200  Biso   1.000  H
  H280     1.0000 0.54130  0.75140  0.01800  Biso   1.000  H
  H281     1.0000 0.05640  0.70600  0.46470  Biso   1.000  H
  H282     1.0000 0.44360  0.20600  0.03530  Biso   1.000  H
  H283     1.0000 0.94360  0.29400  0.53530  Biso   1.000  H
  H284     1.0000 0.55640  0.79400  0.96470  Biso   1.000  H
  H285     1.0000 0.11630  0.77660  0.50390  Biso   1.000  H
  H286     1.0000 0.38370  0.27660  0.99610  Biso   1.000  H
  H287     1.0000 0.88370  0.22340  0.49610  Biso   1.000  H
  H288     1.0000 0.61630  0.72340  0.00390  Biso   1.000  H
  H289     1.0000 0.24410  0.25070  0.70150  Biso   1.000  H
  H290     1.0000 0.25590  0.75070  0.79850  Biso   1.000  H
  H291     1.0000 0.75590  0.74930  0.29850  Biso   1.000  H
  H292     1.0000 0.74410  0.24930  0.20150  Biso   1.000  H
  H293     1.0000 0.25050  0.26070  0.63980  Biso   1.000  H
  H294     1.0000 0.24950  0.76070  0.86020  Biso   1.000  H
  H295     1.0000 0.74950  0.73930  0.36020  Biso   1.000  H
  H296     1.0000 0.75050  0.23930  0.13980  Biso   1.000  H
  H297     1.0000 0.25300  0.76170  0.30240  Biso   1.000  H
  H298     1.0000 0.24700  0.26170  0.19760  Biso   1.000  H
  H299     1.0000 0.74700  0.23830  0.69760  Biso   1.000  H
  H300     1.0000 0.75300  0.73830  0.80240  Biso   1.000  H
  H301     1.0000 0.26490  0.76440  0.36880  Biso   1.000  H
  H302     1.0000 0.23510  0.26440  0.13120  Biso   1.000  H
  H303     1.0000 0.73510  0.23560  0.63120  Biso   1.000  H
  H304     1.0000 0.76490  0.73560  0.86880  Biso   1.000  H
