data_image0
_cell_length_a       8.836
_cell_length_b       20.328
_cell_length_c       11.854
_cell_angle_alpha    90
_cell_angle_beta     92.331
_cell_angle_gamma    90

_symmetry_space_group_name_H-M    "P 1"
_symmetry_int_tables_number       1

loop_
  _symmetry_equiv_pos_as_xyz
  'x, y, z'

loop_
  _atom_site_label
  _atom_site_occupancy
  _atom_site_fract_x
  _atom_site_fract_y
  _atom_site_fract_z
  _atom_site_thermal_displace_type
  _atom_site_B_iso_or_equiv
  _atom_site_type_symbol
  Cu1      1.0000 0.88733  0.29895  0.57318  Biso   1.000  Cu
  Cu2      1.0000 0.61267  0.79895  0.92682  Biso   1.000  Cu
  Cu3      1.0000 0.11267  0.70105  0.42682  Biso   1.000  Cu
  Cu4      1.0000 0.38733  0.20105  0.07318  Biso   1.000  Cu
  N1       1.0000 0.02680  0.34168  0.67520  Biso   1.000  N
  N2       1.0000 0.47320  0.84168  0.82480  Biso   1.000  N
  N3       1.0000 0.97320  0.65832  0.32480  Biso   1.000  N
  N4       1.0000 0.52680  0.15832  0.17520  Biso   1.000  N
  N5       1.0000 0.91040  0.20584  0.63160  Biso   1.000  N
  N6       1.0000 0.58960  0.70584  0.86840  Biso   1.000  N
  N7       1.0000 0.08960  0.79416  0.36840  Biso   1.000  N
  N8       1.0000 0.41040  0.29416  0.13160  Biso   1.000  N
  N9       1.0000 0.24620  0.20330  0.95310  Biso   1.000  N
  N10      1.0000 0.25380  0.70330  0.54690  Biso   1.000  N
  N11      1.0000 0.75380  0.79670  0.04690  Biso   1.000  N
  N12      1.0000 0.74620  0.29670  0.45310  Biso   1.000  N
  C1       1.0000 0.07860  0.24240  0.78370  Biso   1.000  C
  C2       1.0000 0.42140  0.74240  0.71630  Biso   1.000  C
  C3       1.0000 0.92140  0.75760  0.21630  Biso   1.000  C
  C4       1.0000 0.57860  0.25760  0.28370  Biso   1.000  C
  C5       1.0000 0.09290  0.31030  0.75940  Biso   1.000  C
  C6       1.0000 0.40710  0.81030  0.74060  Biso   1.000  C
  C7       1.0000 0.90710  0.68970  0.24060  Biso   1.000  C
  C8       1.0000 0.59290  0.18970  0.25940  Biso   1.000  C
  C9       1.0000 0.99540  0.19440  0.72140  Biso   1.000  C
  C10      1.0000 0.50460  0.69440  0.77860  Biso   1.000  C
  C11      1.0000 0.00460  0.80560  0.27860  Biso   1.000  C
  C12      1.0000 0.49540  0.30560  0.22140  Biso   1.000  C
  C13      1.0000 0.16860  0.22010  0.87790  Biso   1.000  C
  C14      1.0000 0.33140  0.72010  0.62210  Biso   1.000  C
  C15      1.0000 0.83140  0.77990  0.12210  Biso   1.000  C
  C16      1.0000 0.66860  0.27990  0.37790  Biso   1.000  C
  C17      1.0000 0.07100  0.40980  0.66170  Biso   1.000  C
  C18      1.0000 0.42900  0.90980  0.83830  Biso   1.000  C
  C19      1.0000 0.92900  0.59020  0.33830  Biso   1.000  C
  C20      1.0000 0.57100  0.09020  0.16170  Biso   1.000  C
  C21      1.0000 0.21600  0.42540  0.62730  Biso   1.000  C
  C22      1.0000 0.28400  0.92540  0.87270  Biso   1.000  C
  C23      1.0000 0.78400  0.57460  0.37270  Biso   1.000  C
  C24      1.0000 0.71600  0.07460  0.12730  Biso   1.000  C
  C25      1.0000 0.24960  0.49240  0.61140  Biso   1.000  C
  C26      1.0000 0.25040  0.99240  0.88860  Biso   1.000  C
  C27      1.0000 0.75040  0.50760  0.38860  Biso   1.000  C
  C28      1.0000 0.74960  0.00760  0.11140  Biso   1.000  C
  C29      1.0000 0.14360  0.54000  0.62890  Biso   1.000  C
  C30      1.0000 0.35640  0.04000  0.87110  Biso   1.000  C
  C31      1.0000 0.85640  0.46000  0.37110  Biso   1.000  C
  C32      1.0000 0.64360  0.96000  0.12890  Biso   1.000  C
  C33      1.0000 0.00220  0.52410  0.66230  Biso   1.000  C
  C34      1.0000 0.49780  0.02410  0.83770  Biso   1.000  C
  C35      1.0000 0.99780  0.47590  0.33770  Biso   1.000  C
  C36      1.0000 0.50220  0.97590  0.16230  Biso   1.000  C
  C37      1.0000 0.96100  0.45830  0.67940  Biso   1.000  C
  C38      1.0000 0.53900  0.95830  0.82060  Biso   1.000  C
  C39      1.0000 0.03900  0.54170  0.32060  Biso   1.000  C
  C40      1.0000 0.46100  0.04170  0.17940  Biso   1.000  C
  C41      1.0000 0.33130  0.37380  0.60020  Biso   1.000  C
  C42      1.0000 0.16870  0.87380  0.89980  Biso   1.000  C
  C43      1.0000 0.66870  0.62620  0.39980  Biso   1.000  C
  C44      1.0000 0.83130  0.12620  0.10020  Biso   1.000  C
  C45      1.0000 0.29730  0.34020  0.48810  Biso   1.000  C
  C46      1.0000 0.20270  0.84020  0.01190  Biso   1.000  C
  C47      1.0000 0.70270  0.65980  0.51190  Biso   1.000  C
  C48      1.0000 0.79730  0.15980  0.98810  Biso   1.000  C
  C49      1.0000 0.80650  0.43840  0.71630  Biso   1.000  C
  C50      1.0000 0.69350  0.93840  0.78370  Biso   1.000  C
  C51      1.0000 0.19350  0.56160  0.28370  Biso   1.000  C
  C52      1.0000 0.30650  0.06160  0.21630  Biso   1.000  C
  C53      1.0000 0.69050  0.49270  0.72670  Biso   1.000  C
  C54      1.0000 0.80950  0.99270  0.77330  Biso   1.000  C
  C55      1.0000 0.30950  0.50730  0.27330  Biso   1.000  C
  C56      1.0000 0.19050  0.00730  0.22670  Biso   1.000  C
  C57      1.0000 0.83590  0.15190  0.57520  Biso   1.000  C
  C58      1.0000 0.66410  0.65190  0.92480  Biso   1.000  C
  C59      1.0000 0.16410  0.84810  0.42480  Biso   1.000  C
  C60      1.0000 0.33590  0.34810  0.07520  Biso   1.000  C
  C61      1.0000 0.68070  0.14390  0.58760  Biso   1.000  C
  C62      1.0000 0.81930  0.64390  0.91240  Biso   1.000  C
  C63      1.0000 0.31930  0.85610  0.41240  Biso   1.000  C
  C64      1.0000 0.18070  0.35610  0.08760  Biso   1.000  C
  C65      1.0000 0.60520  0.09370  0.52700  Biso   1.000  C
  C66      1.0000 0.89480  0.59370  0.97300  Biso   1.000  C
  C67      1.0000 0.39480  0.90630  0.47300  Biso   1.000  C
  C68      1.0000 0.10520  0.40630  0.02700  Biso   1.000  C
  C69      1.0000 0.68500  0.05280  0.45700  Biso   1.000  C
  C70      1.0000 0.81500  0.55280  0.04300  Biso   1.000  C
  C71      1.0000 0.31500  0.94720  0.54300  Biso   1.000  C
  C72      1.0000 0.18500  0.44720  0.95700  Biso   1.000  C
  C73      1.0000 0.83690  0.06120  0.44580  Biso   1.000  C
  C74      1.0000 0.66310  0.56120  0.05420  Biso   1.000  C
  C75      1.0000 0.16310  0.93880  0.55420  Biso   1.000  C
  C76      1.0000 0.33690  0.43880  0.94580  Biso   1.000  C
  C77      1.0000 0.91630  0.11100  0.50250  Biso   1.000  C
  C78      1.0000 0.58370  0.61100  0.99750  Biso   1.000  C
  C79      1.0000 0.08370  0.88900  0.49750  Biso   1.000  C
  C80      1.0000 0.41630  0.38900  0.00250  Biso   1.000  C
  C81      1.0000 0.59950  0.18900  0.66580  Biso   1.000  C
  C82      1.0000 0.90050  0.68900  0.83420  Biso   1.000  C
  C83      1.0000 0.40050  0.81100  0.33420  Biso   1.000  C
  C84      1.0000 0.09950  0.31100  0.16580  Biso   1.000  C
  C85      1.0000 0.42780  0.18540  0.66180  Biso   1.000  C
  C86      1.0000 0.07220  0.68540  0.83820  Biso   1.000  C
  C87      1.0000 0.57220  0.81460  0.33820  Biso   1.000  C
  C88      1.0000 0.92780  0.31460  0.16180  Biso   1.000  C
  C89      1.0000 0.08130  0.12290  0.48060  Biso   1.000  C
  C90      1.0000 0.41870  0.62290  0.01940  Biso   1.000  C
  C91      1.0000 0.91870  0.87710  0.51940  Biso   1.000  C
  C92      1.0000 0.58130  0.37710  0.98060  Biso   1.000  C
  C93      1.0000 0.10240  0.17610  0.39210  Biso   1.000  C
  C94      1.0000 0.39760  0.67610  0.10790  Biso   1.000  C
  C95      1.0000 0.89760  0.82390  0.60790  Biso   1.000  C
  C96      1.0000 0.60240  0.32390  0.89210  Biso   1.000  C
  H1       1.0000 0.15610  0.33550  0.80970  Biso   1.000  H
  H2       1.0000 0.34390  0.83550  0.69030  Biso   1.000  H
  H3       1.0000 0.84390  0.66450  0.19030  Biso   1.000  H
  H4       1.0000 0.65610  0.16450  0.30970  Biso   1.000  H
  H5       1.0000 0.00180  0.15020  0.74710  Biso   1.000  H
  H6       1.0000 0.49820  0.65020  0.75290  Biso   1.000  H
  H7       1.0000 0.99820  0.84980  0.25290  Biso   1.000  H
  H8       1.0000 0.50180  0.34980  0.24710  Biso   1.000  H
  H9       1.0000 0.34770  0.50450  0.58870  Biso   1.000  H
  H10      1.0000 0.15230  0.00450  0.91130  Biso   1.000  H
  H11      1.0000 0.65230  0.49550  0.41130  Biso   1.000  H
  H12      1.0000 0.84770  0.99550  0.08870  Biso   1.000  H
  H13      1.0000 0.16820  0.58480  0.61650  Biso   1.000  H
  H14      1.0000 0.33180  0.08480  0.88350  Biso   1.000  H
  H15      1.0000 0.83180  0.41520  0.38350  Biso   1.000  H
  H16      1.0000 0.66820  0.91520  0.11650  Biso   1.000  H
  H17      1.0000 0.93130  0.55810  0.67570  Biso   1.000  H
  H18      1.0000 0.56870  0.05810  0.82430  Biso   1.000  H
  H19      1.0000 0.06870  0.44190  0.32430  Biso   1.000  H
  H20      1.0000 0.43130  0.94190  0.17570  Biso   1.000  H
  H21      1.0000 0.42700  0.39480  0.59610  Biso   1.000  H
  H22      1.0000 0.07300  0.89480  0.90390  Biso   1.000  H
  H23      1.0000 0.57300  0.60520  0.40390  Biso   1.000  H
  H24      1.0000 0.92700  0.10520  0.09610  Biso   1.000  H
  H25      1.0000 0.33610  0.34180  0.65880  Biso   1.000  H
  H26      1.0000 0.16390  0.84180  0.84120  Biso   1.000  H
  H27      1.0000 0.66390  0.65820  0.34120  Biso   1.000  H
  H28      1.0000 0.83610  0.15820  0.15880  Biso   1.000  H
  H29      1.0000 0.23680  0.30250  0.50110  Biso   1.000  H
  H30      1.0000 0.26320  0.80250  0.99890  Biso   1.000  H
  H31      1.0000 0.76320  0.69750  0.49890  Biso   1.000  H
  H32      1.0000 0.73680  0.19750  0.00110  Biso   1.000  H
  H33      1.0000 0.38820  0.32720  0.45430  Biso   1.000  H
  H34      1.0000 0.11180  0.82720  0.04570  Biso   1.000  H
  H35      1.0000 0.61180  0.67280  0.54570  Biso   1.000  H
  H36      1.0000 0.88820  0.17280  0.95430  Biso   1.000  H
  H37      1.0000 0.24290  0.36970  0.43920  Biso   1.000  H
  H38      1.0000 0.25710  0.86970  0.06080  Biso   1.000  H
  H39      1.0000 0.75710  0.63030  0.56080  Biso   1.000  H
  H40      1.0000 0.74290  0.13030  0.93920  Biso   1.000  H
  H41      1.0000 0.76710  0.40710  0.66340  Biso   1.000  H
  H42      1.0000 0.73290  0.90710  0.83660  Biso   1.000  H
  H43      1.0000 0.23290  0.59290  0.33660  Biso   1.000  H
  H44      1.0000 0.26710  0.09290  0.16340  Biso   1.000  H
  H45      1.0000 0.81930  0.41830  0.78840  Biso   1.000  H
  H46      1.0000 0.68070  0.91830  0.71160  Biso   1.000  H
  H47      1.0000 0.18070  0.58170  0.21160  Biso   1.000  H
  H48      1.0000 0.31930  0.08170  0.28840  Biso   1.000  H
  H49      1.0000 0.69620  0.51050  0.80090  Biso   1.000  H
  H50      1.0000 0.80380  0.01050  0.69910  Biso   1.000  H
  H51      1.0000 0.30380  0.48950  0.19910  Biso   1.000  H
  H52      1.0000 0.19620  0.98950  0.30090  Biso   1.000  H
  H53      1.0000 0.59220  0.47520  0.71140  Biso   1.000  H
  H54      1.0000 0.90780  0.97520  0.78860  Biso   1.000  H
  H55      1.0000 0.40780  0.52480  0.28860  Biso   1.000  H
  H56      1.0000 0.09220  0.02480  0.21140  Biso   1.000  H
  H57      1.0000 0.70980  0.52650  0.67370  Biso   1.000  H
  H58      1.0000 0.79020  0.02650  0.82630  Biso   1.000  H
  H59      1.0000 0.29020  0.47350  0.32630  Biso   1.000  H
  H60      1.0000 0.20980  0.97350  0.17370  Biso   1.000  H
  H61      1.0000 0.49940  0.08790  0.53430  Biso   1.000  H
  H62      1.0000 0.00060  0.58790  0.96570  Biso   1.000  H
  H63      1.0000 0.50060  0.91210  0.46570  Biso   1.000  H
  H64      1.0000 0.99940  0.41210  0.03430  Biso   1.000  H
  H65      1.0000 0.63310  0.01880  0.41640  Biso   1.000  H
  H66      1.0000 0.86690  0.51880  0.08360  Biso   1.000  H
  H67      1.0000 0.36690  0.98120  0.58360  Biso   1.000  H
  H68      1.0000 0.13310  0.48120  0.91640  Biso   1.000  H
  H69      1.0000 0.88980  0.03270  0.39750  Biso   1.000  H
  H70      1.0000 0.61020  0.53270  0.10250  Biso   1.000  H
  H71      1.0000 0.11020  0.96730  0.60250  Biso   1.000  H
  H72      1.0000 0.38980  0.46730  0.89750  Biso   1.000  H
  H73      1.0000 0.63490  0.17950  0.74070  Biso   1.000  H
  H74      1.0000 0.86510  0.67950  0.75930  Biso   1.000  H
  H75      1.0000 0.36510  0.82050  0.25930  Biso   1.000  H
  H76      1.0000 0.13490  0.32050  0.24070  Biso   1.000  H
  H77      1.0000 0.62620  0.23280  0.64710  Biso   1.000  H
  H78      1.0000 0.87380  0.73280  0.85290  Biso   1.000  H
  H79      1.0000 0.37380  0.76720  0.35290  Biso   1.000  H
  H80      1.0000 0.12620  0.26720  0.14710  Biso   1.000  H
  H81      1.0000 0.38700  0.21520  0.60670  Biso   1.000  H
  H82      1.0000 0.11300  0.71520  0.89330  Biso   1.000  H
  H83      1.0000 0.61300  0.78480  0.39330  Biso   1.000  H
  H84      1.0000 0.88700  0.28480  0.10670  Biso   1.000  H
  H85      1.0000 0.39060  0.19620  0.73350  Biso   1.000  H
  H86      1.0000 0.10940  0.69620  0.76650  Biso   1.000  H
  H87      1.0000 0.60940  0.80380  0.26650  Biso   1.000  H
  H88      1.0000 0.89060  0.30380  0.23350  Biso   1.000  H
  H89      1.0000 0.39850  0.14180  0.64210  Biso   1.000  H
  H90      1.0000 0.10150  0.64180  0.85790  Biso   1.000  H
  H91      1.0000 0.60150  0.85820  0.35790  Biso   1.000  H
  H92      1.0000 0.89850  0.35820  0.14210  Biso   1.000  H
  H93      1.0000 0.13240  0.13580  0.54910  Biso   1.000  H
  H94      1.0000 0.36760  0.63580  0.95090  Biso   1.000  H
  H95      1.0000 0.86760  0.86420  0.45090  Biso   1.000  H
  H96      1.0000 0.63240  0.36420  0.04910  Biso   1.000  H
  H97      1.0000 0.12450  0.08320  0.45420  Biso   1.000  H
  H98      1.0000 0.37550  0.58320  0.04580  Biso   1.000  H
  H99      1.0000 0.87550  0.91680  0.54580  Biso   1.000  H
  H100     1.0000 0.62450  0.41680  0.95420  Biso   1.000  H
  H101     1.0000 0.10170  0.15690  0.31900  Biso   1.000  H
  H102     1.0000 0.39830  0.65690  0.18100  Biso   1.000  H
  H103     1.0000 0.89830  0.84310  0.68100  Biso   1.000  H
  H104     1.0000 0.60170  0.34310  0.81900  Biso   1.000  H
  H105     1.0000 0.19570  0.19830  0.40650  Biso   1.000  H
  H106     1.0000 0.30430  0.69830  0.09350  Biso   1.000  H
  H107     1.0000 0.80430  0.80170  0.59350  Biso   1.000  H
  H108     1.0000 0.69570  0.30170  0.90650  Biso   1.000  H
  H109     1.0000 0.02120  0.20650  0.39590  Biso   1.000  H
  H110     1.0000 0.47880  0.70650  0.10410  Biso   1.000  H
  H111     1.0000 0.97880  0.79350  0.60410  Biso   1.000  H
  H112     1.0000 0.52120  0.29350  0.89590  Biso   1.000  H
