data_image0
_cell_length_a       14.1818
_cell_length_b       10.4988
_cell_length_c       14.837
_cell_angle_alpha    90
_cell_angle_beta     116.571
_cell_angle_gamma    90

_symmetry_space_group_name_H-M    "P 1"
_symmetry_int_tables_number       1

loop_
  _symmetry_equiv_pos_as_xyz
  'x, y, z'

loop_
  _atom_site_label
  _atom_site_occupancy
  _atom_site_fract_x
  _atom_site_fract_y
  _atom_site_fract_z
  _atom_site_thermal_displace_type
  _atom_site_B_iso_or_equiv
  _atom_site_type_symbol
  Cu1      1.0000 0.69486  0.47820  0.87752  Biso   1.000  Cu
  Cu2      1.0000 0.30514  0.47820  0.12248  Biso   1.000  Cu
  Cu3      1.0000 0.19486  0.97820  0.87752  Biso   1.000  Cu
  Cu4      1.0000 0.80514  0.97820  0.12248  Biso   1.000  Cu
  Br1      1.0000 0.81334  0.54011  0.80711  Biso   1.000  Br
  Br2      1.0000 0.18666  0.54011  0.19289  Biso   1.000  Br
  Br3      1.0000 0.31334  0.04011  0.80711  Biso   1.000  Br
  Br4      1.0000 0.68666  0.04011  0.19289  Biso   1.000  Br
  C1       1.0000 0.62570  0.61950  0.90030  Biso   1.000  C
  C2       1.0000 0.37430  0.61950  0.09970  Biso   1.000  C
  C3       1.0000 0.12570  0.11950  0.90030  Biso   1.000  C
  C4       1.0000 0.87430  0.11950  0.09970  Biso   1.000  C
  N1       1.0000 0.66790  0.71180  0.97500  Biso   1.000  N
  N2       1.0000 0.33210  0.71180  0.02500  Biso   1.000  N
  N3       1.0000 0.16790  0.21180  0.97500  Biso   1.000  N
  N4       1.0000 0.83210  0.21180  0.02500  Biso   1.000  N
  C5       1.0000 0.59750  0.81270  0.95840  Biso   1.000  C
  C6       1.0000 0.40250  0.81270  0.04160  Biso   1.000  C
  C7       1.0000 0.09750  0.31270  0.95840  Biso   1.000  C
  C8       1.0000 0.90250  0.31270  0.04160  Biso   1.000  C
  C9       1.0000 0.51140  0.78340  0.87360  Biso   1.000  C
  C10      1.0000 0.48860  0.78340  0.12640  Biso   1.000  C
  C11      1.0000 0.01140  0.28340  0.87360  Biso   1.000  C
  C12      1.0000 0.98860  0.28340  0.12640  Biso   1.000  C
  N5       1.0000 0.53000  0.66760  0.84010  Biso   1.000  N
  N6       1.0000 0.47000  0.66760  0.15990  Biso   1.000  N
  N7       1.0000 0.03000  0.16760  0.84010  Biso   1.000  N
  N8       1.0000 0.97000  0.16760  0.15990  Biso   1.000  N
  C13      1.0000 0.45660  0.60180  0.75030  Biso   1.000  C
  C14      1.0000 0.54340  0.60180  0.24970  Biso   1.000  C
  C15      1.0000 0.95660  0.10180  0.75030  Biso   1.000  C
  C16      1.0000 0.04340  0.10180  0.24970  Biso   1.000  C
  C17      1.0000 0.45560  0.63590  0.65950  Biso   1.000  C
  C18      1.0000 0.54440  0.63590  0.34050  Biso   1.000  C
  C19      1.0000 0.95560  0.13590  0.65950  Biso   1.000  C
  C20      1.0000 0.04440  0.13590  0.34050  Biso   1.000  C
  C21      1.0000 0.53120  0.73160  0.65380  Biso   1.000  C
  C22      1.0000 0.46880  0.73160  0.34620  Biso   1.000  C
  C23      1.0000 0.03120  0.23160  0.65380  Biso   1.000  C
  C24      1.0000 0.96880  0.23160  0.34620  Biso   1.000  C
  C25      1.0000 0.38220  0.57270  0.57210  Biso   1.000  C
  C26      1.0000 0.61780  0.57270  0.42790  Biso   1.000  C
  C27      1.0000 0.88220  0.07270  0.57210  Biso   1.000  C
  C28      1.0000 0.11780  0.07270  0.42790  Biso   1.000  C
  C29      1.0000 0.31430  0.48080  0.57750  Biso   1.000  C
  C30      1.0000 0.68570  0.48080  0.42250  Biso   1.000  C
  C31      1.0000 0.81430  0.98080  0.57750  Biso   1.000  C
  C32      1.0000 0.18570  0.98080  0.42250  Biso   1.000  C
  C33      1.0000 0.23560  0.41440  0.48160  Biso   1.000  C
  C34      1.0000 0.76440  0.41440  0.51840  Biso   1.000  C
  C35      1.0000 0.73560  0.91440  0.48160  Biso   1.000  C
  C36      1.0000 0.26440  0.91440  0.51840  Biso   1.000  C
  C37      1.0000 0.31960  0.44960  0.66990  Biso   1.000  C
  C38      1.0000 0.68040  0.44960  0.33010  Biso   1.000  C
  C39      1.0000 0.81960  0.94960  0.66990  Biso   1.000  C
  C40      1.0000 0.18040  0.94960  0.33010  Biso   1.000  C
  C41      1.0000 0.39100  0.50970  0.75800  Biso   1.000  C
  C42      1.0000 0.60900  0.50970  0.24200  Biso   1.000  C
  C43      1.0000 0.89100  0.00970  0.75800  Biso   1.000  C
  C44      1.0000 0.10900  0.00970  0.24200  Biso   1.000  C
  C45      1.0000 0.39400  0.47520  0.85930  Biso   1.000  C
  C46      1.0000 0.60600  0.47520  0.14070  Biso   1.000  C
  C47      1.0000 0.89400  0.97520  0.85930  Biso   1.000  C
  C48      1.0000 0.10600  0.97520  0.14070  Biso   1.000  C
  N9       1.0000 0.81800  0.79220  0.11540  Biso   1.000  N
  N10      1.0000 0.18200  0.79220  0.88460  Biso   1.000  N
  N11      1.0000 0.31800  0.29220  0.11540  Biso   1.000  N
  N12      1.0000 0.68200  0.29220  0.88460  Biso   1.000  N
  C49      1.0000 0.76790  0.70300  0.05580  Biso   1.000  C
  C50      1.0000 0.23210  0.70300  0.94420  Biso   1.000  C
  C51      1.0000 0.26790  0.20300  0.05580  Biso   1.000  C
  C52      1.0000 0.73210  0.20300  0.94420  Biso   1.000  C
  O1       1.0000 0.80930  0.58550  0.06970  Biso   1.000  O
  O2       1.0000 0.19070  0.58550  0.93030  Biso   1.000  O
  O3       1.0000 0.30930  0.08550  0.06970  Biso   1.000  O
  O4       1.0000 0.69070  0.08550  0.93030  Biso   1.000  O
  C53      1.0000 0.91480  0.59870  0.15490  Biso   1.000  C
  C54      1.0000 0.08520  0.59870  0.84510  Biso   1.000  C
  C55      1.0000 0.41480  0.09870  0.15490  Biso   1.000  C
  C56      1.0000 0.58520  0.09870  0.84510  Biso   1.000  C
  C57      1.0000 0.91930  0.73370  0.19170  Biso   1.000  C
  C58      1.0000 0.08070  0.73370  0.80830  Biso   1.000  C
  C59      1.0000 0.41930  0.23370  0.19170  Biso   1.000  C
  C60      1.0000 0.58070  0.23370  0.80830  Biso   1.000  C
  C61      1.0000 0.93210  0.74810  0.29860  Biso   1.000  C
  C62      1.0000 0.06790  0.74810  0.70140  Biso   1.000  C
  C63      1.0000 0.43210  0.24810  0.29860  Biso   1.000  C
  C64      1.0000 0.56790  0.24810  0.70140  Biso   1.000  C
  C65      1.0000 0.84170  0.70600  0.31040  Biso   1.000  C
  C66      1.0000 0.15830  0.70600  0.68960  Biso   1.000  C
  C67      1.0000 0.34170  0.20600  0.31040  Biso   1.000  C
  C68      1.0000 0.65830  0.20600  0.68960  Biso   1.000  C
  C69      1.0000 0.03240  0.68610  0.37210  Biso   1.000  C
  C70      1.0000 0.96760  0.68610  0.62790  Biso   1.000  C
  C71      1.0000 0.53240  0.18610  0.37210  Biso   1.000  C
  C72      1.0000 0.46760  0.18610  0.62790  Biso   1.000  C
  H1       1.0000 0.60840  0.88660  0.99890  Biso   1.000  H
  H2       1.0000 0.39160  0.88660  0.00110  Biso   1.000  H
  H3       1.0000 0.10840  0.38660  0.99890  Biso   1.000  H
  H4       1.0000 0.89160  0.38660  0.00110  Biso   1.000  H
  H5       1.0000 0.44900  0.83300  0.84230  Biso   1.000  H
  H6       1.0000 0.55100  0.83300  0.15770  Biso   1.000  H
  H7       1.0000 0.94900  0.33300  0.84230  Biso   1.000  H
  H8       1.0000 0.05100  0.33300  0.15770  Biso   1.000  H
  H9       1.0000 0.37930  0.59330  0.50860  Biso   1.000  H
  H10      1.0000 0.62070  0.59330  0.49140  Biso   1.000  H
  H11      1.0000 0.87930  0.09330  0.50860  Biso   1.000  H
  H12      1.0000 0.12070  0.09330  0.49140  Biso   1.000  H
  H13      1.0000 0.27380  0.38600  0.67370  Biso   1.000  H
  H14      1.0000 0.72620  0.38600  0.32630  Biso   1.000  H
  H15      1.0000 0.77380  0.88600  0.67370  Biso   1.000  H
  H16      1.0000 0.22620  0.88600  0.32630  Biso   1.000  H
  H17      1.0000 0.51810  0.74200  0.58560  Biso   1.000  H
  H18      1.0000 0.48190  0.74200  0.41440  Biso   1.000  H
  H19      1.0000 0.01810  0.24200  0.58560  Biso   1.000  H
  H20      1.0000 0.98190  0.24200  0.41440  Biso   1.000  H
  H21      1.0000 0.52200  0.81090  0.67980  Biso   1.000  H
  H22      1.0000 0.47800  0.81090  0.32020  Biso   1.000  H
  H23      1.0000 0.02200  0.31090  0.67980  Biso   1.000  H
  H24      1.0000 0.97800  0.31090  0.32020  Biso   1.000  H
  H25      1.0000 0.60140  0.70250  0.69250  Biso   1.000  H
  H26      1.0000 0.39860  0.70250  0.30750  Biso   1.000  H
  H27      1.0000 0.10140  0.20250  0.69250  Biso   1.000  H
  H28      1.0000 0.89860  0.20250  0.30750  Biso   1.000  H
  H29      1.0000 0.24270  0.44730  0.42520  Biso   1.000  H
  H30      1.0000 0.75730  0.44730  0.57480  Biso   1.000  H
  H31      1.0000 0.74270  0.94730  0.42520  Biso   1.000  H
  H32      1.0000 0.25730  0.94730  0.57480  Biso   1.000  H
  H33      1.0000 0.24930  0.32550  0.48690  Biso   1.000  H
  H34      1.0000 0.75070  0.32550  0.51310  Biso   1.000  H
  H35      1.0000 0.74930  0.82550  0.48690  Biso   1.000  H
  H36      1.0000 0.25070  0.82550  0.51310  Biso   1.000  H
  H37      1.0000 0.16600  0.42920  0.47290  Biso   1.000  H
  H38      1.0000 0.83400  0.42920  0.52710  Biso   1.000  H
  H39      1.0000 0.66600  0.92920  0.47290  Biso   1.000  H
  H40      1.0000 0.33400  0.92920  0.52710  Biso   1.000  H
  H41      1.0000 0.44670  0.52450  0.91110  Biso   1.000  H
  H42      1.0000 0.55330  0.52450  0.08890  Biso   1.000  H
  H43      1.0000 0.94670  0.02450  0.91110  Biso   1.000  H
  H44      1.0000 0.05330  0.02450  0.08890  Biso   1.000  H
  H45      1.0000 0.32730  0.49250  0.85720  Biso   1.000  H
  H46      1.0000 0.67270  0.49250  0.14280  Biso   1.000  H
  H47      1.0000 0.82730  0.99250  0.85720  Biso   1.000  H
  H48      1.0000 0.17270  0.99250  0.14280  Biso   1.000  H
  H49      1.0000 0.41000  0.38730  0.87260  Biso   1.000  H
  H50      1.0000 0.59000  0.38730  0.12740  Biso   1.000  H
  H51      1.0000 0.91000  0.88730  0.87260  Biso   1.000  H
  H52      1.0000 0.09000  0.88730  0.12740  Biso   1.000  H
  H53      1.0000 0.96790  0.58520  0.13340  Biso   1.000  H
  H54      1.0000 0.03210  0.58520  0.86660  Biso   1.000  H
  H55      1.0000 0.46790  0.08520  0.13340  Biso   1.000  H
  H56      1.0000 0.53210  0.08520  0.86660  Biso   1.000  H
  H57      1.0000 0.92380  0.53970  0.20670  Biso   1.000  H
  H58      1.0000 0.07620  0.53970  0.79330  Biso   1.000  H
  H59      1.0000 0.42380  0.03970  0.20670  Biso   1.000  H
  H60      1.0000 0.57620  0.03970  0.79330  Biso   1.000  H
  H61      1.0000 0.98100  0.77480  0.19650  Biso   1.000  H
  H62      1.0000 0.01900  0.77480  0.80350  Biso   1.000  H
  H63      1.0000 0.48100  0.27480  0.19650  Biso   1.000  H
  H64      1.0000 0.51900  0.27480  0.80350  Biso   1.000  H
  H65      1.0000 0.93690  0.83670  0.31300  Biso   1.000  H
  H66      1.0000 0.06310  0.83670  0.68700  Biso   1.000  H
  H67      1.0000 0.43690  0.33670  0.31300  Biso   1.000  H
  H68      1.0000 0.56310  0.33670  0.68700  Biso   1.000  H
  H69      1.0000 0.85450  0.71750  0.37840  Biso   1.000  H
  H70      1.0000 0.14550  0.71750  0.62160  Biso   1.000  H
  H71      1.0000 0.35450  0.21750  0.37840  Biso   1.000  H
  H72      1.0000 0.64550  0.21750  0.62160  Biso   1.000  H
  H73      1.0000 0.78170  0.75460  0.26750  Biso   1.000  H
  H74      1.0000 0.21830  0.75460  0.73250  Biso   1.000  H
  H75      1.0000 0.28170  0.25460  0.26750  Biso   1.000  H
  H76      1.0000 0.71830  0.25460  0.73250  Biso   1.000  H
  H77      1.0000 0.82910  0.61850  0.29300  Biso   1.000  H
  H78      1.0000 0.17090  0.61850  0.70700  Biso   1.000  H
  H79      1.0000 0.32910  0.11850  0.29300  Biso   1.000  H
  H80      1.0000 0.67090  0.11850  0.70700  Biso   1.000  H
  H81      1.0000 0.03940  0.69580  0.43850  Biso   1.000  H
  H82      1.0000 0.96060  0.69580  0.56150  Biso   1.000  H
  H83      1.0000 0.53940  0.19580  0.43850  Biso   1.000  H
  H84      1.0000 0.46060  0.19580  0.56150  Biso   1.000  H
  H85      1.0000 0.03070  0.59810  0.35670  Biso   1.000  H
  H86      1.0000 0.96930  0.59810  0.64330  Biso   1.000  H
  H87      1.0000 0.53070  0.09810  0.35670  Biso   1.000  H
  H88      1.0000 0.46930  0.09810  0.64330  Biso   1.000  H
  H89      1.0000 0.09060  0.72520  0.36770  Biso   1.000  H
  H90      1.0000 0.90940  0.72520  0.63230  Biso   1.000  H
  H91      1.0000 0.59060  0.22520  0.36770  Biso   1.000  H
  H92      1.0000 0.40940  0.22520  0.63230  Biso   1.000  H
