data_image0
_cell_length_a       12.945
_cell_length_b       13.05
_cell_length_c       15.374
_cell_angle_alpha    103.3
_cell_angle_beta     103.91
_cell_angle_gamma    112.39

_symmetry_space_group_name_H-M    "P 1"
_symmetry_int_tables_number       1

loop_
  _symmetry_equiv_pos_as_xyz
  'x, y, z'

loop_
  _atom_site_label
  _atom_site_occupancy
  _atom_site_fract_x
  _atom_site_fract_y
  _atom_site_fract_z
  _atom_site_thermal_displace_type
  _atom_site_B_iso_or_equiv
  _atom_site_type_symbol
  V1       1.0000 0.30314  0.20923  0.26200  Biso   1.000  V
  V2       1.0000 0.69686  0.79077  0.73800  Biso   1.000  V
  V3       1.0000 0.23809  0.53059  0.50094  Biso   1.000  V
  V4       1.0000 0.76191  0.46941  0.49906  Biso   1.000  V
  V5       1.0000 0.54990  0.68123  0.35347  Biso   1.000  V
  V6       1.0000 0.45010  0.31877  0.64653  Biso   1.000  V
  Mo1      1.0000 0.26925  0.43421  0.28213  Biso   1.000  Mo
  Mo2      1.0000 0.73075  0.56579  0.71787  Biso   1.000  Mo
  Mo3      1.0000 0.21870  0.24765  0.43426  Biso   1.000  Mo
  Mo4      1.0000 0.78130  0.75235  0.56574  Biso   1.000  Mo
  Mo5      1.0000 0.49345  0.21554  0.43315  Biso   1.000  Mo
  Mo6      1.0000 0.50655  0.78446  0.56685  Biso   1.000  Mo
  Mo7      1.0000 0.54633  0.40421  0.28185  Biso   1.000  Mo
  Mo8      1.0000 0.45367  0.59579  0.71815  Biso   1.000  Mo
  Cu1      1.0000 0.21291  0.00646  0.01949  Biso   1.000  Cu
  Cu2      1.0000 0.78709  0.99354  0.98051  Biso   1.000  Cu
  Cu3      1.0000 0.06295  0.69358  0.54252  Biso   1.000  Cu
  Cu4      1.0000 0.93705  0.30642  0.45748  Biso   1.000  Cu
  Cu5      1.0000 0.05470  0.44170  0.93020  Biso   1.000  Cu
  Cu6      1.0000 0.94530  0.55830  0.06980  Biso   1.000  Cu
  P1       1.0000 0.50000  0.50000  0.50000  Biso   1.000  P
  C1       1.0000 0.26250  0.79360  0.71730  Biso   1.000  C
  C2       1.0000 0.73750  0.20640  0.28270  Biso   1.000  C
  H1       1.0000 0.30630  0.80000  0.67720  Biso   1.000  H
  H2       1.0000 0.69370  0.20000  0.32280  Biso   1.000  H
  C3       1.0000 0.32160  0.82720  0.81500  Biso   1.000  C
  C4       1.0000 0.67840  0.17280  0.18500  Biso   1.000  C
  H3       1.0000 0.40430  0.85540  0.83940  Biso   1.000  H
  H4       1.0000 0.59570  0.14460  0.16060  Biso   1.000  H
  C5       1.0000 0.25950  0.81930  0.87650  Biso   1.000  C
  C6       1.0000 0.74050  0.18070  0.12350  Biso   1.000  C
  C7       1.0000 0.13600  0.77920  0.83550  Biso   1.000  C
  C8       1.0000 0.86400  0.22080  0.16450  Biso   1.000  C
  H5       1.0000 0.09100  0.77670  0.87460  Biso   1.000  H
  H6       1.0000 0.90900  0.22330  0.12540  Biso   1.000  H
  C9       1.0000 0.08150  0.74430  0.73990  Biso   1.000  C
  C10      1.0000 0.91850  0.25570  0.26010  Biso   1.000  C
  H7       1.0000 0.99850  0.71370  0.71440  Biso   1.000  H
  H8       1.0000 0.00150  0.28630  0.28560  Biso   1.000  H
  C11      1.0000 0.32220  0.84920  0.98060  Biso   1.000  C
  C12      1.0000 0.67780  0.15080  0.01940  Biso   1.000  C
  C13      1.0000 0.39580  0.80030  0.00500  Biso   1.000  C
  C14      1.0000 0.60420  0.19970  0.99500  Biso   1.000  C
  H9       1.0000 0.40940  0.75380  0.95790  Biso   1.000  H
  H10      1.0000 0.59060  0.24620  0.04210  Biso   1.000  H
  C15      1.0000 0.45020  0.82080  0.10080  Biso   1.000  C
  C16      1.0000 0.54980  0.17920  0.89920  Biso   1.000  C
  H11      1.0000 0.49950  0.78700  0.11880  Biso   1.000  H
  H12      1.0000 0.50050  0.21300  0.88120  Biso   1.000  H
  C17      1.0000 0.43020  0.89260  0.16980  Biso   1.000  C
  C18      1.0000 0.56980  0.10740  0.83020  Biso   1.000  C
  H13      1.0000 0.46620  0.90900  0.23480  Biso   1.000  H
  H14      1.0000 0.53380  0.09100  0.76520  Biso   1.000  H
  C19      1.0000 0.35400  0.93900  0.13760  Biso   1.000  C
  C20      1.0000 0.64600  0.06100  0.86240  Biso   1.000  C
  H15      1.0000 0.33900  0.98620  0.18310  Biso   1.000  H
  H16      1.0000 0.66100  0.01380  0.81690  Biso   1.000  H
  C21      1.0000 0.95620  0.57130  0.33880  Biso   1.000  C
  C22      1.0000 0.04380  0.42870  0.66120  Biso   1.000  C
  H17      1.0000 0.98570  0.51960  0.35200  Biso   1.000  H
  H18      1.0000 0.01430  0.48040  0.64800  Biso   1.000  H
  C23      1.0000 0.88520  0.54420  0.24480  Biso   1.000  C
  C24      1.0000 0.11480  0.45580  0.75520  Biso   1.000  C
  H19      1.0000 0.86880  0.47690  0.19550  Biso   1.000  H
  H20      1.0000 0.13120  0.52310  0.80450  Biso   1.000  H
  C25      1.0000 0.83950  0.62190  0.22720  Biso   1.000  C
  C26      1.0000 0.16050  0.37810  0.77280  Biso   1.000  C
  C27      1.0000 0.86700  0.71980  0.30170  Biso   1.000  C
  C28      1.0000 0.13300  0.28020  0.69830  Biso   1.000  C
  H21      1.0000 0.83630  0.77140  0.29040  Biso   1.000  H
  H22      1.0000 0.16370  0.22860  0.70960  Biso   1.000  H
  C29      1.0000 0.93790  0.74350  0.39170  Biso   1.000  C
  C30      1.0000 0.06210  0.25650  0.60830  Biso   1.000  C
  H23      1.0000 0.95580  0.81140  0.44110  Biso   1.000  H
  H24      1.0000 0.04420  0.18860  0.55890  Biso   1.000  H
  C31      1.0000 0.76200  0.59650  0.12620  Biso   1.000  C
  C32      1.0000 0.23800  0.40350  0.87380  Biso   1.000  C
  C33      1.0000 0.68550  0.64240  0.10990  Biso   1.000  C
  C34      1.0000 0.31450  0.35760  0.89010  Biso   1.000  C
  H25      1.0000 0.68080  0.69280  0.16070  Biso   1.000  H
  H26      1.0000 0.31920  0.30720  0.83930  Biso   1.000  H
  C35      1.0000 0.61360  0.61370  0.01600  Biso   1.000  C
  C36      1.0000 0.38640  0.38630  0.98400  Biso   1.000  C
  H27      1.0000 0.55600  0.63970  0.00340  Biso   1.000  H
  H28      1.0000 0.44400  0.36030  0.99660  Biso   1.000  H
  C37      1.0000 0.62910  0.54520  0.94060  Biso   1.000  C
  C38      1.0000 0.37090  0.45480  0.05940  Biso   1.000  C
  H29      1.0000 0.58530  0.52800  0.87690  Biso   1.000  H
  H30      1.0000 0.41470  0.47200  0.12310  Biso   1.000  H
  C39      1.0000 0.71230  0.50370  0.96440  Biso   1.000  C
  C40      1.0000 0.28770  0.49630  0.03560  Biso   1.000  C
  H31      1.0000 0.72260  0.45550  0.91600  Biso   1.000  H
  H32      1.0000 0.27740  0.54450  0.08400  Biso   1.000  H
  C41      1.0000 0.08830  0.14600  0.99480  Biso   1.000  C
  C42      1.0000 0.91170  0.85400  0.00520  Biso   1.000  C
  H33      1.0000 0.11170  0.17070  0.06130  Biso   1.000  H
  H34      1.0000 0.88830  0.82930  0.93870  Biso   1.000  H
  C43      1.0000 0.01990  0.18760  0.94760  Biso   1.000  C
  C44      1.0000 0.98010  0.81240  0.05240  Biso   1.000  C
  H35      1.0000 0.99980  0.24090  0.98200  Biso   1.000  H
  H36      1.0000 0.00020  0.75910  0.01800  Biso   1.000  H
  C45      1.0000 0.97910  0.15040  0.84650  Biso   1.000  C
  C46      1.0000 0.02090  0.84960  0.15350  Biso   1.000  C
  C47      1.0000 0.01520  0.07560  0.80260  Biso   1.000  C
  C48      1.0000 0.98480  0.92440  0.19740  Biso   1.000  C
  H37      1.0000 0.99280  0.05020  0.73620  Biso   1.000  H
  H38      1.0000 0.00720  0.94980  0.26380  Biso   1.000  H
  C49      1.0000 0.08450  0.03600  0.85400  Biso   1.000  C
  C50      1.0000 0.91550  0.96400  0.14600  Biso   1.000  C
  H39      1.0000 0.10510  0.98260  0.82040  Biso   1.000  H
  H40      1.0000 0.89490  0.01740  0.17960  Biso   1.000  H
  C51      1.0000 0.89620  0.18520  0.79130  Biso   1.000  C
  C52      1.0000 0.10380  0.81480  0.20870  Biso   1.000  C
  C53      1.0000 0.82420  0.11840  0.69770  Biso   1.000  C
  C54      1.0000 0.17580  0.88160  0.30230  Biso   1.000  C
  H41      1.0000 0.82500  0.04780  0.66920  Biso   1.000  H
  H42      1.0000 0.17500  0.95220  0.33080  Biso   1.000  H
  C55      1.0000 0.75260  0.15090  0.64550  Biso   1.000  C
  C56      1.0000 0.24740  0.84910  0.35450  Biso   1.000  C
  H43      1.0000 0.70480  0.10510  0.58140  Biso   1.000  H
  H44      1.0000 0.29520  0.89490  0.41860  Biso   1.000  H
  C57      1.0000 0.75240  0.25490  0.69050  Biso   1.000  C
  C58      1.0000 0.24760  0.74510  0.30950  Biso   1.000  C
  H45      1.0000 0.70070  0.27840  0.65730  Biso   1.000  H
  H46      1.0000 0.29930  0.72160  0.34270  Biso   1.000  H
  C59      1.0000 0.82760  0.32450  0.78370  Biso   1.000  C
  C60      1.0000 0.17240  0.67550  0.21630  Biso   1.000  C
  H47      1.0000 0.82990  0.39680  0.81180  Biso   1.000  H
  H48      1.0000 0.17010  0.60320  0.18820  Biso   1.000  H
  N1       1.0000 0.14250  0.75190  0.67920  Biso   1.000  N
  N2       1.0000 0.85750  0.24810  0.32080  Biso   1.000  N
  N3       1.0000 0.30240  0.91990  0.04680  Biso   1.000  N
  N4       1.0000 0.69760  0.08010  0.95320  Biso   1.000  N
  N5       1.0000 0.98380  0.66910  0.41130  Biso   1.000  N
  N6       1.0000 0.01620  0.33090  0.58870  Biso   1.000  N
  N7       1.0000 0.77760  0.53240  0.05610  Biso   1.000  N
  N8       1.0000 0.22240  0.46760  0.94390  Biso   1.000  N
  N9       1.0000 0.12430  0.07100  0.95130  Biso   1.000  N
  N10      1.0000 0.87570  0.92900  0.04870  Biso   1.000  N
  N11      1.0000 0.89700  0.28950  0.83390  Biso   1.000  N
  N12      1.0000 0.10300  0.71050  0.16610  Biso   1.000  N
  O1       1.0000 0.63620  0.55690  0.55320  Biso   1.000  O
  O2       1.0000 0.36380  0.44310  0.44680  Biso   1.000  O
  O3       1.0000 0.45280  0.58050  0.55370  Biso   1.000  O
  O4       1.0000 0.54720  0.41950  0.44630  Biso   1.000  O
  O5       1.0000 0.52530  0.50010  0.60170  Biso   1.000  O
  O6       1.0000 0.47470  0.49990  0.39830  Biso   1.000  O
  O7       1.0000 0.44060  0.37510  0.49960  Biso   1.000  O
  O8       1.0000 0.55940  0.62490  0.50040  Biso   1.000  O
  O9       1.0000 0.48050  0.07990  0.39020  Biso   1.000  O
  O10      1.0000 0.51950  0.92010  0.60980  Biso   1.000  O
  O11      1.0000 0.38030  0.57360  0.28950  Biso   1.000  O
  O12      1.0000 0.61970  0.42640  0.71050  Biso   1.000  O
  O13      1.0000 0.57470  0.55310  0.28900  Biso   1.000  O
  O14      1.0000 0.42530  0.44690  0.71100  Biso   1.000  O
  O15      1.0000 0.21480  0.49460  0.36740  Biso   1.000  O
  O16      1.0000 0.78520  0.50540  0.63260  Biso   1.000  O
  O17      1.0000 0.65130  0.31060  0.47240  Biso   1.000  O
  O18      1.0000 0.34870  0.68940  0.52760  Biso   1.000  O
  O19      1.0000 0.11940  0.54220  0.50080  Biso   1.000  O
  O20      1.0000 0.88060  0.45780  0.49920  Biso   1.000  O
  O21      1.0000 0.57220  0.76270  0.28930  Biso   1.000  O
  O22      1.0000 0.42780  0.23730  0.71070  Biso   1.000  O
  O23      1.0000 0.18110  0.36350  0.47380  Biso   1.000  O
  O24      1.0000 0.81890  0.63650  0.52620  Biso   1.000  O
  O25      1.0000 0.68800  0.44030  0.36750  Biso   1.000  O
  O26      1.0000 0.31200  0.55970  0.63250  Biso   1.000  O
  O27      1.0000 0.48520  0.23030  0.55150  Biso   1.000  O
  O28      1.0000 0.51480  0.76970  0.44850  Biso   1.000  O
  O29      1.0000 0.08770  0.12590  0.39560  Biso   1.000  O
  O30      1.0000 0.91230  0.87410  0.60440  Biso   1.000  O
  O31      1.0000 0.47060  0.25090  0.30860  Biso   1.000  O
  O32      1.0000 0.52940  0.74910  0.69140  Biso   1.000  O
  O33      1.0000 0.55470  0.34960  0.17590  Biso   1.000  O
  O34      1.0000 0.44530  0.65040  0.82410  Biso   1.000  O
  O35      1.0000 0.22580  0.09310  0.16350  Biso   1.000  O
  O36      1.0000 0.77420  0.90690  0.83650  Biso   1.000  O
  O37      1.0000 0.36550  0.35430  0.23840  Biso   1.000  O
  O38      1.0000 0.63450  0.64570  0.76160  Biso   1.000  O
  O39      1.0000 0.15900  0.39040  0.17750  Biso   1.000  O
  O40      1.0000 0.84100  0.60960  0.82250  Biso   1.000  O
  O41      1.0000 0.21010  0.27790  0.30820  Biso   1.000  O
  O42      1.0000 0.78990  0.72210  0.69180  Biso   1.000  O
  O43      1.0000 0.29300  0.25320  0.55050  Biso   1.000  O
  O44      1.0000 0.70700  0.74680  0.44950  Biso   1.000  O
  O45      1.0000 0.31550  0.17650  0.37980  Biso   1.000  O
  O46      1.0000 0.68450  0.82350  0.62020  Biso   1.000  O
  O47      1.0000 0.02600  0.57400  0.96060  Biso   1.000  O
  O48      1.0000 0.97400  0.42600  0.03940  Biso   1.000  O
  O49      1.0000 0.33200  0.98900  0.57800  Biso   1.000  O
  O50      1.0000 0.66800  0.01100  0.42200  Biso   1.000  O
  O51      1.0000 0.82100  0.96800  0.34900  Biso   1.000  O
  O52      1.0000 0.17900  0.03200  0.65100  Biso   1.000  O
