data_image0
_cell_length_a       9.4278
_cell_length_b       24.7779
_cell_length_c       10.6761
_cell_angle_alpha    90
_cell_angle_beta     113.025
_cell_angle_gamma    90

_symmetry_space_group_name_H-M    "P 1"
_symmetry_int_tables_number       1

loop_
  _symmetry_equiv_pos_as_xyz
  'x, y, z'

loop_
  _atom_site_label
  _atom_site_occupancy
  _atom_site_fract_x
  _atom_site_fract_y
  _atom_site_fract_z
  _atom_site_thermal_displace_type
  _atom_site_B_iso_or_equiv
  _atom_site_type_symbol
  Cu1      1.0000 0.61646  0.94539  0.26608  Biso   1.000  Cu
  Cu2      1.0000 0.61646  0.05461  0.76608  Biso   1.000  Cu
  Cu3      1.0000 0.11646  0.44539  0.26608  Biso   1.000  Cu
  Cu4      1.0000 0.11646  0.55461  0.76608  Biso   1.000  Cu
  Cu5      1.0000 0.80079  0.85728  0.13364  Biso   1.000  Cu
  Cu6      1.0000 0.80079  0.14272  0.63364  Biso   1.000  Cu
  Cu7      1.0000 0.30079  0.35728  0.13364  Biso   1.000  Cu
  Cu8      1.0000 0.30079  0.64272  0.63364  Biso   1.000  Cu
  N1       1.0000 0.59510  0.86565  0.26830  Biso   1.000  N
  N2       1.0000 0.59510  0.13435  0.76830  Biso   1.000  N
  N3       1.0000 0.09510  0.36565  0.26830  Biso   1.000  N
  N4       1.0000 0.09510  0.63435  0.76830  Biso   1.000  N
  N5       1.0000 0.74170  0.84499  0.31060  Biso   1.000  N
  N6       1.0000 0.74170  0.15501  0.81060  Biso   1.000  N
  N7       1.0000 0.24170  0.34499  0.31060  Biso   1.000  N
  N8       1.0000 0.24170  0.65501  0.81060  Biso   1.000  N
  N9       1.0000 0.58150  0.77825  0.31850  Biso   1.000  N
  N10      1.0000 0.58150  0.22175  0.81850  Biso   1.000  N
  N11      1.0000 0.08150  0.27825  0.31850  Biso   1.000  N
  N12      1.0000 0.08150  0.72175  0.81850  Biso   1.000  N
  N13      1.0000 0.02350  0.84445  0.17670  Biso   1.000  N
  N14      1.0000 0.02350  0.15555  0.67670  Biso   1.000  N
  N15      1.0000 0.52350  0.34445  0.17670  Biso   1.000  N
  N16      1.0000 0.52350  0.65555  0.67670  Biso   1.000  N
  N17      1.0000 0.12370  0.69276  0.51180  Biso   1.000  N
  N18      1.0000 0.12370  0.30724  0.01180  Biso   1.000  N
  N19      1.0000 0.62370  0.19276  0.51180  Biso   1.000  N
  N20      1.0000 0.62370  0.80724  0.01180  Biso   1.000  N
  N21      1.0000 0.63490  0.96387  0.09280  Biso   1.000  N
  N22      1.0000 0.63490  0.03613  0.59280  Biso   1.000  N
  N23      1.0000 0.13490  0.46387  0.09280  Biso   1.000  N
  N24      1.0000 0.13490  0.53613  0.59280  Biso   1.000  N
  N25      1.0000 0.72670  0.93217  0.04860  Biso   1.000  N
  N26      1.0000 0.72670  0.06783  0.54860  Biso   1.000  N
  N27      1.0000 0.22670  0.43217  0.04860  Biso   1.000  N
  N28      1.0000 0.22670  0.56783  0.54860  Biso   1.000  N
  N29      1.0000 0.66560  0.00749  0.92340  Biso   1.000  N
  N30      1.0000 0.66560  0.99251  0.42340  Biso   1.000  N
  N31      1.0000 0.16560  0.50749  0.92340  Biso   1.000  N
  N32      1.0000 0.16560  0.49251  0.42340  Biso   1.000  N
  N33      1.0000 0.03760  0.90512  0.75520  Biso   1.000  N
  N34      1.0000 0.03760  0.09488  0.25520  Biso   1.000  N
  N35      1.0000 0.53760  0.40512  0.75520  Biso   1.000  N
  N36      1.0000 0.53760  0.59488  0.25520  Biso   1.000  N
  C1       1.0000 0.50470  0.82510  0.27290  Biso   1.000  C
  C2       1.0000 0.50470  0.17490  0.77290  Biso   1.000  C
  C3       1.0000 0.00470  0.32510  0.27290  Biso   1.000  C
  C4       1.0000 0.00470  0.67490  0.77290  Biso   1.000  C
  C5       1.0000 0.33970  0.83157  0.23670  Biso   1.000  C
  C6       1.0000 0.33970  0.16843  0.73670  Biso   1.000  C
  C7       1.0000 0.83970  0.33157  0.23670  Biso   1.000  C
  C8       1.0000 0.83970  0.66843  0.73670  Biso   1.000  C
  C9       1.0000 0.24440  0.78751  0.22820  Biso   1.000  C
  C10      1.0000 0.24440  0.21249  0.72820  Biso   1.000  C
  C11      1.0000 0.74440  0.28751  0.22820  Biso   1.000  C
  C12      1.0000 0.74440  0.71249  0.72820  Biso   1.000  C
  H1       1.0000 0.28460  0.75270  0.24290  Biso   1.000  H
  H2       1.0000 0.28460  0.24730  0.74290  Biso   1.000  H
  H3       1.0000 0.78460  0.25270  0.24290  Biso   1.000  H
  H4       1.0000 0.78460  0.74730  0.74290  Biso   1.000  H
  C13      1.0000 0.09080  0.79595  0.19790  Biso   1.000  C
  C14      1.0000 0.09080  0.20405  0.69790  Biso   1.000  C
  C15      1.0000 0.59080  0.29595  0.19790  Biso   1.000  C
  C16      1.0000 0.59080  0.70405  0.69790  Biso   1.000  C
  H5       1.0000 0.02930  0.76590  0.19160  Biso   1.000  H
  H6       1.0000 0.02930  0.23410  0.69160  Biso   1.000  H
  H7       1.0000 0.52930  0.26590  0.19160  Biso   1.000  H
  H8       1.0000 0.52930  0.73410  0.69160  Biso   1.000  H
  C17      1.0000 0.11600  0.88650  0.18670  Biso   1.000  C
  C18      1.0000 0.11600  0.11350  0.68670  Biso   1.000  C
  C19      1.0000 0.61600  0.38650  0.18670  Biso   1.000  C
  C20      1.0000 0.61600  0.61350  0.68670  Biso   1.000  C
  H9       1.0000 0.07320  0.92090  0.17380  Biso   1.000  H
  H10      1.0000 0.07320  0.07910  0.67380  Biso   1.000  H
  H11      1.0000 0.57320  0.42090  0.17380  Biso   1.000  H
  H12      1.0000 0.57320  0.57910  0.67380  Biso   1.000  H
  C21      1.0000 0.26980  0.88187  0.21470  Biso   1.000  C
  C22      1.0000 0.26980  0.11813  0.71470  Biso   1.000  C
  C23      1.0000 0.76980  0.38187  0.21470  Biso   1.000  C
  C24      1.0000 0.76980  0.61813  0.71470  Biso   1.000  C
  H13      1.0000 0.32800  0.91270  0.21910  Biso   1.000  H
  H14      1.0000 0.32800  0.08730  0.71910  Biso   1.000  H
  H15      1.0000 0.82800  0.41270  0.21910  Biso   1.000  H
  H16      1.0000 0.82800  0.58730  0.71910  Biso   1.000  H
  C25      1.0000 0.72760  0.79340  0.34230  Biso   1.000  C
  C26      1.0000 0.72760  0.20660  0.84230  Biso   1.000  C
  C27      1.0000 0.22760  0.29340  0.34230  Biso   1.000  C
  C28      1.0000 0.22760  0.70660  0.84230  Biso   1.000  C
  C29      1.0000 0.86260  0.75829  0.40000  Biso   1.000  C
  C30      1.0000 0.86260  0.24171  0.90000  Biso   1.000  C
  C31      1.0000 0.36260  0.25829  0.40000  Biso   1.000  C
  C32      1.0000 0.36260  0.74171  0.90000  Biso   1.000  C
  C33      1.0000 0.85190  0.70229  0.38770  Biso   1.000  C
  C34      1.0000 0.85190  0.29771  0.88770  Biso   1.000  C
  C35      1.0000 0.35190  0.20229  0.38770  Biso   1.000  C
  C36      1.0000 0.35190  0.79771  0.88770  Biso   1.000  C
  H17      1.0000 0.75710  0.68580  0.34130  Biso   1.000  H
  H18      1.0000 0.75710  0.31420  0.84130  Biso   1.000  H
  H19      1.0000 0.25710  0.18580  0.34130  Biso   1.000  H
  H20      1.0000 0.25710  0.81420  0.84130  Biso   1.000  H
  C37      1.0000 0.98340  0.67176  0.44500  Biso   1.000  C
  C38      1.0000 0.98340  0.32824  0.94500  Biso   1.000  C
  C39      1.0000 0.48340  0.17176  0.44500  Biso   1.000  C
  C40      1.0000 0.48340  0.82824  0.94500  Biso   1.000  C
  H21      1.0000 0.97440  0.63440  0.43690  Biso   1.000  H
  H22      1.0000 0.97440  0.36560  0.93690  Biso   1.000  H
  H23      1.0000 0.47440  0.13440  0.43690  Biso   1.000  H
  H24      1.0000 0.47440  0.86560  0.93690  Biso   1.000  H
  C41      1.0000 0.13330  0.74653  0.52340  Biso   1.000  C
  C42      1.0000 0.13330  0.25347  0.02340  Biso   1.000  C
  C43      1.0000 0.63330  0.24653  0.52340  Biso   1.000  C
  C44      1.0000 0.63330  0.75347  0.02340  Biso   1.000  C
  H25      1.0000 0.22960  0.76200  0.56970  Biso   1.000  H
  H26      1.0000 0.22960  0.23800  0.06970  Biso   1.000  H
  H27      1.0000 0.72960  0.26200  0.56970  Biso   1.000  H
  H28      1.0000 0.72960  0.73800  0.06970  Biso   1.000  H
  C45      1.0000 0.00720  0.78019  0.47020  Biso   1.000  C
  C46      1.0000 0.00720  0.21981  0.97020  Biso   1.000  C
  C47      1.0000 0.50720  0.28019  0.47020  Biso   1.000  C
  C48      1.0000 0.50720  0.71981  0.97020  Biso   1.000  C
  H29      1.0000 0.01930  0.81740  0.48140  Biso   1.000  H
  H30      1.0000 0.01930  0.18260  0.98140  Biso   1.000  H
  H31      1.0000 0.51930  0.31740  0.48140  Biso   1.000  H
  H32      1.0000 0.51930  0.68260  0.98140  Biso   1.000  H
  C49      1.0000 0.60200  0.00738  0.01680  Biso   1.000  C
  C50      1.0000 0.60200  0.99262  0.51680  Biso   1.000  C
  C51      1.0000 0.10200  0.50738  0.01680  Biso   1.000  C
  C52      1.0000 0.10200  0.49262  0.51680  Biso   1.000  C
  C53      1.0000 0.74240  0.95961  0.94800  Biso   1.000  C
  C54      1.0000 0.74240  0.04039  0.44800  Biso   1.000  C
  C55      1.0000 0.24240  0.45961  0.94800  Biso   1.000  C
  C56      1.0000 0.24240  0.54039  0.44800  Biso   1.000  C
  C57      1.0000 0.83990  0.94076  0.87810  Biso   1.000  C
  C58      1.0000 0.83990  0.05924  0.37810  Biso   1.000  C
  C59      1.0000 0.33990  0.44076  0.87810  Biso   1.000  C
  C60      1.0000 0.33990  0.55924  0.37810  Biso   1.000  C
  C61      1.0000 0.92750  0.97752  0.83730  Biso   1.000  C
  C62      1.0000 0.92750  0.02248  0.33730  Biso   1.000  C
  C63      1.0000 0.42750  0.47752  0.83730  Biso   1.000  C
  C64      1.0000 0.42750  0.52248  0.33730  Biso   1.000  C
  H33      1.0000 0.92230  0.01450  0.85010  Biso   1.000  H
  H34      1.0000 0.92230  0.98550  0.35010  Biso   1.000  H
  H35      1.0000 0.42230  0.51450  0.85010  Biso   1.000  H
  H36      1.0000 0.42230  0.48550  0.35010  Biso   1.000  H
  C65      1.0000 0.02190  0.95635  0.77750  Biso   1.000  C
  C66      1.0000 0.02190  0.04365  0.27750  Biso   1.000  C
  C67      1.0000 0.52190  0.45635  0.77750  Biso   1.000  C
  C68      1.0000 0.52190  0.54365  0.27750  Biso   1.000  C
  H37      1.0000 0.07940  0.98080  0.75060  Biso   1.000  H
  H38      1.0000 0.07940  0.01920  0.25060  Biso   1.000  H
  H39      1.0000 0.57940  0.48080  0.75060  Biso   1.000  H
  H40      1.0000 0.57940  0.51920  0.25060  Biso   1.000  H
  C69      1.0000 0.95530  0.87067  0.79470  Biso   1.000  C
  C70      1.0000 0.95530  0.12933  0.29470  Biso   1.000  C
  C71      1.0000 0.45530  0.37067  0.79470  Biso   1.000  C
  C72      1.0000 0.45530  0.62933  0.29470  Biso   1.000  C
  H41      1.0000 0.96480  0.83400  0.78120  Biso   1.000  H
  H42      1.0000 0.96480  0.16600  0.28120  Biso   1.000  H
  H43      1.0000 0.46480  0.33400  0.78120  Biso   1.000  H
  H44      1.0000 0.46480  0.66600  0.28120  Biso   1.000  H
  C73      1.0000 0.85560  0.88671  0.85531  Biso   1.000  C
  C74      1.0000 0.85560  0.11329  0.35531  Biso   1.000  C
  C75      1.0000 0.35560  0.38671  0.85531  Biso   1.000  C
  C76      1.0000 0.35560  0.61329  0.35531  Biso   1.000  C
  H45      1.0000 0.79970  0.86100  0.88040  Biso   1.000  H
  H46      1.0000 0.79970  0.13900  0.38040  Biso   1.000  H
  H47      1.0000 0.29970  0.36100  0.88040  Biso   1.000  H
  H48      1.0000 0.29970  0.63900  0.38040  Biso   1.000  H
  C77      1.0000 0.49528  0.04863  0.03254  Biso   1.000  C
  C78      1.0000 0.49528  0.95137  0.53254  Biso   1.000  C
  C79      1.0000 0.99528  0.54863  0.03254  Biso   1.000  C
  C80      1.0000 0.99528  0.45137  0.53254  Biso   1.000  C
  C81      1.0000 0.54757  0.10157  0.04351  Biso   1.000  C
  C82      1.0000 0.54757  0.89843  0.54351  Biso   1.000  C
  C83      1.0000 0.04757  0.60157  0.04351  Biso   1.000  C
  C84      1.0000 0.04757  0.39843  0.54351  Biso   1.000  C
  H49      1.0000 0.64240  0.10960  0.03380  Biso   1.000  H
  H50      1.0000 0.64240  0.89040  0.53380  Biso   1.000  H
  H51      1.0000 0.14240  0.60960  0.03380  Biso   1.000  H
  H52      1.0000 0.14240  0.39040  0.53380  Biso   1.000  H
  C85      1.0000 0.46255  0.14295  0.06850  Biso   1.000  C
  C86      1.0000 0.46255  0.85705  0.56850  Biso   1.000  C
  C87      1.0000 0.96255  0.64295  0.06850  Biso   1.000  C
  C88      1.0000 0.96255  0.35705  0.56850  Biso   1.000  C
  H53      1.0000 0.49870  0.17950  0.07610  Biso   1.000  H
  H54      1.0000 0.49870  0.82050  0.57610  Biso   1.000  H
  H55      1.0000 0.99870  0.67950  0.07610  Biso   1.000  H
  H56      1.0000 0.99870  0.32050  0.57610  Biso   1.000  H
  N37      1.0000 0.32523  0.13138  0.08254  Biso   1.000  N
  N38      1.0000 0.32523  0.86862  0.58254  Biso   1.000  N
  N39      1.0000 0.82523  0.63138  0.08254  Biso   1.000  N
  N40      1.0000 0.82523  0.36862  0.58254  Biso   1.000  N
  C89      1.0000 0.27294  0.07845  0.07157  Biso   1.000  C
  C90      1.0000 0.27294  0.92155  0.57157  Biso   1.000  C
  C91      1.0000 0.77294  0.57845  0.07157  Biso   1.000  C
  C92      1.0000 0.77294  0.42155  0.57157  Biso   1.000  C
  H57      1.0000 0.17810  0.07050  0.08130  Biso   1.000  H
  H58      1.0000 0.17810  0.92950  0.58130  Biso   1.000  H
  H59      1.0000 0.67810  0.57050  0.08130  Biso   1.000  H
  H60      1.0000 0.67810  0.42950  0.58130  Biso   1.000  H
  C93      1.0000 0.35796  0.03707  0.04657  Biso   1.000  C
  C94      1.0000 0.35796  0.96293  0.54657  Biso   1.000  C
  C95      1.0000 0.85796  0.53707  0.04657  Biso   1.000  C
  C96      1.0000 0.85796  0.46293  0.54657  Biso   1.000  C
  H61      1.0000 0.32180  0.00050  0.03900  Biso   1.000  H
  H62      1.0000 0.32180  0.99950  0.53900  Biso   1.000  H
  H63      1.0000 0.82180  0.50050  0.03900  Biso   1.000  H
  H64      1.0000 0.82180  0.49950  0.53900  Biso   1.000  H
  C97      1.0000 0.52956  0.05661  0.04881  Biso   1.000  C
  C98      1.0000 0.52956  0.94339  0.54881  Biso   1.000  C
  C99      1.0000 0.02956  0.55661  0.04881  Biso   1.000  C
  C100     1.0000 0.02956  0.44339  0.54881  Biso   1.000  C
  C101     1.0000 0.58609  0.10828  0.04698  Biso   1.000  C
  C102     1.0000 0.58609  0.89172  0.54698  Biso   1.000  C
  C103     1.0000 0.08609  0.60828  0.04698  Biso   1.000  C
  C104     1.0000 0.08609  0.39172  0.54698  Biso   1.000  C
  H65      1.0000 0.67550  0.11340  0.02620  Biso   1.000  H
  H66      1.0000 0.67550  0.88660  0.52620  Biso   1.000  H
  H67      1.0000 0.17550  0.61340  0.02620  Biso   1.000  H
  H68      1.0000 0.17550  0.38660  0.52620  Biso   1.000  H
  C105     1.0000 0.51317  0.15261  0.07523  Biso   1.000  C
  C106     1.0000 0.51317  0.84739  0.57523  Biso   1.000  C
  C107     1.0000 0.01317  0.65261  0.07523  Biso   1.000  C
  C108     1.0000 0.01317  0.34739  0.57523  Biso   1.000  C
  H69      1.0000 0.55220  0.18830  0.07400  Biso   1.000  H
  H70      1.0000 0.55220  0.81170  0.57400  Biso   1.000  H
  H71      1.0000 0.05220  0.68830  0.07400  Biso   1.000  H
  H72      1.0000 0.05220  0.31170  0.57400  Biso   1.000  H
  N41      1.0000 0.38373  0.14526  0.10531  Biso   1.000  N
  N42      1.0000 0.38373  0.85474  0.60531  Biso   1.000  N
  N43      1.0000 0.88373  0.64526  0.10531  Biso   1.000  N
  N44      1.0000 0.88373  0.35474  0.60531  Biso   1.000  N
  C109     1.0000 0.32721  0.09359  0.10714  Biso   1.000  C
  C110     1.0000 0.32721  0.90641  0.60714  Biso   1.000  C
  C111     1.0000 0.82721  0.59359  0.10714  Biso   1.000  C
  C112     1.0000 0.82721  0.40641  0.60714  Biso   1.000  C
  H73      1.0000 0.23780  0.08850  0.12790  Biso   1.000  H
  H74      1.0000 0.23780  0.91150  0.62790  Biso   1.000  H
  H75      1.0000 0.73780  0.58850  0.12790  Biso   1.000  H
  H76      1.0000 0.73780  0.41150  0.62790  Biso   1.000  H
  C113     1.0000 0.40012  0.04926  0.07889  Biso   1.000  C
  C114     1.0000 0.40012  0.95074  0.57889  Biso   1.000  C
  C115     1.0000 0.90012  0.54926  0.07889  Biso   1.000  C
  C116     1.0000 0.90012  0.45074  0.57889  Biso   1.000  C
  H77      1.0000 0.36110  0.01360  0.08020  Biso   1.000  H
  H78      1.0000 0.36110  0.98640  0.58020  Biso   1.000  H
  H79      1.0000 0.86110  0.51360  0.08020  Biso   1.000  H
  H80      1.0000 0.86110  0.48640  0.58020  Biso   1.000  H
