data_image0
_cell_length_a       9.2065
_cell_length_b       25.574
_cell_length_c       6.8104
_cell_angle_alpha    90
_cell_angle_beta     90.256
_cell_angle_gamma    90

_symmetry_space_group_name_H-M    "P 1"
_symmetry_int_tables_number       1

loop_
  _symmetry_equiv_pos_as_xyz
  'x, y, z'

loop_
  _atom_site_label
  _atom_site_occupancy
  _atom_site_fract_x
  _atom_site_fract_y
  _atom_site_fract_z
  _atom_site_thermal_displace_type
  _atom_site_B_iso_or_equiv
  _atom_site_type_symbol
  Cu1      1.0000 0.30598  0.34287  0.64010  Biso   1.000  Cu
  Cu2      1.0000 0.69402  0.84287  0.85990  Biso   1.000  Cu
  Cu3      1.0000 0.69402  0.65713  0.35990  Biso   1.000  Cu
  Cu4      1.0000 0.30598  0.15713  0.14010  Biso   1.000  Cu
  C1       1.0000 0.22550  0.10058  0.68270  Biso   1.000  C
  C2       1.0000 0.77450  0.60058  0.81730  Biso   1.000  C
  C3       1.0000 0.77450  0.89942  0.31730  Biso   1.000  C
  C4       1.0000 0.22550  0.39942  0.18270  Biso   1.000  C
  C5       1.0000 0.24540  0.15721  0.66470  Biso   1.000  C
  C6       1.0000 0.75460  0.65721  0.83530  Biso   1.000  C
  C7       1.0000 0.75460  0.84279  0.33530  Biso   1.000  C
  C8       1.0000 0.24540  0.34279  0.16470  Biso   1.000  C
  C9       1.0000 0.13000  0.19157  0.68900  Biso   1.000  C
  C10      1.0000 0.87000  0.69157  0.81100  Biso   1.000  C
  C11      1.0000 0.87000  0.80843  0.31100  Biso   1.000  C
  C12      1.0000 0.13000  0.30843  0.18900  Biso   1.000  C
  H1       1.0000 0.03750  0.17870  0.71390  Biso   1.000  H
  H2       1.0000 0.96250  0.67870  0.78610  Biso   1.000  H
  H3       1.0000 0.96250  0.82130  0.28610  Biso   1.000  H
  H4       1.0000 0.03750  0.32130  0.21390  Biso   1.000  H
  C13      1.0000 0.15260  0.24441  0.67620  Biso   1.000  C
  C14      1.0000 0.84740  0.74441  0.82380  Biso   1.000  C
  C15      1.0000 0.84740  0.75559  0.32380  Biso   1.000  C
  C16      1.0000 0.15260  0.25559  0.17620  Biso   1.000  C
  H5       1.0000 0.07260  0.26630  0.68990  Biso   1.000  H
  H6       1.0000 0.92740  0.76630  0.81010  Biso   1.000  H
  H7       1.0000 0.92740  0.73370  0.31010  Biso   1.000  H
  H8       1.0000 0.07260  0.23370  0.18990  Biso   1.000  H
  C17      1.0000 0.39370  0.23360  0.62080  Biso   1.000  C
  C18      1.0000 0.60630  0.73360  0.87920  Biso   1.000  C
  C19      1.0000 0.60630  0.76640  0.37920  Biso   1.000  C
  C20      1.0000 0.39370  0.26640  0.12080  Biso   1.000  C
  H9       1.0000 0.48510  0.24760  0.59640  Biso   1.000  H
  H10      1.0000 0.51490  0.74760  0.90360  Biso   1.000  H
  H11      1.0000 0.51490  0.75240  0.40360  Biso   1.000  H
  H12      1.0000 0.48510  0.25240  0.09640  Biso   1.000  H
  C21      1.0000 0.38030  0.17964  0.62980  Biso   1.000  C
  C22      1.0000 0.61970  0.67964  0.87020  Biso   1.000  C
  C23      1.0000 0.61970  0.82036  0.37020  Biso   1.000  C
  C24      1.0000 0.38030  0.32036  0.12980  Biso   1.000  C
  H13      1.0000 0.46150  0.15850  0.61260  Biso   1.000  H
  H14      1.0000 0.53850  0.65850  0.88740  Biso   1.000  H
  H15      1.0000 0.53850  0.84150  0.38740  Biso   1.000  H
  H16      1.0000 0.46150  0.34150  0.11260  Biso   1.000  H
  C25      1.0000 0.13560  0.02689  0.72500  Biso   1.000  C
  C26      1.0000 0.86440  0.52689  0.77500  Biso   1.000  C
  C27      1.0000 0.86440  0.97311  0.27500  Biso   1.000  C
  C28      1.0000 0.13560  0.47311  0.22500  Biso   1.000  C
  C29      1.0000 0.03370  0.98320  0.75820  Biso   1.000  C
  C30      1.0000 0.96630  0.48320  0.74180  Biso   1.000  C
  C31      1.0000 0.96630  0.01680  0.24180  Biso   1.000  C
  C32      1.0000 0.03370  0.51680  0.25820  Biso   1.000  C
  C33      1.0000 0.88500  0.99106  0.75280  Biso   1.000  C
  C34      1.0000 0.11500  0.49106  0.74720  Biso   1.000  C
  C35      1.0000 0.11500  0.00894  0.24720  Biso   1.000  C
  C36      1.0000 0.88500  0.50894  0.25280  Biso   1.000  C
  H17      1.0000 0.84740  0.02430  0.73120  Biso   1.000  H
  H18      1.0000 0.15260  0.52430  0.76880  Biso   1.000  H
  H19      1.0000 0.15260  0.97570  0.26880  Biso   1.000  H
  H20      1.0000 0.84740  0.47570  0.23120  Biso   1.000  H
  C37      1.0000 0.79210  0.94885  0.77990  Biso   1.000  C
  C38      1.0000 0.20790  0.44885  0.72010  Biso   1.000  C
  C39      1.0000 0.20790  0.05115  0.22010  Biso   1.000  C
  C40      1.0000 0.79210  0.55115  0.27990  Biso   1.000  C
  H21      1.0000 0.69260  0.95480  0.77220  Biso   1.000  H
  H22      1.0000 0.30740  0.45480  0.72780  Biso   1.000  H
  H23      1.0000 0.30740  0.04520  0.22780  Biso   1.000  H
  H24      1.0000 0.69260  0.54520  0.27220  Biso   1.000  H
  C41      1.0000 0.98260  0.89359  0.82630  Biso   1.000  C
  C42      1.0000 0.01740  0.39359  0.67370  Biso   1.000  C
  C43      1.0000 0.01740  0.10641  0.17370  Biso   1.000  C
  C44      1.0000 0.98260  0.60641  0.32630  Biso   1.000  C
  H25      1.0000 0.01800  0.86030  0.85350  Biso   1.000  H
  H26      1.0000 0.98200  0.36030  0.64650  Biso   1.000  H
  H27      1.0000 0.98200  0.13970  0.14650  Biso   1.000  H
  H28      1.0000 0.01800  0.63970  0.35350  Biso   1.000  H
  C45      1.0000 0.08110  0.93324  0.79840  Biso   1.000  C
  C46      1.0000 0.91890  0.43324  0.70160  Biso   1.000  C
  C47      1.0000 0.91890  0.06676  0.20160  Biso   1.000  C
  C48      1.0000 0.08110  0.56676  0.29840  Biso   1.000  C
  H29      1.0000 0.18010  0.92630  0.80680  Biso   1.000  H
  H30      1.0000 0.81990  0.42630  0.69320  Biso   1.000  H
  H31      1.0000 0.81990  0.07370  0.19320  Biso   1.000  H
  H32      1.0000 0.18010  0.57370  0.30680  Biso   1.000  H
  N1       1.0000 0.33769  0.06719  0.68100  Biso   1.000  N
  N2       1.0000 0.66231  0.56719  0.81900  Biso   1.000  N
  N3       1.0000 0.66231  0.93281  0.31900  Biso   1.000  N
  N4       1.0000 0.33769  0.43281  0.18100  Biso   1.000  N
  N5       1.0000 0.27820  0.01896  0.70990  Biso   1.000  N
  N6       1.0000 0.72180  0.51896  0.79010  Biso   1.000  N
  N7       1.0000 0.72180  0.98104  0.29010  Biso   1.000  N
  N8       1.0000 0.27820  0.48104  0.20990  Biso   1.000  N
  N9       1.0000 0.09632  0.07709  0.70870  Biso   1.000  N
  N10      1.0000 0.90368  0.57709  0.79130  Biso   1.000  N
  N11      1.0000 0.90368  0.92291  0.29130  Biso   1.000  N
  N12      1.0000 0.09632  0.42291  0.20870  Biso   1.000  N
  N13      1.0000 0.28288  0.26662  0.64520  Biso   1.000  N
  N14      1.0000 0.71712  0.76662  0.85480  Biso   1.000  N
  N15      1.0000 0.71712  0.73338  0.35480  Biso   1.000  N
  N16      1.0000 0.28288  0.23338  0.14520  Biso   1.000  N
  N17      1.0000 0.83792  0.90026  0.81650  Biso   1.000  N
  N18      1.0000 0.16208  0.40026  0.68350  Biso   1.000  N
  N19      1.0000 0.16208  0.09974  0.18350  Biso   1.000  N
  N20      1.0000 0.83792  0.59974  0.31650  Biso   1.000  N
  N21      1.0000 0.50070  0.37747  0.58700  Biso   1.000  N
  N22      1.0000 0.49930  0.87747  0.91300  Biso   1.000  N
  N23      1.0000 0.49930  0.62253  0.41300  Biso   1.000  N
  N24      1.0000 0.50070  0.12253  0.08700  Biso   1.000  N
  H33      1.0000 0.57100  0.35490  0.54400  Biso   1.000  H
  H34      1.0000 0.42900  0.85490  0.95600  Biso   1.000  H
  H35      1.0000 0.42900  0.64510  0.45600  Biso   1.000  H
  H36      1.0000 0.57100  0.14510  0.04400  Biso   1.000  H
  H37      1.0000 0.54500  0.39840  0.68300  Biso   1.000  H
  H38      1.0000 0.45500  0.89840  0.81700  Biso   1.000  H
  H39      1.0000 0.45500  0.60160  0.31700  Biso   1.000  H
  H40      1.0000 0.54500  0.10160  0.18300  Biso   1.000  H
  H41      1.0000 0.48600  0.39970  0.48400  Biso   1.000  H
  H42      1.0000 0.51400  0.89970  0.01600  Biso   1.000  H
  H43      1.0000 0.51400  0.60030  0.51600  Biso   1.000  H
  H44      1.0000 0.48600  0.10030  0.98400  Biso   1.000  H
  O1       1.0000 0.75580  0.30818  0.47540  Biso   1.000  O
  O2       1.0000 0.24420  0.80818  0.02460  Biso   1.000  O
  O3       1.0000 0.24420  0.69182  0.52460  Biso   1.000  O
  O4       1.0000 0.75580  0.19182  0.97540  Biso   1.000  O
  H45      1.0000 0.78800  0.27790  0.42200  Biso   1.000  H
  H46      1.0000 0.21200  0.77790  0.07800  Biso   1.000  H
  H47      1.0000 0.21200  0.72210  0.57800  Biso   1.000  H
  H48      1.0000 0.78800  0.22210  0.92200  Biso   1.000  H
  H49      1.0000 0.78300  0.32590  0.39900  Biso   1.000  H
  H50      1.0000 0.21700  0.82590  0.10100  Biso   1.000  H
  H51      1.0000 0.21700  0.67410  0.60100  Biso   1.000  H
  H52      1.0000 0.78300  0.17410  0.89900  Biso   1.000  H
  O5       1.0000 0.60339  0.43065  0.98140  Biso   1.000  O
  O6       1.0000 0.39661  0.93065  0.51860  Biso   1.000  O
  O7       1.0000 0.39661  0.56935  0.01860  Biso   1.000  O
  O8       1.0000 0.60339  0.06935  0.48140  Biso   1.000  O
  H53      1.0000 0.61600  0.46360  0.92500  Biso   1.000  H
  H54      1.0000 0.38400  0.96360  0.57500  Biso   1.000  H
  H55      1.0000 0.38400  0.53640  0.07500  Biso   1.000  H
  H56      1.0000 0.61600  0.03640  0.42500  Biso   1.000  H
  H57      1.0000 0.53000  0.43580  0.03300  Biso   1.000  H
  H58      1.0000 0.47000  0.93580  0.46700  Biso   1.000  H
  H59      1.0000 0.47000  0.56420  0.96700  Biso   1.000  H
  H60      1.0000 0.53000  0.06420  0.53300  Biso   1.000  H
  O9       1.0000 0.81631  0.37300  0.15680  Biso   1.000  O
  O10      1.0000 0.18369  0.87300  0.34320  Biso   1.000  O
  O11      1.0000 0.18369  0.62700  0.84320  Biso   1.000  O
  O12      1.0000 0.81631  0.12700  0.65680  Biso   1.000  O
  H61      1.0000 0.88900  0.39330  0.16400  Biso   1.000  H
  H62      1.0000 0.11100  0.89330  0.33600  Biso   1.000  H
  H63      1.0000 0.11100  0.60670  0.83600  Biso   1.000  H
  H64      1.0000 0.88900  0.10670  0.66400  Biso   1.000  H
  H65      1.0000 0.75300  0.39460  0.11000  Biso   1.000  H
  H66      1.0000 0.24700  0.89460  0.39000  Biso   1.000  H
  H67      1.0000 0.24700  0.60540  0.89000  Biso   1.000  H
  H68      1.0000 0.75300  0.10540  0.61000  Biso   1.000  H
  O13      1.0000 0.77020  0.29434  0.87550  Biso   1.000  O
  O14      1.0000 0.22980  0.79434  0.62450  Biso   1.000  O
  O15      1.0000 0.22980  0.70566  0.12450  Biso   1.000  O
  O16      1.0000 0.77020  0.20566  0.37550  Biso   1.000  O
  H69      1.0000 0.80200  0.32130  0.95800  Biso   1.000  H
  H70      1.0000 0.19800  0.82130  0.54200  Biso   1.000  H
  H71      1.0000 0.19800  0.67870  0.04200  Biso   1.000  H
  H72      1.0000 0.80200  0.17870  0.45800  Biso   1.000  H
  H73      1.0000 0.77000  0.30250  0.76100  Biso   1.000  H
  H74      1.0000 0.23000  0.80250  0.73900  Biso   1.000  H
  H75      1.0000 0.23000  0.69750  0.23900  Biso   1.000  H
  H76      1.0000 0.77000  0.19750  0.26100  Biso   1.000  H
