data_image0
_cell_length_a       13.289
_cell_length_b       14.121
_cell_length_c       14.326
_cell_angle_alpha    71.29
_cell_angle_beta     88.96
_cell_angle_gamma    77.91

_symmetry_space_group_name_H-M    "P 1"
_symmetry_int_tables_number       1

loop_
  _symmetry_equiv_pos_as_xyz
  'x, y, z'

loop_
  _atom_site_label
  _atom_site_occupancy
  _atom_site_fract_x
  _atom_site_fract_y
  _atom_site_fract_z
  _atom_site_thermal_displace_type
  _atom_site_B_iso_or_equiv
  _atom_site_type_symbol
  P1       1.0000 0.50000  0.50000  0.50000  Biso   1.000  P
  C1       1.0000 0.60430  0.95340  0.88830  Biso   1.000  C
  C2       1.0000 0.39570  0.04660  0.11170  Biso   1.000  C
  H1       1.0000 0.59540  0.99310  0.82200  Biso   1.000  H
  H2       1.0000 0.40460  0.00690  0.17800  Biso   1.000  H
  C3       1.0000 0.52330  0.91460  0.93210  Biso   1.000  C
  C4       1.0000 0.47670  0.08540  0.06790  Biso   1.000  C
  H3       1.0000 0.46210  0.92540  0.89600  Biso   1.000  H
  H4       1.0000 0.53790  0.07460  0.10400  Biso   1.000  H
  C5       1.0000 0.53410  0.85870  0.03170  Biso   1.000  C
  C6       1.0000 0.46590  0.14130  0.96830  Biso   1.000  C
  H5       1.0000 0.47950  0.83340  0.06460  Biso   1.000  H
  H6       1.0000 0.52050  0.16660  0.93540  Biso   1.000  H
  C7       1.0000 0.62710  0.84150  0.08090  Biso   1.000  C
  C8       1.0000 0.37290  0.15850  0.91910  Biso   1.000  C
  H7       1.0000 0.63650  0.80320  0.14760  Biso   1.000  H
  H8       1.0000 0.36350  0.19680  0.85240  Biso   1.000  H
  C9       1.0000 0.70980  0.88280  0.02930  Biso   1.000  C
  C10      1.0000 0.29020  0.11720  0.97070  Biso   1.000  C
  C11      1.0000 0.81370  0.85640  0.08390  Biso   1.000  C
  C12      1.0000 0.18630  0.14360  0.91610  Biso   1.000  C
  C13      1.0000 0.83920  0.76800  0.16130  Biso   1.000  C
  C14      1.0000 0.16080  0.23200  0.83870  Biso   1.000  C
  H9       1.0000 0.79150  0.72660  0.18030  Biso   1.000  H
  H10      1.0000 0.20850  0.27340  0.81970  Biso   1.000  H
  C15      1.0000 0.93790  0.73660  0.21500  Biso   1.000  C
  C16      1.0000 0.06210  0.26340  0.78500  Biso   1.000  C
  H11      1.0000 0.95400  0.67770  0.26970  Biso   1.000  H
  H12      1.0000 0.04600  0.32230  0.73030  Biso   1.000  H
  C17      1.0000 0.00430  0.79650  0.18210  Biso   1.000  C
  C18      1.0000 0.99570  0.20350  0.81790  Biso   1.000  C
  H13      1.0000 0.06980  0.77690  0.21300  Biso   1.000  H
  H14      1.0000 0.93020  0.22310  0.78700  Biso   1.000  H
  C19      1.0000 0.88570  0.91930  0.05540  Biso   1.000  C
  C20      1.0000 0.11430  0.08070  0.94460  Biso   1.000  C
  C21      1.0000 0.30720  0.66830  0.80120  Biso   1.000  C
  C22      1.0000 0.69280  0.33170  0.19880  Biso   1.000  C
  H15      1.0000 0.32960  0.61370  0.77750  Biso   1.000  H
  H16      1.0000 0.67040  0.38630  0.22250  Biso   1.000  H
  C23      1.0000 0.36620  0.68150  0.87140  Biso   1.000  C
  C24      1.0000 0.63380  0.31850  0.12860  Biso   1.000  C
  H17      1.0000 0.42840  0.63510  0.89430  Biso   1.000  H
  H18      1.0000 0.57160  0.36490  0.10570  Biso   1.000  H
  C25      1.0000 0.33760  0.76040  0.90950  Biso   1.000  C
  C26      1.0000 0.66240  0.23960  0.09050  Biso   1.000  C
  H19      1.0000 0.37770  0.76730  0.95840  Biso   1.000  H
  H20      1.0000 0.62230  0.23270  0.04160  Biso   1.000  H
  C27      1.0000 0.24750  0.82760  0.87170  Biso   1.000  C
  C28      1.0000 0.75250  0.17240  0.12830  Biso   1.000  C
  H21      1.0000 0.22590  0.88290  0.89450  Biso   1.000  H
  H22      1.0000 0.77410  0.11710  0.10550  Biso   1.000  H
  C29      1.0000 0.18750  0.81600  0.80070  Biso   1.000  C
  C30      1.0000 0.81250  0.18400  0.19930  Biso   1.000  C
  C31      1.0000 0.08980  0.89360  0.75330  Biso   1.000  C
  C32      1.0000 0.91020  0.10640  0.24670  Biso   1.000  C
  C33      1.0000 0.08060  0.95010  0.65210  Biso   1.000  C
  C34      1.0000 0.91940  0.04990  0.34790  Biso   1.000  C
  H23      1.0000 0.13370  0.93910  0.61100  Biso   1.000  H
  H24      1.0000 0.86630  0.06090  0.38900  Biso   1.000  H
  C35      1.0000 0.99340  0.02020  0.61610  Biso   1.000  C
  C36      1.0000 0.00660  0.97980  0.38390  Biso   1.000  C
  H25      1.0000 0.98720  0.06030  0.54990  Biso   1.000  H
  H26      1.0000 0.01280  0.93970  0.45010  Biso   1.000  H
  C37      1.0000 0.91040  0.03390  0.67790  Biso   1.000  C
  C38      1.0000 0.08960  0.96610  0.32210  Biso   1.000  C
  H27      1.0000 0.84970  0.08130  0.65120  Biso   1.000  H
  H28      1.0000 0.15030  0.91870  0.34880  Biso   1.000  H
  C39      1.0000 0.00790  0.90850  0.81240  Biso   1.000  C
  C40      1.0000 0.99210  0.09150  0.18760  Biso   1.000  C
  H29      1.0000 0.01360  0.87000  0.87910  Biso   1.000  H
  H30      1.0000 0.98640  0.13000  0.12090  Biso   1.000  H
  C41      1.0000 0.63980  0.99230  0.57790  Biso   1.000  C
  C42      1.0000 0.36020  0.00770  0.42210  Biso   1.000  C
  H31      1.0000 0.61730  0.01250  0.63180  Biso   1.000  H
  H32      1.0000 0.38270  0.98750  0.36820  Biso   1.000  H
  C43      1.0000 0.59760  0.04990  0.48530  Biso   1.000  C
  C44      1.0000 0.40240  0.95010  0.51470  Biso   1.000  C
  H33      1.0000 0.54580  0.10810  0.47620  Biso   1.000  H
  H34      1.0000 0.45420  0.89190  0.52380  Biso   1.000  H
  C45      1.0000 0.63440  0.01900  0.40330  Biso   1.000  C
  C46      1.0000 0.36560  0.98100  0.59670  Biso   1.000  C
  H35      1.0000 0.60620  0.05610  0.33990  Biso   1.000  H
  H36      1.0000 0.39380  0.94390  0.66010  Biso   1.000  H
  C47      1.0000 0.71010  0.93600  0.41900  Biso   1.000  C
  C48      1.0000 0.28990  0.06400  0.58100  Biso   1.000  C
  H37      1.0000 0.73580  0.91580  0.36590  Biso   1.000  H
  H38      1.0000 0.26420  0.08420  0.63410  Biso   1.000  H
  C49      1.0000 0.75040  0.88000  0.51290  Biso   1.000  C
  C50      1.0000 0.24960  0.12000  0.48710  Biso   1.000  C
  C51      1.0000 0.83910  0.79010  0.53140  Biso   1.000  C
  C52      1.0000 0.16090  0.20990  0.46860  Biso   1.000  C
  C53      1.0000 0.84280  0.71890  0.48140  Biso   1.000  C
  C54      1.0000 0.15720  0.28110  0.51860  Biso   1.000  C
  H39      1.0000 0.78730  0.72170  0.44130  Biso   1.000  H
  H40      1.0000 0.21270  0.27830  0.55870  Biso   1.000  H
  C55      1.0000 0.93130  0.64530  0.49380  Biso   1.000  C
  C56      1.0000 0.06870  0.35470  0.50620  Biso   1.000  C
  H41      1.0000 0.93740  0.59760  0.46080  Biso   1.000  H
  H42      1.0000 0.06260  0.40240  0.53920  Biso   1.000  H
  C57      1.0000 0.01150  0.64200  0.55530  Biso   1.000  C
  C58      1.0000 0.98850  0.35800  0.44470  Biso   1.000  C
  H43      1.0000 0.07080  0.59120  0.56270  Biso   1.000  H
  H44      1.0000 0.92920  0.40880  0.43730  Biso   1.000  H
  C59      1.0000 0.92020  0.78220  0.59190  Biso   1.000  C
  C60      1.0000 0.07980  0.21780  0.40810  Biso   1.000  C
  H45      1.0000 0.91500  0.82920  0.62570  Biso   1.000  H
  H46      1.0000 0.08500  0.17080  0.37430  Biso   1.000  H
  C61      1.0000 0.12850  0.62760  0.04020  Biso   1.000  C
  C62      1.0000 0.87150  0.37240  0.95980  Biso   1.000  C
  H47      1.0000 0.17680  0.66100  0.00360  Biso   1.000  H
  H48      1.0000 0.82320  0.33900  0.99640  Biso   1.000  H
  C63      1.0000 0.16240  0.55780  0.12780  Biso   1.000  C
  C64      1.0000 0.83760  0.44220  0.87220  Biso   1.000  C
  H49      1.0000 0.22780  0.55020  0.15480  Biso   1.000  H
  H50      1.0000 0.77220  0.44980  0.84520  Biso   1.000  H
  C65      1.0000 0.09580  0.49760  0.17600  Biso   1.000  C
  C66      1.0000 0.90420  0.50240  0.82400  Biso   1.000  C
  H51      1.0000 0.11690  0.44350  0.23410  Biso   1.000  H
  H52      1.0000 0.88310  0.55650  0.76590  Biso   1.000  H
  C67      1.0000 0.99760  0.52030  0.13560  Biso   1.000  C
  C68      1.0000 0.00240  0.47970  0.86440  Biso   1.000  C
  H53      1.0000 0.95050  0.48150  0.16650  Biso   1.000  H
  H54      1.0000 0.04950  0.51850  0.83350  Biso   1.000  H
  C69      1.0000 0.96800  0.60100  0.04850  Biso   1.000  C
  C70      1.0000 0.03200  0.39900  0.95150  Biso   1.000  C
  C71      1.0000 0.86440  0.62930  0.99960  Biso   1.000  C
  C72      1.0000 0.13560  0.37070  0.00040  Biso   1.000  C
  C73      1.0000 0.78200  0.59310  0.04540  Biso   1.000  C
  C74      1.0000 0.21800  0.40690  0.95460  Biso   1.000  C
  H55      1.0000 0.79010  0.55020  0.11070  Biso   1.000  H
  H56      1.0000 0.20990  0.44980  0.88930  Biso   1.000  H
  C75      1.0000 0.68620  0.62010  0.99460  Biso   1.000  C
  C76      1.0000 0.31380  0.37990  0.00540  Biso   1.000  C
  H57      1.0000 0.63000  0.59640  0.02550  Biso   1.000  H
  H58      1.0000 0.37000  0.40360  0.97450  Biso   1.000  H
  C77      1.0000 0.67760  0.67870  0.90390  Biso   1.000  C
  C78      1.0000 0.32240  0.32130  0.09610  Biso   1.000  C
  H59      1.0000 0.61430  0.69400  0.86960  Biso   1.000  H
  H60      1.0000 0.38570  0.30600  0.13040  Biso   1.000  H
  C79      1.0000 0.84840  0.69450  0.90270  Biso   1.000  C
  C80      1.0000 0.15160  0.30550  0.09730  Biso   1.000  C
  H61      1.0000 0.90230  0.72140  0.87000  Biso   1.000  H
  H62      1.0000 0.09770  0.27860  0.13000  Biso   1.000  H
  N1       1.0000 0.69620  0.93800  0.93460  Biso   1.000  N
  N2       1.0000 0.30380  0.06200  0.06540  Biso   1.000  N
  N3       1.0000 0.98030  0.88610  0.10440  Biso   1.000  N
  N4       1.0000 0.01970  0.11390  0.89560  Biso   1.000  N
  N5       1.0000 0.21550  0.73470  0.76580  Biso   1.000  N
  N6       1.0000 0.78450  0.26530  0.23420  Biso   1.000  N
  N7       1.0000 0.91870  0.97950  0.77370  Biso   1.000  N
  N8       1.0000 0.08130  0.02050  0.22630  Biso   1.000  N
  N9       1.0000 0.71630  0.90340  0.59240  Biso   1.000  N
  N10      1.0000 0.28370  0.09660  0.40760  Biso   1.000  N
  N11      1.0000 0.00810  0.70940  0.60570  Biso   1.000  N
  N12      1.0000 0.99190  0.29060  0.39430  Biso   1.000  N
  N13      1.0000 0.03580  0.65360  0.00120  Biso   1.000  N
  N14      1.0000 0.96420  0.34640  0.99880  Biso   1.000  N
  N15      1.0000 0.75460  0.71910  0.85580  Biso   1.000  N
  N16      1.0000 0.24540  0.28090  0.14420  Biso   1.000  N
  O1       1.0000 0.54050  0.56790  0.40580  Biso   1.000  O
  O2       1.0000 0.45950  0.43210  0.59420  Biso   1.000  O
  O3       1.0000 0.38860  0.54390  0.50910  Biso   1.000  O
  O4       1.0000 0.61140  0.45610  0.49090  Biso   1.000  O
  O5       1.0000 0.51280  0.39500  0.50100  Biso   1.000  O
  O6       1.0000 0.48720  0.60500  0.49900  Biso   1.000  O
  O7       1.0000 0.56250  0.50940  0.58750  Biso   1.000  O
  O8       1.0000 0.43750  0.49060  0.41250  Biso   1.000  O
  O9       1.0000 0.69620  0.57680  0.62590  Biso   1.000  O
  O10      1.0000 0.30380  0.42320  0.37410  Biso   1.000  O
  O11      1.0000 0.53690  0.55130  0.73530  Biso   1.000  O
  O12      1.0000 0.46310  0.44870  0.26470  Biso   1.000  O
  O13      1.0000 0.77410  0.51050  0.47890  Biso   1.000  O
  O14      1.0000 0.22590  0.48950  0.52110  Biso   1.000  O
  O15      1.0000 0.38870  0.44930  0.74720  Biso   1.000  O
  O16      1.0000 0.61130  0.55070  0.25280  Biso   1.000  O
  O17      1.0000 0.67400  0.38380  0.72430  Biso   1.000  O
  O18      1.0000 0.32600  0.61620  0.27570  Biso   1.000  O
  O19      1.0000 0.74620  0.32190  0.58960  Biso   1.000  O
  O20      1.0000 0.25380  0.67810  0.41040  Biso   1.000  O
  O21      1.0000 0.81770  0.54610  0.28510  Biso   1.000  O
  O22      1.0000 0.18230  0.45390  0.71490  Biso   1.000  O
  O23      1.0000 0.77410  0.18140  0.47930  Biso   1.000  O
  O24      1.0000 0.22590  0.81860  0.52070  Biso   1.000  O
  O25      1.0000 0.34040  0.32510  0.65930  Biso   1.000  O
  O26      1.0000 0.65960  0.67490  0.34070  Biso   1.000  O
  O27      1.0000 0.73430  0.38800  0.38900  Biso   1.000  O
  O28      1.0000 0.26570  0.61200  0.61100  Biso   1.000  O
  O29      1.0000 0.60910  0.22392  0.60120  Biso   1.000  O
  O30      1.0000 0.39090  0.77608  0.39880  Biso   1.000  O
  O31      1.0000 0.74570  0.15670  0.78320  Biso   1.000  O
  O32      1.0000 0.25430  0.84330  0.21680  Biso   1.000  O
  O33      1.0000 0.87100  0.42520  0.65820  Biso   1.000  O
  O34      1.0000 0.12900  0.57480  0.34180  Biso   1.000  O
  O35      1.0000 0.59180  0.74210  0.68090  Biso   1.000  O
  O36      1.0000 0.40820  0.25790  0.31910  Biso   1.000  O
  O37      1.0000 0.45230  0.13030  0.69950  Biso   1.000  O
  O38      1.0000 0.54770  0.86970  0.30050  Biso   1.000  O
  O39      1.0000 0.57980  0.28800  0.40180  Biso   1.000  O
  O40      1.0000 0.42020  0.71200  0.59820  Biso   1.000  O
  O41      1.0000 0.42200  0.26010  0.51040  Biso   1.000  O
  O42      1.0000 0.57800  0.73990  0.48960  Biso   1.000  O
  O43      1.0000 0.54330  0.37730  0.88760  Biso   1.000  O
  O44      1.0000 0.45670  0.62270  0.11240  Biso   1.000  O
  O45      1.0000 0.53440  0.28540  0.73630  Biso   1.000  O
  O46      1.0000 0.46560  0.71460  0.26370  Biso   1.000  O
  O47      1.0000 0.87100  0.00750  0.99030  Biso   1.000  O
  O48      1.0000 0.12900  0.99250  0.00970  Biso   1.000  O
  V1       1.0000 0.67582  0.25565  0.70282  Biso   1.000  V
  V2       1.0000 0.32418  0.74435  0.29718  Biso   1.000  V
  Mo1      1.0000 0.75211  0.45765  0.60734  Biso   1.000  Mo
  Mo2      1.0000 0.24789  0.54235  0.39266  Biso   1.000  Mo
  Mo3      1.0000 0.68525  0.28617  0.47889  Biso   1.000  Mo
  Mo4      1.0000 0.31475  0.71383  0.52111  Biso   1.000  Mo
  Mo5      1.0000 0.45813  0.24997  0.63368  Biso   1.000  Mo
  Mo6      1.0000 0.54187  0.75003  0.36632  Biso   1.000  Mo
  Mo7      1.0000 0.52584  0.42221  0.76532  Biso   1.000  Mo
  Mo8      1.0000 0.47416  0.57779  0.23468  Biso   1.000  Mo
  Mo9      1.0000 0.71715  0.53497  0.34951  Biso   1.000  Mo
  Mo10     1.0000 0.28285  0.46503  0.65049  Biso   1.000  Mo
  Mo11     1.0000 0.56567  0.66440  0.62650  Biso   1.000  Mo
  Mo12     1.0000 0.43433  0.33560  0.37350  Biso   1.000  Mo
  Cu1      1.0000 0.80242  0.99929  0.85522  Biso   1.000  Cu
  Cu2      1.0000 0.19758  0.00071  0.14478  Biso   1.000  Cu
  Cu3      1.0000 0.12526  0.71331  0.67656  Biso   1.000  Cu
  Cu4      1.0000 0.87474  0.28669  0.32344  Biso   1.000  Cu
  Cu5      1.0000 0.73129  0.80803  0.72150  Biso   1.000  Cu
  Cu6      1.0000 0.26871  0.19197  0.27850  Biso   1.000  Cu
