data_image0
_cell_length_a       7.9633
_cell_length_b       10.3757
_cell_length_c       13.1054
_cell_angle_alpha    90
_cell_angle_beta     105.673
_cell_angle_gamma    90

_symmetry_space_group_name_H-M    "P 1"
_symmetry_int_tables_number       1

loop_
  _symmetry_equiv_pos_as_xyz
  'x, y, z'

loop_
  _atom_site_label
  _atom_site_occupancy
  _atom_site_fract_x
  _atom_site_fract_y
  _atom_site_fract_z
  _atom_site_thermal_displace_type
  _atom_site_B_iso_or_equiv
  _atom_site_type_symbol
  Cu1      1.0000 0.09643  0.50522  0.39495  Biso   1.000  Cu
  Cu2      1.0000 0.40357  0.00522  0.10505  Biso   1.000  Cu
  Cu3      1.0000 0.90357  0.49478  0.60505  Biso   1.000  Cu
  Cu4      1.0000 0.59643  0.99478  0.89495  Biso   1.000  Cu
  N1       1.0000 0.11600  0.35647  0.48928  Biso   1.000  N
  N2       1.0000 0.38400  0.85647  0.01072  Biso   1.000  N
  N3       1.0000 0.88400  0.64353  0.51072  Biso   1.000  N
  N4       1.0000 0.61600  0.14353  0.98928  Biso   1.000  N
  N5       1.0000 0.09410  0.37114  0.58968  Biso   1.000  N
  N6       1.0000 0.40590  0.87114  0.91032  Biso   1.000  N
  N7       1.0000 0.90590  0.62886  0.41032  Biso   1.000  N
  N8       1.0000 0.59410  0.12886  0.08968  Biso   1.000  N
  N9       1.0000 0.19050  0.16910  0.57694  Biso   1.000  N
  N10      1.0000 0.30950  0.66910  0.92306  Biso   1.000  N
  N11      1.0000 0.80950  0.83090  0.42306  Biso   1.000  N
  N12      1.0000 0.69050  0.33090  0.07694  Biso   1.000  N
  N13      1.0000 0.30940  0.06507  0.22223  Biso   1.000  N
  N14      1.0000 0.19060  0.56507  0.27777  Biso   1.000  N
  N15      1.0000 0.69060  0.93493  0.77777  Biso   1.000  N
  N16      1.0000 0.80940  0.43493  0.72223  Biso   1.000  N
  N17      1.0000 0.18230  0.16290  0.96157  Biso   1.000  N
  N18      1.0000 0.31770  0.66290  0.53843  Biso   1.000  N
  N19      1.0000 0.81770  0.83710  0.03843  Biso   1.000  N
  N20      1.0000 0.68230  0.33710  0.46157  Biso   1.000  N
  C1       1.0000 0.17150  0.23519  0.48567  Biso   1.000  C
  C2       1.0000 0.32850  0.73519  0.01433  Biso   1.000  C
  C3       1.0000 0.82850  0.76481  0.51433  Biso   1.000  C
  C4       1.0000 0.67150  0.26481  0.98567  Biso   1.000  C
  C5       1.0000 0.14020  0.25750  0.63766  Biso   1.000  C
  C6       1.0000 0.35980  0.75750  0.86234  Biso   1.000  C
  C7       1.0000 0.85980  0.74250  0.36234  Biso   1.000  C
  C8       1.0000 0.64020  0.24250  0.13766  Biso   1.000  C
  C9       1.0000 0.37080  0.02076  0.32208  Biso   1.000  C
  C10      1.0000 0.12920  0.52076  0.17792  Biso   1.000  C
  C11      1.0000 0.62920  0.97924  0.67792  Biso   1.000  C
  C12      1.0000 0.87080  0.47924  0.82208  Biso   1.000  C
  H1       1.0000 0.45020  0.95050  0.33420  Biso   1.000  H
  H2       1.0000 0.04980  0.45050  0.16580  Biso   1.000  H
  H3       1.0000 0.54980  0.04950  0.66580  Biso   1.000  H
  H4       1.0000 0.95020  0.54950  0.83420  Biso   1.000  H
  C13      1.0000 0.32420  0.07241  0.40755  Biso   1.000  C
  C14      1.0000 0.17580  0.57241  0.09245  Biso   1.000  C
  C15      1.0000 0.67580  0.92759  0.59245  Biso   1.000  C
  C16      1.0000 0.82420  0.42759  0.90755  Biso   1.000  C
  H5       1.0000 0.36890  0.03630  0.47620  Biso   1.000  H
  H6       1.0000 0.13110  0.53630  0.02380  Biso   1.000  H
  H7       1.0000 0.63110  0.96370  0.52380  Biso   1.000  H
  H8       1.0000 0.86890  0.46370  0.97620  Biso   1.000  H
  C17      1.0000 0.21180  0.17723  0.39299  Biso   1.000  C
  C18      1.0000 0.28820  0.67723  0.10701  Biso   1.000  C
  C19      1.0000 0.78820  0.82277  0.60701  Biso   1.000  C
  C20      1.0000 0.71180  0.32277  0.89299  Biso   1.000  C
  C21      1.0000 0.14210  0.21994  0.28988  Biso   1.000  C
  C22      1.0000 0.35790  0.71994  0.21012  Biso   1.000  C
  C23      1.0000 0.85790  0.78006  0.71012  Biso   1.000  C
  C24      1.0000 0.64210  0.28006  0.78988  Biso   1.000  C
  H9       1.0000 0.05930  0.28810  0.27550  Biso   1.000  H
  H10      1.0000 0.44070  0.78810  0.22450  Biso   1.000  H
  H11      1.0000 0.94070  0.71190  0.72450  Biso   1.000  H
  H12      1.0000 0.55930  0.21190  0.77550  Biso   1.000  H
  C25      1.0000 0.19410  0.16243  0.20818  Biso   1.000  C
  C26      1.0000 0.30590  0.66243  0.29182  Biso   1.000  C
  C27      1.0000 0.80590  0.83757  0.79182  Biso   1.000  C
  C28      1.0000 0.69410  0.33757  0.70818  Biso   1.000  C
  H13      1.0000 0.14570  0.19350  0.13820  Biso   1.000  H
  H14      1.0000 0.35430  0.69350  0.36180  Biso   1.000  H
  H15      1.0000 0.85430  0.80650  0.86180  Biso   1.000  H
  H16      1.0000 0.64570  0.30650  0.63820  Biso   1.000  H
  C29      1.0000 0.23830  0.27620  0.93457  Biso   1.000  C
  C30      1.0000 0.26170  0.77620  0.56543  Biso   1.000  C
  C31      1.0000 0.76170  0.72380  0.06543  Biso   1.000  C
  C32      1.0000 0.73830  0.22380  0.43457  Biso   1.000  C
  H17      1.0000 0.29300  0.33380  0.98990  Biso   1.000  H
  H18      1.0000 0.20700  0.83380  0.51010  Biso   1.000  H
  H19      1.0000 0.70700  0.66620  0.01010  Biso   1.000  H
  H20      1.0000 0.79300  0.16620  0.48990  Biso   1.000  H
  C33      1.0000 0.22160  0.31510  0.83119  Biso   1.000  C
  C34      1.0000 0.27840  0.81510  0.66881  Biso   1.000  C
  C35      1.0000 0.77840  0.68490  0.16881  Biso   1.000  C
  C36      1.0000 0.72160  0.18490  0.33119  Biso   1.000  C
  H21      1.0000 0.26110  0.39770  0.81650  Biso   1.000  H
  H22      1.0000 0.23890  0.89770  0.68350  Biso   1.000  H
  H23      1.0000 0.73890  0.60230  0.18350  Biso   1.000  H
  H24      1.0000 0.76110  0.10230  0.31650  Biso   1.000  H
  C37      1.0000 0.14570  0.23034  0.74929  Biso   1.000  C
  C38      1.0000 0.35430  0.73034  0.75071  Biso   1.000  C
  C39      1.0000 0.85430  0.76966  0.25071  Biso   1.000  C
  C40      1.0000 0.64570  0.26966  0.24929  Biso   1.000  C
  C41      1.0000 0.08400  0.11309  0.77640  Biso   1.000  C
  C42      1.0000 0.41600  0.61309  0.72360  Biso   1.000  C
  C43      1.0000 0.91600  0.88691  0.22360  Biso   1.000  C
  C44      1.0000 0.58400  0.38691  0.27640  Biso   1.000  C
  H25      1.0000 0.02900  0.05330  0.72290  Biso   1.000  H
  H26      1.0000 0.47100  0.55330  0.77710  Biso   1.000  H
  H27      1.0000 0.97100  0.94670  0.27710  Biso   1.000  H
  H28      1.0000 0.52900  0.44670  0.22290  Biso   1.000  H
  C45      1.0000 0.10380  0.08490  0.88211  Biso   1.000  C
  C46      1.0000 0.39620  0.58490  0.61789  Biso   1.000  C
  C47      1.0000 0.89620  0.91510  0.11789  Biso   1.000  C
  C48      1.0000 0.60380  0.41510  0.38211  Biso   1.000  C
  H29      1.0000 0.05890  0.00530  0.89910  Biso   1.000  H
  H30      1.0000 0.44110  0.50530  0.60090  Biso   1.000  H
  H31      1.0000 0.94110  0.99470  0.10090  Biso   1.000  H
  H32      1.0000 0.55890  0.49470  0.39910  Biso   1.000  H
