data_image0
_cell_length_a       9.1241
_cell_length_b       18.1265
_cell_length_c       19.586
_cell_angle_alpha    90
_cell_angle_beta     94.712
_cell_angle_gamma    90

_symmetry_space_group_name_H-M    "P 1"
_symmetry_int_tables_number       1

loop_
  _symmetry_equiv_pos_as_xyz
  'x, y, z'

loop_
  _atom_site_label
  _atom_site_occupancy
  _atom_site_fract_x
  _atom_site_fract_y
  _atom_site_fract_z
  _atom_site_thermal_displace_type
  _atom_site_B_iso_or_equiv
  _atom_site_type_symbol
  Cu1      1.0000 0.46847  0.75042  0.25254  Biso   1.000  Cu
  Cu2      1.0000 0.53153  0.25042  0.24746  Biso   1.000  Cu
  Cu3      1.0000 0.53153  0.24958  0.74746  Biso   1.000  Cu
  Cu4      1.0000 0.46847  0.74958  0.75254  Biso   1.000  Cu
  O1       1.0000 0.39430  0.62010  0.23644  Biso   1.000  O
  O2       1.0000 0.60570  0.12010  0.26356  Biso   1.000  O
  O3       1.0000 0.60570  0.37990  0.76356  Biso   1.000  O
  O4       1.0000 0.39430  0.87990  0.73644  Biso   1.000  O
  N1       1.0000 0.39040  0.78099  0.15594  Biso   1.000  N
  N2       1.0000 0.60960  0.28099  0.34406  Biso   1.000  N
  N3       1.0000 0.60960  0.21901  0.84406  Biso   1.000  N
  N4       1.0000 0.39040  0.71901  0.65594  Biso   1.000  N
  N5       1.0000 0.66660  0.72821  0.21746  Biso   1.000  N
  N6       1.0000 0.33340  0.22821  0.28254  Biso   1.000  N
  N7       1.0000 0.33340  0.27179  0.78254  Biso   1.000  N
  N8       1.0000 0.66660  0.77179  0.71746  Biso   1.000  N
  N9       1.0000 0.72640  0.27723  0.21145  Biso   1.000  N
  N10      1.0000 0.27360  0.77723  0.28855  Biso   1.000  N
  N11      1.0000 0.27360  0.72277  0.78855  Biso   1.000  N
  N12      1.0000 0.72640  0.22277  0.71145  Biso   1.000  N
  O5       1.0000 0.71402  0.50111  0.20693  Biso   1.000  O
  O6       1.0000 0.28598  0.00111  0.29307  Biso   1.000  O
  O7       1.0000 0.28598  0.49889  0.79307  Biso   1.000  O
  O8       1.0000 0.71402  0.99889  0.70693  Biso   1.000  O
  N13      1.0000 0.44890  0.23007  0.14926  Biso   1.000  N
  N14      1.0000 0.55110  0.73007  0.35074  Biso   1.000  N
  N15      1.0000 0.55110  0.76993  0.85074  Biso   1.000  N
  N16      1.0000 0.44890  0.26993  0.64926  Biso   1.000  N
  O9       1.0000 0.40220  0.00625  0.14150  Biso   1.000  O
  O10      1.0000 0.59780  0.50625  0.35850  Biso   1.000  O
  O11      1.0000 0.59780  0.99375  0.85850  Biso   1.000  O
  O12      1.0000 0.40220  0.49375  0.64150  Biso   1.000  O
  C1       1.0000 0.84930  0.64307  0.18468  Biso   1.000  C
  C2       1.0000 0.15070  0.14307  0.31532  Biso   1.000  C
  C3       1.0000 0.15070  0.35693  0.81532  Biso   1.000  C
  C4       1.0000 0.84930  0.85693  0.68468  Biso   1.000  C
  N17      1.0000 0.34630  0.94292  0.04165  Biso   1.000  N
  N18      1.0000 0.65370  0.44292  0.45835  Biso   1.000  N
  N19      1.0000 0.65370  0.05708  0.95835  Biso   1.000  N
  N20      1.0000 0.34630  0.55708  0.54165  Biso   1.000  N
  H1       1.0000 0.33360  0.94820  0.99690  Biso   1.000  H
  H2       1.0000 0.66640  0.44820  0.50310  Biso   1.000  H
  H3       1.0000 0.66640  0.05180  0.00310  Biso   1.000  H
  H4       1.0000 0.33360  0.55180  0.49690  Biso   1.000  H
  C5       1.0000 0.34100  0.87128  0.06765  Biso   1.000  C
  C6       1.0000 0.65900  0.37128  0.43235  Biso   1.000  C
  C7       1.0000 0.65900  0.12872  0.93235  Biso   1.000  C
  C8       1.0000 0.34100  0.62872  0.56765  Biso   1.000  C
  N21      1.0000 0.92877  0.44729  0.17876  Biso   1.000  N
  N22      1.0000 0.07123  0.94729  0.32124  Biso   1.000  N
  N23      1.0000 0.07123  0.55271  0.82124  Biso   1.000  N
  N24      1.0000 0.92877  0.05271  0.67876  Biso   1.000  N
  H5       1.0000 0.02010  0.45710  0.17040  Biso   1.000  H
  H6       1.0000 0.97990  0.95710  0.32960  Biso   1.000  H
  H7       1.0000 0.97990  0.54290  0.82960  Biso   1.000  H
  H8       1.0000 0.02010  0.04290  0.67040  Biso   1.000  H
  C9       1.0000 0.71770  0.65859  0.21302  Biso   1.000  C
  C10      1.0000 0.28230  0.15859  0.28698  Biso   1.000  C
  C11      1.0000 0.28230  0.34141  0.78698  Biso   1.000  C
  C12      1.0000 0.71770  0.84141  0.71302  Biso   1.000  C
  H9       1.0000 0.66220  0.61910  0.22970  Biso   1.000  H
  H10      1.0000 0.33780  0.11910  0.27030  Biso   1.000  H
  H11      1.0000 0.33780  0.38090  0.77030  Biso   1.000  H
  H12      1.0000 0.66220  0.88090  0.72970  Biso   1.000  H
  C13      1.0000 0.37190  0.14125  0.06310  Biso   1.000  C
  C14      1.0000 0.62810  0.64125  0.43690  Biso   1.000  C
  C15      1.0000 0.62810  0.85875  0.93690  Biso   1.000  C
  C16      1.0000 0.37190  0.35875  0.56310  Biso   1.000  C
  C17      1.0000 0.88790  0.37347  0.17989  Biso   1.000  C
  C18      1.0000 0.11210  0.87347  0.32011  Biso   1.000  C
  C19      1.0000 0.11210  0.62653  0.82011  Biso   1.000  C
  C20      1.0000 0.88790  0.12653  0.67989  Biso   1.000  C
  N25      1.0000 0.90708  0.57238  0.17817  Biso   1.000  N
  N26      1.0000 0.09292  0.07238  0.32183  Biso   1.000  N
  N27      1.0000 0.09292  0.42762  0.82183  Biso   1.000  N
  N28      1.0000 0.90708  0.92762  0.67817  Biso   1.000  N
  H13      1.0000 0.99720  0.56970  0.16540  Biso   1.000  H
  H14      1.0000 0.00280  0.06970  0.33460  Biso   1.000  H
  H15      1.0000 0.00280  0.43030  0.83460  Biso   1.000  H
  H16      1.0000 0.99720  0.93030  0.66540  Biso   1.000  H
  C21      1.0000 0.77010  0.34770  0.21422  Biso   1.000  C
  C22      1.0000 0.22990  0.84770  0.28578  Biso   1.000  C
  C23      1.0000 0.22990  0.65230  0.78578  Biso   1.000  C
  C24      1.0000 0.77010  0.15230  0.71422  Biso   1.000  C
  H17      1.0000 0.71880  0.38150  0.24060  Biso   1.000  H
  H18      1.0000 0.28120  0.88150  0.25940  Biso   1.000  H
  H19      1.0000 0.28120  0.61850  0.75940  Biso   1.000  H
  H20      1.0000 0.71880  0.11850  0.74060  Biso   1.000  H
  C25      1.0000 0.80330  0.22817  0.17767  Biso   1.000  C
  C26      1.0000 0.19670  0.72817  0.32233  Biso   1.000  C
  C27      1.0000 0.19670  0.77183  0.82233  Biso   1.000  C
  C28      1.0000 0.80330  0.27183  0.67767  Biso   1.000  C
  H21      1.0000 0.77190  0.17820  0.17540  Biso   1.000  H
  H22      1.0000 0.22810  0.67820  0.32460  Biso   1.000  H
  H23      1.0000 0.22810  0.82180  0.82460  Biso   1.000  H
  H24      1.0000 0.77190  0.32180  0.67540  Biso   1.000  H
  C29      1.0000 0.96980  0.32165  0.14643  Biso   1.000  C
  C30      1.0000 0.03020  0.82165  0.35357  Biso   1.000  C
  C31      1.0000 0.03020  0.67835  0.85357  Biso   1.000  C
  C32      1.0000 0.96980  0.17835  0.64643  Biso   1.000  C
  H25      1.0000 0.05360  0.33650  0.12420  Biso   1.000  H
  H26      1.0000 0.94640  0.83650  0.37580  Biso   1.000  H
  H27      1.0000 0.94640  0.66350  0.87580  Biso   1.000  H
  H28      1.0000 0.05360  0.16350  0.62420  Biso   1.000  H
  N29      1.0000 0.35020  0.06882  0.04050  Biso   1.000  N
  N30      1.0000 0.64980  0.56882  0.45950  Biso   1.000  N
  N31      1.0000 0.64980  0.93118  0.95950  Biso   1.000  N
  N32      1.0000 0.35020  0.43118  0.54050  Biso   1.000  N
  H29      1.0000 0.32150  0.06250  0.99690  Biso   1.000  H
  H30      1.0000 0.67850  0.56250  0.50310  Biso   1.000  H
  H31      1.0000 0.67850  0.93750  0.00310  Biso   1.000  H
  H32      1.0000 0.32150  0.43750  0.49690  Biso   1.000  H
  C33      1.0000 0.83870  0.50643  0.18953  Biso   1.000  C
  C34      1.0000 0.16130  0.00643  0.31047  Biso   1.000  C
  C35      1.0000 0.16130  0.49357  0.81047  Biso   1.000  C
  C36      1.0000 0.83870  0.99357  0.68953  Biso   1.000  C
  C37      1.0000 0.34120  0.19807  0.01637  Biso   1.000  C
  C38      1.0000 0.65880  0.69807  0.48363  Biso   1.000  C
  C39      1.0000 0.65880  0.80193  0.98363  Biso   1.000  C
  C40      1.0000 0.34120  0.30193  0.51637  Biso   1.000  C
  H33      1.0000 0.30400  0.18760  0.97070  Biso   1.000  H
  H34      1.0000 0.69600  0.68760  0.52930  Biso   1.000  H
  H35      1.0000 0.69600  0.81240  0.02930  Biso   1.000  H
  H36      1.0000 0.30400  0.31240  0.47070  Biso   1.000  H
  C41      1.0000 0.36980  0.00609  0.08021  Biso   1.000  C
  C42      1.0000 0.63020  0.50609  0.41979  Biso   1.000  C
  C43      1.0000 0.63020  0.99391  0.91979  Biso   1.000  C
  C44      1.0000 0.36980  0.49391  0.58021  Biso   1.000  C
  C45      1.0000 0.87830  0.77291  0.16753  Biso   1.000  C
  C46      1.0000 0.12170  0.27291  0.33247  Biso   1.000  C
  C47      1.0000 0.12170  0.22709  0.83247  Biso   1.000  C
  C48      1.0000 0.87830  0.72709  0.66753  Biso   1.000  C
  H37      1.0000 0.93300  0.81360  0.15250  Biso   1.000  H
  H38      1.0000 0.06700  0.31360  0.34750  Biso   1.000  H
  H39      1.0000 0.06700  0.18640  0.84750  Biso   1.000  H
  H40      1.0000 0.93300  0.68640  0.65250  Biso   1.000  H
  C49      1.0000 0.42490  0.15970  0.12958  Biso   1.000  C
  C50      1.0000 0.57510  0.65970  0.37042  Biso   1.000  C
  C51      1.0000 0.57510  0.84030  0.87042  Biso   1.000  C
  C52      1.0000 0.42490  0.34030  0.62958  Biso   1.000  C
  H41      1.0000 0.44470  0.12140  0.16210  Biso   1.000  H
  H42      1.0000 0.55530  0.62140  0.33790  Biso   1.000  H
  H43      1.0000 0.55530  0.87860  0.83790  Biso   1.000  H
  H44      1.0000 0.44470  0.37860  0.66210  Biso   1.000  H
  C53      1.0000 0.39960  0.85105  0.13290  Biso   1.000  C
  C54      1.0000 0.60040  0.35105  0.36710  Biso   1.000  C
  C55      1.0000 0.60040  0.14895  0.86710  Biso   1.000  C
  C56      1.0000 0.39960  0.64895  0.63290  Biso   1.000  C
  H45      1.0000 0.44720  0.88730  0.16190  Biso   1.000  H
  H46      1.0000 0.55280  0.38730  0.33810  Biso   1.000  H
  H47      1.0000 0.55280  0.11270  0.83810  Biso   1.000  H
  H48      1.0000 0.44720  0.61270  0.66190  Biso   1.000  H
  C57      1.0000 0.93070  0.70230  0.16202  Biso   1.000  C
  C58      1.0000 0.06930  0.20230  0.33798  Biso   1.000  C
  C59      1.0000 0.06930  0.29770  0.83798  Biso   1.000  C
  C60      1.0000 0.93070  0.79770  0.66202  Biso   1.000  C
  H49      1.0000 0.02160  0.69380  0.14290  Biso   1.000  H
  H50      1.0000 0.97840  0.19380  0.35710  Biso   1.000  H
  H51      1.0000 0.97840  0.30620  0.85710  Biso   1.000  H
  H52      1.0000 0.02160  0.80620  0.64290  Biso   1.000  H
  C61      1.0000 0.74540  0.78443  0.19517  Biso   1.000  C
  C62      1.0000 0.25460  0.28443  0.30483  Biso   1.000  C
  C63      1.0000 0.25460  0.21557  0.80483  Biso   1.000  C
  C64      1.0000 0.74540  0.71557  0.69517  Biso   1.000  C
  H53      1.0000 0.70910  0.83330  0.19840  Biso   1.000  H
  H54      1.0000 0.29090  0.33330  0.30160  Biso   1.000  H
  H55      1.0000 0.29090  0.16670  0.80160  Biso   1.000  H
  H56      1.0000 0.70910  0.66670  0.69840  Biso   1.000  H
  C65      1.0000 0.27480  0.81701  0.02482  Biso   1.000  C
  C66      1.0000 0.72520  0.31701  0.47518  Biso   1.000  C
  C67      1.0000 0.72520  0.18299  0.97518  Biso   1.000  C
  C68      1.0000 0.27480  0.68299  0.52482  Biso   1.000  C
  H57      1.0000 0.23570  0.82900  0.97970  Biso   1.000  H
  H58      1.0000 0.76430  0.32900  0.52030  Biso   1.000  H
  H59      1.0000 0.76430  0.17100  0.02030  Biso   1.000  H
  H60      1.0000 0.23570  0.67100  0.47970  Biso   1.000  H
  C69      1.0000 0.32500  0.72978  0.11475  Biso   1.000  C
  C70      1.0000 0.67500  0.22978  0.38525  Biso   1.000  C
  C71      1.0000 0.67500  0.27022  0.88525  Biso   1.000  C
  C72      1.0000 0.32500  0.77022  0.61475  Biso   1.000  C
  H61      1.0000 0.31800  0.68070  0.13120  Biso   1.000  H
  H62      1.0000 0.68200  0.18070  0.36880  Biso   1.000  H
  H63      1.0000 0.68200  0.31930  0.86880  Biso   1.000  H
  H64      1.0000 0.31800  0.81930  0.63120  Biso   1.000  H
  C73      1.0000 0.92720  0.24849  0.14609  Biso   1.000  C
  C74      1.0000 0.07280  0.74849  0.35391  Biso   1.000  C
  C75      1.0000 0.07280  0.75151  0.85391  Biso   1.000  C
  C76      1.0000 0.92720  0.25151  0.64609  Biso   1.000  C
  H65      1.0000 0.98270  0.21240  0.12430  Biso   1.000  H
  H66      1.0000 0.01730  0.71240  0.37570  Biso   1.000  H
  H67      1.0000 0.01730  0.78760  0.87570  Biso   1.000  H
  H68      1.0000 0.98270  0.28760  0.62430  Biso   1.000  H
  C77      1.0000 0.26730  0.74590  0.04905  Biso   1.000  C
  C78      1.0000 0.73270  0.24590  0.45095  Biso   1.000  C
  C79      1.0000 0.73270  0.25410  0.95095  Biso   1.000  C
  C80      1.0000 0.26730  0.75410  0.54905  Biso   1.000  C
  H69      1.0000 0.22270  0.70820  0.02080  Biso   1.000  H
  H70      1.0000 0.77730  0.20820  0.47920  Biso   1.000  H
  H71      1.0000 0.77730  0.29180  0.97920  Biso   1.000  H
  H72      1.0000 0.22270  0.79180  0.52080  Biso   1.000  H
  C81      1.0000 0.42130  0.28443  0.10408  Biso   1.000  C
  C82      1.0000 0.57870  0.78443  0.39592  Biso   1.000  C
  C83      1.0000 0.57870  0.71557  0.89592  Biso   1.000  C
  C84      1.0000 0.42130  0.21557  0.60408  Biso   1.000  C
  H73      1.0000 0.44000  0.33400  0.11790  Biso   1.000  H
  H74      1.0000 0.56000  0.83400  0.38210  Biso   1.000  H
  H75      1.0000 0.56000  0.66600  0.88210  Biso   1.000  H
  H76      1.0000 0.44000  0.16600  0.61790  Biso   1.000  H
  S1       1.0000 0.26023  0.51733  0.09159  Biso   1.000  S
  S2       1.0000 0.73977  0.01733  0.40841  Biso   1.000  S
  S3       1.0000 0.73977  0.48267  0.90841  Biso   1.000  S
  S4       1.0000 0.26023  0.98267  0.59159  Biso   1.000  S
  O13      1.0000 0.15317  0.57585  0.09550  Biso   1.000  O
  O14      1.0000 0.84683  0.07585  0.40450  Biso   1.000  O
  O15      1.0000 0.84683  0.42415  0.90450  Biso   1.000  O
  O16      1.0000 0.15317  0.92415  0.59550  Biso   1.000  O
  F1       1.0000 0.36354  0.45051  0.98799  Biso   1.000  F
  F2       1.0000 0.63646  0.95051  0.51201  Biso   1.000  F
  F3       1.0000 0.63646  0.54949  0.01201  Biso   1.000  F
  F4       1.0000 0.36354  0.04949  0.48799  Biso   1.000  F
  F5       1.0000 0.30990  0.56399  0.96965  Biso   1.000  F
  F6       1.0000 0.69010  0.06399  0.53035  Biso   1.000  F
  F7       1.0000 0.69010  0.43601  0.03035  Biso   1.000  F
  F8       1.0000 0.30990  0.93601  0.46965  Biso   1.000  F
  F9       1.0000 0.13800  0.48308  0.97174  Biso   1.000  F
  F10      1.0000 0.86200  0.98308  0.52826  Biso   1.000  F
  F11      1.0000 0.86200  0.51692  0.02826  Biso   1.000  F
  F12      1.0000 0.13800  0.01692  0.47174  Biso   1.000  F
  C85      1.0000 0.26860  0.50299  0.00001  Biso   1.000  C
  C86      1.0000 0.73140  0.00299  0.49999  Biso   1.000  C
  C87      1.0000 0.73140  0.49701  0.99999  Biso   1.000  C
  C88      1.0000 0.26860  0.99701  0.50001  Biso   1.000  C
  S5       1.0000 0.20394  0.50137  0.35963  Biso   1.000  S
  S6       1.0000 0.79606  0.00137  0.14037  Biso   1.000  S
  S7       1.0000 0.79606  0.49863  0.64037  Biso   1.000  S
  S8       1.0000 0.20394  0.99863  0.85963  Biso   1.000  S
  O17      1.0000 0.21560  0.50240  0.28689  Biso   1.000  O
  O18      1.0000 0.78440  0.00240  0.21311  Biso   1.000  O
  O19      1.0000 0.78440  0.49760  0.71311  Biso   1.000  O
  O20      1.0000 0.21560  0.99760  0.78689  Biso   1.000  O
  F13      1.0000 0.94753  0.56579  0.33759  Biso   1.000  F
  F14      1.0000 0.05247  0.06579  0.16241  Biso   1.000  F
  F15      1.0000 0.05247  0.43421  0.66241  Biso   1.000  F
  F16      1.0000 0.94753  0.93421  0.83759  Biso   1.000  F
  O21      1.0000 0.24730  0.43347  0.39407  Biso   1.000  O
  O22      1.0000 0.75270  0.93347  0.10593  Biso   1.000  O
  O23      1.0000 0.75270  0.56653  0.60593  Biso   1.000  O
  O24      1.0000 0.24730  0.06653  0.89407  Biso   1.000  O
  F17      1.0000 0.93723  0.44737  0.33971  Biso   1.000  F
  F18      1.0000 0.06277  0.94737  0.16029  Biso   1.000  F
  F19      1.0000 0.06277  0.55263  0.66029  Biso   1.000  F
  F20      1.0000 0.93723  0.05263  0.83971  Biso   1.000  F
  C89      1.0000 0.00610  0.50596  0.36769  Biso   1.000  C
  C90      1.0000 0.99390  0.00596  0.13231  Biso   1.000  C
  C91      1.0000 0.99390  0.49404  0.63231  Biso   1.000  C
  C92      1.0000 0.00610  0.99404  0.86769  Biso   1.000  C
  O25      1.0000 0.25870  0.56704  0.39513  Biso   1.000  O
  O26      1.0000 0.74130  0.06704  0.10487  Biso   1.000  O
  O27      1.0000 0.74130  0.43296  0.60487  Biso   1.000  O
  O28      1.0000 0.25870  0.93296  0.89513  Biso   1.000  O
  F21      1.0000 0.98040  0.50807  0.43328  Biso   1.000  F
  F22      1.0000 0.01960  0.00807  0.06672  Biso   1.000  F
  F23      1.0000 0.01960  0.49193  0.56672  Biso   1.000  F
  F24      1.0000 0.98040  0.99193  0.93328  Biso   1.000  F
  O29      1.0000 0.45410  0.40217  0.22390  Biso   1.000  O
  O30      1.0000 0.54590  0.90217  0.27610  Biso   1.000  O
  O31      1.0000 0.54590  0.59783  0.77610  Biso   1.000  O
  O32      1.0000 0.45410  0.09783  0.72390  Biso   1.000  O
  O33      1.0000 0.40822  0.53744  0.11596  Biso   1.000  O
  O34      1.0000 0.59178  0.03744  0.38404  Biso   1.000  O
  O35      1.0000 0.59178  0.46256  0.88404  Biso   1.000  O
  O36      1.0000 0.40822  0.96256  0.61596  Biso   1.000  O
  O37      1.0000 0.21168  0.44697  0.11609  Biso   1.000  O
  O38      1.0000 0.78832  0.94697  0.38391  Biso   1.000  O
  O39      1.0000 0.78832  0.55303  0.88391  Biso   1.000  O
  O40      1.0000 0.21168  0.05303  0.61609  Biso   1.000  O
  C93      1.0000 0.36590  0.26998  0.03747  Biso   1.000  C
  C94      1.0000 0.63410  0.76998  0.46253  Biso   1.000  C
  C95      1.0000 0.63410  0.73002  0.96253  Biso   1.000  C
  C96      1.0000 0.36590  0.23002  0.53747  Biso   1.000  C
  H77      1.0000 0.34480  0.30950  0.00630  Biso   1.000  H
  H78      1.0000 0.65520  0.80950  0.49370  Biso   1.000  H
  H79      1.0000 0.65520  0.69050  0.99370  Biso   1.000  H
  H80      1.0000 0.34480  0.19050  0.50630  Biso   1.000  H
  H81      1.0000 0.40900  0.59680  0.20110  Biso   1.000  H
  H82      1.0000 0.59100  0.09680  0.29890  Biso   1.000  H
  H83      1.0000 0.59100  0.40320  0.79890  Biso   1.000  H
  H84      1.0000 0.40900  0.90320  0.70110  Biso   1.000  H
  H85      1.0000 0.34700  0.59190  0.25480  Biso   1.000  H
  H86      1.0000 0.65300  0.09190  0.24520  Biso   1.000  H
  H87      1.0000 0.65300  0.40810  0.74520  Biso   1.000  H
  H88      1.0000 0.34700  0.90810  0.75480  Biso   1.000  H
  H89      1.0000 0.37800  0.41400  0.21300  Biso   1.000  H
  H90      1.0000 0.62200  0.91400  0.28700  Biso   1.000  H
  H91      1.0000 0.62200  0.58600  0.78700  Biso   1.000  H
  H92      1.0000 0.37800  0.08600  0.71300  Biso   1.000  H
  H93      1.0000 0.50300  0.43200  0.21390  Biso   1.000  H
  H94      1.0000 0.49700  0.93200  0.28610  Biso   1.000  H
  H95      1.0000 0.49700  0.56800  0.78610  Biso   1.000  H
  H96      1.0000 0.50300  0.06800  0.71390  Biso   1.000  H
