data_image0
_cell_length_a       6.722
_cell_length_b       26.649
_cell_length_c       17.515
_cell_angle_alpha    90
_cell_angle_beta     92.445
_cell_angle_gamma    90

_symmetry_space_group_name_H-M    "P 1"
_symmetry_int_tables_number       1

loop_
  _symmetry_equiv_pos_as_xyz
  'x, y, z'

loop_
  _atom_site_label
  _atom_site_occupancy
  _atom_site_fract_x
  _atom_site_fract_y
  _atom_site_fract_z
  _atom_site_thermal_displace_type
  _atom_site_B_iso_or_equiv
  _atom_site_type_symbol
  Cu1      1.0000 0.60822  0.82377  0.02279  Biso   1.000  Cu
  Cu2      1.0000 0.39178  0.32377  0.47721  Biso   1.000  Cu
  Cu3      1.0000 0.39178  0.17623  0.97721  Biso   1.000  Cu
  Cu4      1.0000 0.60822  0.67623  0.52279  Biso   1.000  Cu
  N1       1.0000 0.98270  0.67811  0.86770  Biso   1.000  N
  N2       1.0000 0.01730  0.17811  0.63230  Biso   1.000  N
  N3       1.0000 0.01730  0.32189  0.13230  Biso   1.000  N
  N4       1.0000 0.98270  0.82189  0.36770  Biso   1.000  N
  H1       1.0000 0.00350  0.64560  0.86380  Biso   1.000  H
  H2       1.0000 0.99650  0.14560  0.63620  Biso   1.000  H
  H3       1.0000 0.99650  0.35440  0.13620  Biso   1.000  H
  H4       1.0000 0.00350  0.85440  0.36380  Biso   1.000  H
  N5       1.0000 0.63710  0.75321  0.98116  Biso   1.000  N
  N6       1.0000 0.36290  0.25321  0.51884  Biso   1.000  N
  N7       1.0000 0.36290  0.24679  0.01884  Biso   1.000  N
  N8       1.0000 0.63710  0.74679  0.48116  Biso   1.000  N
  N9       1.0000 0.10170  0.80193  0.04059  Biso   1.000  N
  N10      1.0000 0.89830  0.30193  0.45941  Biso   1.000  N
  N11      1.0000 0.89830  0.19807  0.95941  Biso   1.000  N
  N12      1.0000 0.10170  0.69807  0.54059  Biso   1.000  N
  N13      1.0000 0.61150  0.85342  0.91553  Biso   1.000  N
  N14      1.0000 0.38850  0.35342  0.58447  Biso   1.000  N
  N15      1.0000 0.38850  0.14658  0.08447  Biso   1.000  N
  N16      1.0000 0.61150  0.64658  0.41553  Biso   1.000  N
  N17      1.0000 0.57540  0.70144  0.63128  Biso   1.000  N
  N18      1.0000 0.42460  0.20144  0.86872  Biso   1.000  N
  N19      1.0000 0.42460  0.29856  0.36872  Biso   1.000  N
  N20      1.0000 0.57540  0.79856  0.13128  Biso   1.000  N
  N21      1.0000 0.42180  0.10491  0.93714  Biso   1.000  N
  N22      1.0000 0.57820  0.60491  0.56286  Biso   1.000  N
  N23      1.0000 0.57820  0.89509  0.06286  Biso   1.000  N
  N24      1.0000 0.42180  0.39509  0.43714  Biso   1.000  N
  O1       1.0000 0.11870  0.75419  0.83850  Biso   1.000  O
  O2       1.0000 0.88130  0.25419  0.66150  Biso   1.000  O
  O3       1.0000 0.88130  0.24581  0.16150  Biso   1.000  O
  O4       1.0000 0.11870  0.74581  0.33850  Biso   1.000  O
  O5       1.0000 0.24670  0.81567  0.00314  Biso   1.000  O
  O6       1.0000 0.75330  0.31567  0.49686  Biso   1.000  O
  O7       1.0000 0.75330  0.18433  0.99686  Biso   1.000  O
  O8       1.0000 0.24670  0.68433  0.50314  Biso   1.000  O
  O9       1.0000 0.95760  0.83174  0.04666  Biso   1.000  O
  O10      1.0000 0.04240  0.33174  0.45334  Biso   1.000  O
  O11      1.0000 0.04240  0.16826  0.95334  Biso   1.000  O
  O12      1.0000 0.95760  0.66826  0.54666  Biso   1.000  O
  N25      1.0000 0.22900  0.68171  0.78394  Biso   1.000  N
  N26      1.0000 0.77100  0.18171  0.71606  Biso   1.000  N
  N27      1.0000 0.77100  0.31829  0.21606  Biso   1.000  N
  N28      1.0000 0.22900  0.81829  0.28394  Biso   1.000  N
  H5       1.0000 0.20560  0.64940  0.77900  Biso   1.000  H
  H6       1.0000 0.79440  0.14940  0.72100  Biso   1.000  H
  H7       1.0000 0.79440  0.35060  0.22100  Biso   1.000  H
  H8       1.0000 0.20560  0.85060  0.27900  Biso   1.000  H
  O13      1.0000 0.10100  0.76012  0.07151  Biso   1.000  O
  O14      1.0000 0.89900  0.26012  0.42849  Biso   1.000  O
  O15      1.0000 0.89900  0.23988  0.92849  Biso   1.000  O
  O16      1.0000 0.10100  0.73988  0.57151  Biso   1.000  O
  C1       1.0000 0.42550  0.68419  0.67290  Biso   1.000  C
  C2       1.0000 0.57450  0.18419  0.82710  Biso   1.000  C
  C3       1.0000 0.57450  0.31581  0.32710  Biso   1.000  C
  C4       1.0000 0.42550  0.81581  0.17290  Biso   1.000  C
  H9       1.0000 0.34350  0.65810  0.65220  Biso   1.000  H
  H10      1.0000 0.65650  0.15810  0.84780  Biso   1.000  H
  H11      1.0000 0.65650  0.34190  0.34780  Biso   1.000  H
  H12      1.0000 0.34350  0.84190  0.15220  Biso   1.000  H
  C5       1.0000 0.75720  0.91061  0.82790  Biso   1.000  C
  C6       1.0000 0.24280  0.41061  0.67210  Biso   1.000  C
  C7       1.0000 0.24280  0.08939  0.17210  Biso   1.000  C
  C8       1.0000 0.75720  0.58939  0.32790  Biso   1.000  C
  C9       1.0000 0.69500  0.73749  0.66130  Biso   1.000  C
  C10      1.0000 0.30500  0.23749  0.83870  Biso   1.000  C
  C11      1.0000 0.30500  0.26251  0.33870  Biso   1.000  C
  C12      1.0000 0.69500  0.76251  0.16130  Biso   1.000  C
  H13      1.0000 0.80040  0.75010  0.63240  Biso   1.000  H
  H14      1.0000 0.19960  0.25010  0.86760  Biso   1.000  H
  H15      1.0000 0.19960  0.24990  0.36760  Biso   1.000  H
  H16      1.0000 0.80040  0.74990  0.13240  Biso   1.000  H
  C13      1.0000 0.79430  0.74121  0.93840  Biso   1.000  C
  C14      1.0000 0.20570  0.24121  0.56160  Biso   1.000  C
  C15      1.0000 0.20570  0.25879  0.06160  Biso   1.000  C
  C16      1.0000 0.79430  0.75879  0.43840  Biso   1.000  C
  H17      1.0000 0.88730  0.76660  0.92660  Biso   1.000  H
  H18      1.0000 0.11270  0.26660  0.57340  Biso   1.000  H
  H19      1.0000 0.11270  0.23340  0.07340  Biso   1.000  H
  H20      1.0000 0.88730  0.73340  0.42660  Biso   1.000  H
  C17      1.0000 0.28610  0.03271  0.87360  Biso   1.000  C
  C18      1.0000 0.71390  0.53271  0.62640  Biso   1.000  C
  C19      1.0000 0.71390  0.96729  0.12640  Biso   1.000  C
  C20      1.0000 0.28610  0.46729  0.37360  Biso   1.000  C
  N29      1.0000 0.89820  0.94723  0.80939  Biso   1.000  N
  N30      1.0000 0.10180  0.44723  0.69061  Biso   1.000  N
  N31      1.0000 0.10180  0.05277  0.19061  Biso   1.000  N
  N32      1.0000 0.89820  0.55277  0.30939  Biso   1.000  N
  H21      1.0000 0.88830  0.96000  0.76310  Biso   1.000  H
  H22      1.0000 0.11170  0.46000  0.73690  Biso   1.000  H
  H23      1.0000 0.11170  0.04000  0.23690  Biso   1.000  H
  H24      1.0000 0.88830  0.54000  0.26310  Biso   1.000  H
  C21      1.0000 0.76170  0.88427  0.89720  Biso   1.000  C
  C22      1.0000 0.23830  0.38427  0.60280  Biso   1.000  C
  C23      1.0000 0.23830  0.11573  0.10280  Biso   1.000  C
  C24      1.0000 0.76170  0.61573  0.39720  Biso   1.000  C
  H25      1.0000 0.87280  0.88820  0.93200  Biso   1.000  H
  H26      1.0000 0.12720  0.38820  0.56800  Biso   1.000  H
  H27      1.0000 0.12720  0.11180  0.06800  Biso   1.000  H
  H28      1.0000 0.87280  0.61180  0.43200  Biso   1.000  H
  C25      1.0000 0.27320  0.08167  0.89750  Biso   1.000  C
  C26      1.0000 0.72680  0.58167  0.60250  Biso   1.000  C
  C27      1.0000 0.72680  0.91833  0.10250  Biso   1.000  C
  C28      1.0000 0.27320  0.41833  0.39750  Biso   1.000  C
  H29      1.0000 0.15440  0.09980  0.88540  Biso   1.000  H
  H30      1.0000 0.84560  0.59980  0.61460  Biso   1.000  H
  H31      1.0000 0.84560  0.90020  0.11460  Biso   1.000  H
  H32      1.0000 0.15440  0.40020  0.38540  Biso   1.000  H
  C29      1.0000 0.51180  0.73924  0.77580  Biso   1.000  C
  C30      1.0000 0.48820  0.23924  0.72420  Biso   1.000  C
  C31      1.0000 0.48820  0.26076  0.22420  Biso   1.000  C
  C32      1.0000 0.51180  0.76076  0.27580  Biso   1.000  C
  H33      1.0000 0.49110  0.75200  0.82540  Biso   1.000  H
  H34      1.0000 0.50890  0.25200  0.67460  Biso   1.000  H
  H35      1.0000 0.50890  0.24800  0.17460  Biso   1.000  H
  H36      1.0000 0.49110  0.74800  0.32540  Biso   1.000  H
  C33      1.0000 0.59130  0.07954  0.95390  Biso   1.000  C
  C34      1.0000 0.40870  0.57954  0.54610  Biso   1.000  C
  C35      1.0000 0.40870  0.92046  0.04610  Biso   1.000  C
  C36      1.0000 0.59130  0.42046  0.45390  Biso   1.000  C
  H37      1.0000 0.69630  0.09560  0.98250  Biso   1.000  H
  H38      1.0000 0.30370  0.59560  0.51750  Biso   1.000  H
  H39      1.0000 0.30370  0.90440  0.01750  Biso   1.000  H
  H40      1.0000 0.69630  0.40440  0.48250  Biso   1.000  H
  N33      1.0000 0.12430  0.00973  0.83252  Biso   1.000  N
  N34      1.0000 0.87570  0.50973  0.66748  Biso   1.000  N
  N35      1.0000 0.87570  0.99027  0.16748  Biso   1.000  N
  N36      1.0000 0.12430  0.49027  0.33252  Biso   1.000  N
  H41      1.0000 0.07180  0.02430  0.79130  Biso   1.000  H
  H42      1.0000 0.92820  0.52430  0.70870  Biso   1.000  H
  H43      1.0000 0.92820  0.97570  0.20870  Biso   1.000  H
  H44      1.0000 0.07180  0.47570  0.29130  Biso   1.000  H
  C37      1.0000 0.46300  0.00670  0.89000  Biso   1.000  C
  C38      1.0000 0.53700  0.50670  0.61000  Biso   1.000  C
  C39      1.0000 0.53700  0.99330  0.11000  Biso   1.000  C
  C40      1.0000 0.46300  0.49330  0.39000  Biso   1.000  C
  H45      1.0000 0.47810  0.97300  0.87370  Biso   1.000  H
  H46      1.0000 0.52190  0.47300  0.62630  Biso   1.000  H
  H47      1.0000 0.52190  0.02700  0.12630  Biso   1.000  H
  H48      1.0000 0.47810  0.52700  0.37370  Biso   1.000  H
  C41      1.0000 0.11050  0.70895  0.83030  Biso   1.000  C
  C42      1.0000 0.88950  0.20895  0.66970  Biso   1.000  C
  C43      1.0000 0.88950  0.29105  0.16970  Biso   1.000  C
  C44      1.0000 0.11050  0.79105  0.33030  Biso   1.000  C
  C45      1.0000 0.45840  0.84669  0.86550  Biso   1.000  C
  C46      1.0000 0.54160  0.34669  0.63450  Biso   1.000  C
  C47      1.0000 0.54160  0.15331  0.13450  Biso   1.000  C
  C48      1.0000 0.45840  0.65331  0.36550  Biso   1.000  C
  H49      1.0000 0.35200  0.82540  0.87890  Biso   1.000  H
  H50      1.0000 0.64800  0.32540  0.62110  Biso   1.000  H
  H51      1.0000 0.64800  0.17460  0.12110  Biso   1.000  H
  H52      1.0000 0.35200  0.67460  0.37890  Biso   1.000  H
  C49      1.0000 0.38650  0.70258  0.74350  Biso   1.000  C
  C50      1.0000 0.61350  0.20258  0.75650  Biso   1.000  C
  C51      1.0000 0.61350  0.29742  0.25650  Biso   1.000  C
  C52      1.0000 0.38650  0.79742  0.24350  Biso   1.000  C
  C53      1.0000 0.59960  0.90159  0.77570  Biso   1.000  C
  C54      1.0000 0.40040  0.40159  0.72430  Biso   1.000  C
  C55      1.0000 0.40040  0.09841  0.22430  Biso   1.000  C
  C56      1.0000 0.59960  0.59841  0.27570  Biso   1.000  C
  H53      1.0000 0.59640  0.91760  0.72710  Biso   1.000  H
  H54      1.0000 0.40360  0.41760  0.77290  Biso   1.000  H
  H55      1.0000 0.40360  0.08240  0.27290  Biso   1.000  H
  H56      1.0000 0.59640  0.58240  0.22710  Biso   1.000  H
  C57      1.0000 0.44980  0.86990  0.79400  Biso   1.000  C
  C58      1.0000 0.55020  0.36990  0.70600  Biso   1.000  C
  C59      1.0000 0.55020  0.13010  0.20600  Biso   1.000  C
  C60      1.0000 0.44980  0.63010  0.29400  Biso   1.000  C
  H57      1.0000 0.34140  0.86370  0.75870  Biso   1.000  H
  H58      1.0000 0.65860  0.36370  0.74130  Biso   1.000  H
  H59      1.0000 0.65860  0.13630  0.24130  Biso   1.000  H
  H60      1.0000 0.34140  0.63630  0.25870  Biso   1.000  H
  C61      1.0000 0.50630  0.71740  0.99690  Biso   1.000  C
  C62      1.0000 0.49370  0.21740  0.50310  Biso   1.000  C
  C63      1.0000 0.49370  0.28260  0.00310  Biso   1.000  C
  C64      1.0000 0.50630  0.78260  0.49690  Biso   1.000  C
  H61      1.0000 0.39630  0.72590  0.02670  Biso   1.000  H
  H62      1.0000 0.60370  0.22590  0.47330  Biso   1.000  H
  H63      1.0000 0.60370  0.27410  0.97330  Biso   1.000  H
  H64      1.0000 0.39630  0.77410  0.52670  Biso   1.000  H
  C65      1.0000 0.61540  0.03078  0.93030  Biso   1.000  C
  C66      1.0000 0.38460  0.53078  0.56970  Biso   1.000  C
  C67      1.0000 0.38460  0.96922  0.06970  Biso   1.000  C
  C68      1.0000 0.61540  0.46922  0.43030  Biso   1.000  C
  H65      1.0000 0.73710  0.01370  0.94170  Biso   1.000  H
  H66      1.0000 0.26290  0.51370  0.55830  Biso   1.000  H
  H67      1.0000 0.26290  0.98630  0.05830  Biso   1.000  H
  H68      1.0000 0.73710  0.48630  0.44170  Biso   1.000  H
  C69      1.0000 0.82270  0.69291  0.91140  Biso   1.000  C
  C70      1.0000 0.17730  0.19291  0.58860  Biso   1.000  C
  C71      1.0000 0.17730  0.30709  0.08860  Biso   1.000  C
  C72      1.0000 0.82270  0.80709  0.41140  Biso   1.000  C
  C73      1.0000 0.66710  0.75648  0.73360  Biso   1.000  C
  C74      1.0000 0.33290  0.25648  0.76640  Biso   1.000  C
  C75      1.0000 0.33290  0.24352  0.26640  Biso   1.000  C
  C76      1.0000 0.66710  0.74352  0.23360  Biso   1.000  C
  H69      1.0000 0.75490  0.78140  0.75430  Biso   1.000  H
  H70      1.0000 0.24510  0.28140  0.74570  Biso   1.000  H
  H71      1.0000 0.24510  0.21860  0.24570  Biso   1.000  H
  H72      1.0000 0.75490  0.71860  0.25430  Biso   1.000  H
  C77      1.0000 0.68360  0.65614  0.92890  Biso   1.000  C
  C78      1.0000 0.31640  0.15614  0.57110  Biso   1.000  C
  C79      1.0000 0.31640  0.34386  0.07110  Biso   1.000  C
  C80      1.0000 0.68360  0.84386  0.42890  Biso   1.000  C
  H73      1.0000 0.69900  0.62270  0.91120  Biso   1.000  H
  H74      1.0000 0.30100  0.12270  0.58880  Biso   1.000  H
  H75      1.0000 0.30100  0.37730  0.08880  Biso   1.000  H
  H76      1.0000 0.69900  0.87730  0.41120  Biso   1.000  H
  C81      1.0000 0.52400  0.66869  0.97190  Biso   1.000  C
  C82      1.0000 0.47600  0.16869  0.52810  Biso   1.000  C
  C83      1.0000 0.47600  0.33131  0.02810  Biso   1.000  C
  C84      1.0000 0.52400  0.83131  0.47190  Biso   1.000  C
  H77      1.0000 0.42780  0.64420  0.98400  Biso   1.000  H
  H78      1.0000 0.57220  0.14420  0.51600  Biso   1.000  H
  H79      1.0000 0.57220  0.35580  0.01600  Biso   1.000  H
  H80      1.0000 0.42780  0.85580  0.48400  Biso   1.000  H
  O17      1.0000 0.81150  0.00775  0.67480  Biso   1.000  O
  O18      1.0000 0.18850  0.50775  0.82520  Biso   1.000  O
  O19      1.0000 0.18850  0.99225  0.32520  Biso   1.000  O
  O20      1.0000 0.81150  0.49225  0.17480  Biso   1.000  O
  O21      1.0000 0.89280  0.07614  0.73500  Biso   1.000  O
  O22      1.0000 0.10720  0.57614  0.76500  Biso   1.000  O
  O23      1.0000 0.10720  0.92386  0.26500  Biso   1.000  O
  O24      1.0000 0.89280  0.42386  0.23500  Biso   1.000  O
  N37      1.0000 0.84650  0.05359  0.67400  Biso   1.000  N
  N38      1.0000 0.15350  0.55359  0.82600  Biso   1.000  N
  N39      1.0000 0.15350  0.94641  0.32600  Biso   1.000  N
  N40      1.0000 0.84650  0.44641  0.17400  Biso   1.000  N
  O25      1.0000 0.84280  0.07691  0.61300  Biso   1.000  O
  O26      1.0000 0.15720  0.57691  0.88700  Biso   1.000  O
  O27      1.0000 0.15720  0.92309  0.38700  Biso   1.000  O
  O28      1.0000 0.84280  0.42309  0.11300  Biso   1.000  O
  O29      1.0000 0.11050  0.94300  0.91421  Biso   1.000  O
  O30      1.0000 0.88950  0.44300  0.58579  Biso   1.000  O
  O31      1.0000 0.88950  0.05700  0.08579  Biso   1.000  O
  O32      1.0000 0.11050  0.55700  0.41421  Biso   1.000  O
  C85      1.0000 0.04870  0.96462  0.85680  Biso   1.000  C
  C86      1.0000 0.95130  0.46462  0.64320  Biso   1.000  C
  C87      1.0000 0.95130  0.03538  0.14320  Biso   1.000  C
  C88      1.0000 0.04870  0.53538  0.35680  Biso   1.000  C
