data_image0
_cell_length_a       8.7069
_cell_length_b       15.662
_cell_length_c       16.1
_cell_angle_alpha    90
_cell_angle_beta     90
_cell_angle_gamma    90

_symmetry_space_group_name_H-M    "P 1"
_symmetry_int_tables_number       1

loop_
  _symmetry_equiv_pos_as_xyz
  'x, y, z'

loop_
  _atom_site_label
  _atom_site_occupancy
  _atom_site_fract_x
  _atom_site_fract_y
  _atom_site_fract_z
  _atom_site_thermal_displace_type
  _atom_site_B_iso_or_equiv
  _atom_site_type_symbol
  W1       1.0000 0.79929  0.38335  0.72309  Biso   1.000  W
  W2       1.0000 0.29929  0.11665  0.27691  Biso   1.000  W
  W3       1.0000 0.20071  0.88335  0.77691  Biso   1.000  W
  W4       1.0000 0.70071  0.61665  0.22309  Biso   1.000  W
  Cu1      1.0000 0.84790  0.33520  0.56770  Biso   1.000  Cu
  Cu2      1.0000 0.34790  0.16480  0.43230  Biso   1.000  Cu
  Cu3      1.0000 0.15210  0.83520  0.93230  Biso   1.000  Cu
  Cu4      1.0000 0.65210  0.66480  0.06770  Biso   1.000  Cu
  Cu5      1.0000 0.56740  0.26450  0.70550  Biso   1.000  Cu
  Cu6      1.0000 0.06740  0.23550  0.29450  Biso   1.000  Cu
  Cu7      1.0000 0.43260  0.76450  0.79450  Biso   1.000  Cu
  Cu8      1.0000 0.93260  0.73550  0.20550  Biso   1.000  Cu
  Cu9      1.0000 0.60090  0.49600  0.64870  Biso   1.000  Cu
  Cu10     1.0000 0.10090  0.00400  0.35130  Biso   1.000  Cu
  Cu11     1.0000 0.39910  0.99600  0.85130  Biso   1.000  Cu
  Cu12     1.0000 0.89910  0.50400  0.14870  Biso   1.000  Cu
  S1       1.0000 0.82180  0.24770  0.67410  Biso   1.000  S
  S2       1.0000 0.32180  0.25230  0.32590  Biso   1.000  S
  S3       1.0000 0.17820  0.74770  0.82590  Biso   1.000  S
  S4       1.0000 0.67820  0.75230  0.17410  Biso   1.000  S
  S5       1.0000 0.54790  0.40150  0.75320  Biso   1.000  S
  S6       1.0000 0.04790  0.09850  0.24680  Biso   1.000  S
  S7       1.0000 0.45210  0.90150  0.74680  Biso   1.000  S
  S8       1.0000 0.95210  0.59850  0.25320  Biso   1.000  S
  S9       1.0000 0.84720  0.46940  0.61100  Biso   1.000  S
  S10      1.0000 0.34720  0.03060  0.38900  Biso   1.000  S
  S11      1.0000 0.15280  0.96940  0.88900  Biso   1.000  S
  S12      1.0000 0.65280  0.53060  0.11100  Biso   1.000  S
  N1       1.0000 0.95290  0.26520  0.40290  Biso   1.000  N
  N2       1.0000 0.45290  0.23480  0.59710  Biso   1.000  N
  N3       1.0000 0.04710  0.76520  0.09710  Biso   1.000  N
  N4       1.0000 0.54710  0.73480  0.90290  Biso   1.000  N
  N5       1.0000 0.43610  0.11700  0.81020  Biso   1.000  N
  N6       1.0000 0.93610  0.38300  0.18980  Biso   1.000  N
  N7       1.0000 0.56390  0.61700  0.68980  Biso   1.000  N
  N8       1.0000 0.06390  0.88300  0.31020  Biso   1.000  N
  N9       1.0000 0.43700  0.49820  0.55690  Biso   1.000  N
  N10      1.0000 0.93700  0.00180  0.44310  Biso   1.000  N
  N11      1.0000 0.56300  0.99820  0.94310  Biso   1.000  N
  N12      1.0000 0.06300  0.50180  0.05690  Biso   1.000  N
  N13      1.0000 0.90730  0.29390  0.46210  Biso   1.000  N
  N14      1.0000 0.40730  0.20610  0.53790  Biso   1.000  N
  N15      1.0000 0.09270  0.79390  0.03790  Biso   1.000  N
  N16      1.0000 0.59270  0.70610  0.96210  Biso   1.000  N
  N17      1.0000 0.48780  0.17660  0.78020  Biso   1.000  N
  N18      1.0000 0.98780  0.32340  0.21980  Biso   1.000  N
  N19      1.0000 0.51220  0.67660  0.71980  Biso   1.000  N
  N20      1.0000 0.01220  0.82340  0.28020  Biso   1.000  N
  C1       1.0000 0.37400  0.42900  0.52800  Biso   1.000  C
  C2       1.0000 0.87400  0.07100  0.47200  Biso   1.000  C
  C3       1.0000 0.62600  0.92900  0.97200  Biso   1.000  C
  C4       1.0000 0.12600  0.57100  0.02800  Biso   1.000  C
  C5       1.0000 0.25100  0.42600  0.47200  Biso   1.000  C
  C6       1.0000 0.75100  0.07400  0.52800  Biso   1.000  C
  C7       1.0000 0.74900  0.92600  0.02800  Biso   1.000  C
  C8       1.0000 0.24900  0.57400  0.97200  Biso   1.000  C
  C9       1.0000 0.19600  0.50400  0.44200  Biso   1.000  C
  C10      1.0000 0.69600  0.99600  0.55800  Biso   1.000  C
  C11      1.0000 0.80400  0.00400  0.05800  Biso   1.000  C
  C12      1.0000 0.30400  0.49600  0.94200  Biso   1.000  C
  C13      1.0000 0.26800  0.57800  0.46600  Biso   1.000  C
  C14      1.0000 0.76800  0.92200  0.53400  Biso   1.000  C
  C15      1.0000 0.73200  0.07800  0.03400  Biso   1.000  C
  C16      1.0000 0.23200  0.42200  0.96600  Biso   1.000  C
  C17      1.0000 0.38000  0.57500  0.52600  Biso   1.000  C
  C18      1.0000 0.88000  0.92500  0.47400  Biso   1.000  C
  C19      1.0000 0.62000  0.07500  0.97400  Biso   1.000  C
  C20      1.0000 0.12000  0.42500  0.02600  Biso   1.000  C
  C21      1.0000 0.82800  0.39500  0.87100  Biso   1.000  C
  C22      1.0000 0.32800  0.10500  0.12900  Biso   1.000  C
  C23      1.0000 0.17200  0.89500  0.62900  Biso   1.000  C
  C24      1.0000 0.67200  0.60500  0.37100  Biso   1.000  C
  C25      1.0000 0.92300  0.33000  0.84200  Biso   1.000  C
  C26      1.0000 0.42300  0.17000  0.15800  Biso   1.000  C
  C27      1.0000 0.07700  0.83000  0.65800  Biso   1.000  C
  C28      1.0000 0.57700  0.67000  0.34200  Biso   1.000  C
  C29      1.0000 0.04100  0.36290  0.78850  Biso   1.000  C
  C30      1.0000 0.54100  0.13710  0.21150  Biso   1.000  C
  C31      1.0000 0.95900  0.86290  0.71150  Biso   1.000  C
  C32      1.0000 0.45900  0.63710  0.28850  Biso   1.000  C
  C33      1.0000 0.02400  0.44900  0.78100  Biso   1.000  C
  C34      1.0000 0.52400  0.05100  0.21900  Biso   1.000  C
  C35      1.0000 0.97600  0.94900  0.71900  Biso   1.000  C
  C36      1.0000 0.47600  0.55100  0.28100  Biso   1.000  C
  C37      1.0000 0.89000  0.47480  0.83110  Biso   1.000  C
  C38      1.0000 0.39000  0.02520  0.16890  Biso   1.000  C
  C39      1.0000 0.11000  0.97480  0.66890  Biso   1.000  C
  C40      1.0000 0.61000  0.52520  0.33110  Biso   1.000  C
  C41      1.0000 0.83100  0.56100  0.84800  Biso   1.000  C
  C42      1.0000 0.33100  0.93900  0.15200  Biso   1.000  C
  C43      1.0000 0.16900  0.06100  0.65200  Biso   1.000  C
  C44      1.0000 0.66900  0.43900  0.34800  Biso   1.000  C
  C45      1.0000 0.12800  0.51300  0.73100  Biso   1.000  C
  C46      1.0000 0.62800  0.98700  0.26900  Biso   1.000  C
  C47      1.0000 0.87200  0.01300  0.76900  Biso   1.000  C
  C48      1.0000 0.37200  0.48700  0.23100  Biso   1.000  C
  C49      1.0000 0.16400  0.31400  0.74900  Biso   1.000  C
  C50      1.0000 0.66400  0.18600  0.25100  Biso   1.000  C
  C51      1.0000 0.83600  0.81400  0.75100  Biso   1.000  C
  C52      1.0000 0.33600  0.68600  0.24900  Biso   1.000  C
  C53      1.0000 0.92500  0.24100  0.87600  Biso   1.000  C
  C54      1.0000 0.42500  0.25900  0.12400  Biso   1.000  C
  C55      1.0000 0.07500  0.74100  0.62400  Biso   1.000  C
  C56      1.0000 0.57500  0.75900  0.37600  Biso   1.000  C
  C57      1.0000 0.71300  0.39100  0.93600  Biso   1.000  C
  C58      1.0000 0.21300  0.10900  0.06400  Biso   1.000  C
  C59      1.0000 0.28700  0.89100  0.56400  Biso   1.000  C
  C60      1.0000 0.78700  0.60900  0.43600  Biso   1.000  C
  H1       1.0000 0.41410  0.37540  0.54620  Biso   1.000  H
  H2       1.0000 0.91410  0.12460  0.45380  Biso   1.000  H
  H3       1.0000 0.58590  0.87540  0.95380  Biso   1.000  H
  H4       1.0000 0.08590  0.62460  0.04620  Biso   1.000  H
  H5       1.0000 0.20520  0.37400  0.45560  Biso   1.000  H
  H6       1.0000 0.70520  0.12600  0.54440  Biso   1.000  H
  H7       1.0000 0.79480  0.87400  0.04440  Biso   1.000  H
  H8       1.0000 0.29480  0.62600  0.95560  Biso   1.000  H
  H9       1.0000 0.11360  0.50530  0.40280  Biso   1.000  H
  H10      1.0000 0.61360  0.99470  0.59720  Biso   1.000  H
  H11      1.0000 0.88640  0.00530  0.09720  Biso   1.000  H
  H12      1.0000 0.38640  0.49470  0.90280  Biso   1.000  H
  H13      1.0000 0.23670  0.63160  0.44400  Biso   1.000  H
  H14      1.0000 0.73670  0.86840  0.55600  Biso   1.000  H
  H15      1.0000 0.76330  0.13160  0.05600  Biso   1.000  H
  H16      1.0000 0.26330  0.36840  0.94400  Biso   1.000  H
  H17      1.0000 0.42310  0.62690  0.54620  Biso   1.000  H
  H18      1.0000 0.92310  0.87310  0.45380  Biso   1.000  H
  H19      1.0000 0.57690  0.12690  0.95380  Biso   1.000  H
  H20      1.0000 0.07690  0.37310  0.04620  Biso   1.000  H
  H21      1.0000 0.89050  0.60090  0.81660  Biso   1.000  H
  H22      1.0000 0.39050  0.89910  0.18340  Biso   1.000  H
  H23      1.0000 0.10950  0.10090  0.68340  Biso   1.000  H
  H24      1.0000 0.60950  0.39910  0.31660  Biso   1.000  H
  H25      1.0000 0.83850  0.57420  0.90510  Biso   1.000  H
  H26      1.0000 0.33850  0.92580  0.09490  Biso   1.000  H
  H27      1.0000 0.16150  0.07420  0.59490  Biso   1.000  H
  H28      1.0000 0.66150  0.42580  0.40510  Biso   1.000  H
  H29      1.0000 0.72670  0.56470  0.83060  Biso   1.000  H
  H30      1.0000 0.22670  0.93530  0.16940  Biso   1.000  H
  H31      1.0000 0.27330  0.06470  0.66940  Biso   1.000  H
  H32      1.0000 0.77330  0.43530  0.33060  Biso   1.000  H
  H33      1.0000 0.20660  0.48190  0.70330  Biso   1.000  H
  H34      1.0000 0.70660  0.01810  0.29670  Biso   1.000  H
  H35      1.0000 0.79340  0.98190  0.79670  Biso   1.000  H
  H36      1.0000 0.29340  0.51810  0.20330  Biso   1.000  H
  H37      1.0000 0.17350  0.55400  0.76690  Biso   1.000  H
  H38      1.0000 0.67350  0.94600  0.23310  Biso   1.000  H
  H39      1.0000 0.82650  0.05400  0.73310  Biso   1.000  H
  H40      1.0000 0.32650  0.44600  0.26690  Biso   1.000  H
  H41      1.0000 0.06730  0.54220  0.69040  Biso   1.000  H
  H42      1.0000 0.56730  0.95780  0.30960  Biso   1.000  H
  H43      1.0000 0.93270  0.04220  0.80960  Biso   1.000  H
  H44      1.0000 0.43270  0.45780  0.19040  Biso   1.000  H
  H45      1.0000 0.15640  0.25540  0.76440  Biso   1.000  H
  H46      1.0000 0.65640  0.24460  0.23560  Biso   1.000  H
  H47      1.0000 0.84360  0.75540  0.73560  Biso   1.000  H
  H48      1.0000 0.34360  0.74460  0.26440  Biso   1.000  H
  H49      1.0000 0.26050  0.33570  0.76770  Biso   1.000  H
  H50      1.0000 0.76050  0.16430  0.23230  Biso   1.000  H
  H51      1.0000 0.73950  0.83570  0.73230  Biso   1.000  H
  H52      1.0000 0.23950  0.66430  0.26770  Biso   1.000  H
  H53      1.0000 0.15750  0.31920  0.69080  Biso   1.000  H
  H54      1.0000 0.65750  0.18080  0.30920  Biso   1.000  H
  H55      1.0000 0.84250  0.81920  0.80920  Biso   1.000  H
  H56      1.0000 0.34250  0.68080  0.19080  Biso   1.000  H
  H57      1.0000 0.84160  0.23500  0.91410  Biso   1.000  H
  H58      1.0000 0.34160  0.26500  0.08590  Biso   1.000  H
  H59      1.0000 0.15840  0.73500  0.58590  Biso   1.000  H
  H60      1.0000 0.65840  0.76500  0.41410  Biso   1.000  H
  H61      1.0000 0.01860  0.22880  0.90450  Biso   1.000  H
  H62      1.0000 0.51860  0.27120  0.09550  Biso   1.000  H
  H63      1.0000 0.98140  0.72880  0.59550  Biso   1.000  H
  H64      1.0000 0.48140  0.77120  0.40450  Biso   1.000  H
  H65      1.0000 0.91230  0.20170  0.83180  Biso   1.000  H
  H66      1.0000 0.41230  0.29830  0.16820  Biso   1.000  H
  H67      1.0000 0.08770  0.70170  0.66820  Biso   1.000  H
  H68      1.0000 0.58770  0.79830  0.33180  Biso   1.000  H
  H69      1.0000 0.67500  0.44750  0.94580  Biso   1.000  H
  H70      1.0000 0.17500  0.05250  0.05420  Biso   1.000  H
  H71      1.0000 0.32500  0.94750  0.55420  Biso   1.000  H
  H72      1.0000 0.82500  0.55250  0.44580  Biso   1.000  H
  H73      1.0000 0.75710  0.36960  0.98550  Biso   1.000  H
  H74      1.0000 0.25710  0.13040  0.01450  Biso   1.000  H
  H75      1.0000 0.24290  0.86960  0.51450  Biso   1.000  H
  H76      1.0000 0.74290  0.63040  0.48550  Biso   1.000  H
  H77      1.0000 0.63080  0.35560  0.91900  Biso   1.000  H
  H78      1.0000 0.13080  0.14440  0.08100  Biso   1.000  H
  H79      1.0000 0.36920  0.85560  0.58100  Biso   1.000  H
  H80      1.0000 0.86920  0.64440  0.41900  Biso   1.000  H
