data_image0
_cell_length_a       19.529
_cell_length_b       14.994
_cell_length_c       22.238
_cell_angle_alpha    90
_cell_angle_beta     90
_cell_angle_gamma    90

_symmetry_space_group_name_H-M    "P 1"
_symmetry_int_tables_number       1

loop_
  _symmetry_equiv_pos_as_xyz
  'x, y, z'

loop_
  _atom_site_label
  _atom_site_occupancy
  _atom_site_fract_x
  _atom_site_fract_y
  _atom_site_fract_z
  _atom_site_thermal_displace_type
  _atom_site_B_iso_or_equiv
  _atom_site_type_symbol
  W1       1.0000 0.63966  0.52385  0.61639  Biso   1.000  W
  W2       1.0000 0.13966  0.97615  0.38361  Biso   1.000  W
  W3       1.0000 0.36034  0.52385  0.88361  Biso   1.000  W
  W4       1.0000 0.86034  0.97615  0.11639  Biso   1.000  W
  W5       1.0000 0.36034  0.47615  0.38361  Biso   1.000  W
  W6       1.0000 0.86034  0.02385  0.61639  Biso   1.000  W
  W7       1.0000 0.63966  0.47615  0.11639  Biso   1.000  W
  W8       1.0000 0.13966  0.02385  0.88361  Biso   1.000  W
  Br1      1.0000 0.70800  0.52110  0.40450  Biso   1.000  Br
  Br2      1.0000 0.20800  0.97890  0.59550  Biso   1.000  Br
  Br3      1.0000 0.29200  0.52110  0.09550  Biso   1.000  Br
  Br4      1.0000 0.79200  0.97890  0.90450  Biso   1.000  Br
  Br5      1.0000 0.29200  0.47890  0.59550  Biso   1.000  Br
  Br6      1.0000 0.79200  0.02110  0.40450  Biso   1.000  Br
  Br7      1.0000 0.70800  0.47890  0.90450  Biso   1.000  Br
  Br8      1.0000 0.20800  0.02110  0.09550  Biso   1.000  Br
  Br9      1.0000 0.74470  0.77480  0.67850  Biso   1.000  Br
  Br10     1.0000 0.24470  0.72520  0.32150  Biso   1.000  Br
  Br11     1.0000 0.25530  0.77480  0.82150  Biso   1.000  Br
  Br12     1.0000 0.75530  0.72520  0.17850  Biso   1.000  Br
  Br13     1.0000 0.25530  0.22520  0.32150  Biso   1.000  Br
  Br14     1.0000 0.75530  0.27480  0.67850  Biso   1.000  Br
  Br15     1.0000 0.74470  0.22520  0.17850  Biso   1.000  Br
  Br16     1.0000 0.24470  0.27480  0.82150  Biso   1.000  Br
  Cu1      1.0000 0.67280  0.52090  0.50170  Biso   1.000  Cu
  Cu2      1.0000 0.17280  0.97910  0.49830  Biso   1.000  Cu
  Cu3      1.0000 0.32720  0.52090  0.99830  Biso   1.000  Cu
  Cu4      1.0000 0.82720  0.97910  0.00170  Biso   1.000  Cu
  Cu5      1.0000 0.32720  0.47910  0.49830  Biso   1.000  Cu
  Cu6      1.0000 0.82720  0.02090  0.50170  Biso   1.000  Cu
  Cu7      1.0000 0.67280  0.47910  0.00170  Biso   1.000  Cu
  Cu8      1.0000 0.17280  0.02090  0.99830  Biso   1.000  Cu
  Cu9      1.0000 0.74340  0.64160  0.61190  Biso   1.000  Cu
  Cu10     1.0000 0.24340  0.85840  0.38810  Biso   1.000  Cu
  Cu11     1.0000 0.25660  0.64160  0.88810  Biso   1.000  Cu
  Cu12     1.0000 0.75660  0.85840  0.11190  Biso   1.000  Cu
  Cu13     1.0000 0.25660  0.35840  0.38810  Biso   1.000  Cu
  Cu14     1.0000 0.75660  0.14160  0.61190  Biso   1.000  Cu
  Cu15     1.0000 0.74340  0.35840  0.11190  Biso   1.000  Cu
  Cu16     1.0000 0.24340  0.14160  0.88810  Biso   1.000  Cu
  Cu17     1.0000 0.74650  0.40950  0.61040  Biso   1.000  Cu
  Cu18     1.0000 0.24650  0.09050  0.38960  Biso   1.000  Cu
  Cu19     1.0000 0.25350  0.40950  0.88960  Biso   1.000  Cu
  Cu20     1.0000 0.75350  0.09050  0.11040  Biso   1.000  Cu
  Cu21     1.0000 0.25350  0.59050  0.38960  Biso   1.000  Cu
  Cu22     1.0000 0.75350  0.90950  0.61040  Biso   1.000  Cu
  Cu23     1.0000 0.74650  0.59050  0.11040  Biso   1.000  Cu
  Cu24     1.0000 0.24650  0.90950  0.88960  Biso   1.000  Cu
  S1       1.0000 0.64960  0.64440  0.55380  Biso   1.000  S
  S2       1.0000 0.14960  0.85560  0.44620  Biso   1.000  S
  S3       1.0000 0.35040  0.64440  0.94620  Biso   1.000  S
  S4       1.0000 0.85040  0.85560  0.05380  Biso   1.000  S
  S5       1.0000 0.35040  0.35560  0.44620  Biso   1.000  S
  S6       1.0000 0.85040  0.14440  0.55380  Biso   1.000  S
  S7       1.0000 0.64960  0.35560  0.05380  Biso   1.000  S
  S8       1.0000 0.14960  0.14440  0.94620  Biso   1.000  S
  S9       1.0000 0.73560  0.52430  0.67450  Biso   1.000  S
  S10      1.0000 0.23560  0.97570  0.32550  Biso   1.000  S
  S11      1.0000 0.26440  0.52430  0.82550  Biso   1.000  S
  S12      1.0000 0.76440  0.97570  0.17450  Biso   1.000  S
  S13      1.0000 0.26440  0.47570  0.32550  Biso   1.000  S
  S14      1.0000 0.76440  0.02430  0.67450  Biso   1.000  S
  S15      1.0000 0.73560  0.47570  0.17450  Biso   1.000  S
  S16      1.0000 0.23560  0.02430  0.82550  Biso   1.000  S
  S17      1.0000 0.64980  0.40030  0.55570  Biso   1.000  S
  S18      1.0000 0.14980  0.09970  0.44430  Biso   1.000  S
  S19      1.0000 0.35020  0.40030  0.94430  Biso   1.000  S
  S20      1.0000 0.85020  0.09970  0.05570  Biso   1.000  S
  S21      1.0000 0.35020  0.59970  0.44430  Biso   1.000  S
  S22      1.0000 0.85020  0.90030  0.55570  Biso   1.000  S
  S23      1.0000 0.64980  0.59970  0.05570  Biso   1.000  S
  S24      1.0000 0.14980  0.90030  0.94430  Biso   1.000  S
  N1       1.0000 0.83720  0.64900  0.57300  Biso   1.000  N
  N2       1.0000 0.33720  0.85100  0.42700  Biso   1.000  N
  N3       1.0000 0.16280  0.64900  0.92700  Biso   1.000  N
  N4       1.0000 0.66280  0.85100  0.07300  Biso   1.000  N
  N5       1.0000 0.16280  0.35100  0.42700  Biso   1.000  N
  N6       1.0000 0.66280  0.14900  0.57300  Biso   1.000  N
  N7       1.0000 0.83720  0.35100  0.07300  Biso   1.000  N
  N8       1.0000 0.33720  0.14900  0.92700  Biso   1.000  N
  N9       1.0000 0.16240  0.59900  0.43080  Biso   1.000  N
  N10      1.0000 0.66240  0.90100  0.56920  Biso   1.000  N
  N11      1.0000 0.83760  0.59900  0.06920  Biso   1.000  N
  N12      1.0000 0.33760  0.90100  0.93080  Biso   1.000  N
  N13      1.0000 0.83760  0.40100  0.56920  Biso   1.000  N
  N14      1.0000 0.33760  0.09900  0.43080  Biso   1.000  N
  N15      1.0000 0.16240  0.40100  0.93080  Biso   1.000  N
  N16      1.0000 0.66240  0.09900  0.06920  Biso   1.000  N
  C1       1.0000 0.57100  0.46600  0.69400  Biso   1.000  C
  C2       1.0000 0.07100  0.03400  0.30600  Biso   1.000  C
  C3       1.0000 0.42900  0.46600  0.80600  Biso   1.000  C
  C4       1.0000 0.92900  0.03400  0.19400  Biso   1.000  C
  C5       1.0000 0.42900  0.53400  0.30600  Biso   1.000  C
  C6       1.0000 0.92900  0.96600  0.69400  Biso   1.000  C
  C7       1.0000 0.57100  0.53400  0.19400  Biso   1.000  C
  C8       1.0000 0.07100  0.96600  0.80600  Biso   1.000  C
  C9       1.0000 0.52900  0.46800  0.64100  Biso   1.000  C
  C10      1.0000 0.02900  0.03200  0.35900  Biso   1.000  C
  C11      1.0000 0.47100  0.46800  0.85900  Biso   1.000  C
  C12      1.0000 0.97100  0.03200  0.14100  Biso   1.000  C
  C13      1.0000 0.47100  0.53200  0.35900  Biso   1.000  C
  C14      1.0000 0.97100  0.96800  0.64100  Biso   1.000  C
  C15      1.0000 0.52900  0.53200  0.14100  Biso   1.000  C
  C16      1.0000 0.02900  0.96800  0.85900  Biso   1.000  C
  C17      1.0000 0.52100  0.55200  0.62500  Biso   1.000  C
  C18      1.0000 0.02100  0.94800  0.37500  Biso   1.000  C
  C19      1.0000 0.47900  0.55200  0.87500  Biso   1.000  C
  C20      1.0000 0.97900  0.94800  0.12500  Biso   1.000  C
  C21      1.0000 0.47900  0.44800  0.37500  Biso   1.000  C
  C22      1.0000 0.97900  0.05200  0.62500  Biso   1.000  C
  C23      1.0000 0.52100  0.44800  0.12500  Biso   1.000  C
  C24      1.0000 0.02100  0.05200  0.87500  Biso   1.000  C
  C25      1.0000 0.55400  0.60400  0.66900  Biso   1.000  C
  C26      1.0000 0.05400  0.89600  0.33100  Biso   1.000  C
  C27      1.0000 0.44600  0.60400  0.83100  Biso   1.000  C
  C28      1.0000 0.94600  0.89600  0.16900  Biso   1.000  C
  C29      1.0000 0.44600  0.39600  0.33100  Biso   1.000  C
  C30      1.0000 0.94600  0.10400  0.66900  Biso   1.000  C
  C31      1.0000 0.55400  0.39600  0.16900  Biso   1.000  C
  C32      1.0000 0.05400  0.10400  0.83100  Biso   1.000  C
  C33      1.0000 0.58000  0.54100  0.70800  Biso   1.000  C
  C34      1.0000 0.08000  0.95900  0.29200  Biso   1.000  C
  C35      1.0000 0.42000  0.54100  0.79200  Biso   1.000  C
  C36      1.0000 0.92000  0.95900  0.20800  Biso   1.000  C
  C37      1.0000 0.42000  0.45900  0.29200  Biso   1.000  C
  C38      1.0000 0.92000  0.04100  0.70800  Biso   1.000  C
  C39      1.0000 0.58000  0.45900  0.20800  Biso   1.000  C
  C40      1.0000 0.08000  0.04100  0.79200  Biso   1.000  C
  C41      1.0000 0.59200  0.38500  0.72700  Biso   1.000  C
  C42      1.0000 0.09200  0.11500  0.27300  Biso   1.000  C
  C43      1.0000 0.40800  0.38500  0.77300  Biso   1.000  C
  C44      1.0000 0.90800  0.11500  0.22700  Biso   1.000  C
  C45      1.0000 0.40800  0.61500  0.27300  Biso   1.000  C
  C46      1.0000 0.90800  0.88500  0.72700  Biso   1.000  C
  C47      1.0000 0.59200  0.61500  0.22700  Biso   1.000  C
  C48      1.0000 0.09200  0.88500  0.77300  Biso   1.000  C
  C49      1.0000 0.49700  0.39900  0.60800  Biso   1.000  C
  C50      1.0000 0.99700  0.10100  0.39200  Biso   1.000  C
  C51      1.0000 0.50300  0.39900  0.89200  Biso   1.000  C
  C52      1.0000 0.00300  0.10100  0.10800  Biso   1.000  C
  C53      1.0000 0.50300  0.60100  0.39200  Biso   1.000  C
  C54      1.0000 0.00300  0.89900  0.60800  Biso   1.000  C
  C55      1.0000 0.49700  0.60100  0.10800  Biso   1.000  C
  C56      1.0000 0.99700  0.89900  0.89200  Biso   1.000  C
  C57      1.0000 0.47600  0.58800  0.57500  Biso   1.000  C
  C58      1.0000 0.97600  0.91200  0.42500  Biso   1.000  C
  C59      1.0000 0.52400  0.58800  0.92500  Biso   1.000  C
  C60      1.0000 0.02400  0.91200  0.07500  Biso   1.000  C
  C61      1.0000 0.52400  0.41200  0.42500  Biso   1.000  C
  C62      1.0000 0.02400  0.08800  0.57500  Biso   1.000  C
  C63      1.0000 0.47600  0.41200  0.07500  Biso   1.000  C
  C64      1.0000 0.97600  0.08800  0.92500  Biso   1.000  C
  C65      1.0000 0.55100  0.70400  0.66700  Biso   1.000  C
  C66      1.0000 0.05100  0.79600  0.33300  Biso   1.000  C
  C67      1.0000 0.44900  0.70400  0.83300  Biso   1.000  C
  C68      1.0000 0.94900  0.79600  0.16700  Biso   1.000  C
  C69      1.0000 0.44900  0.29600  0.33300  Biso   1.000  C
  C70      1.0000 0.94900  0.20400  0.66700  Biso   1.000  C
  C71      1.0000 0.55100  0.29600  0.16700  Biso   1.000  C
  C72      1.0000 0.05100  0.20400  0.83300  Biso   1.000  C
  C73      1.0000 0.61700  0.58100  0.76400  Biso   1.000  C
  C74      1.0000 0.11700  0.91900  0.23600  Biso   1.000  C
  C75      1.0000 0.38300  0.58100  0.73600  Biso   1.000  C
  C76      1.0000 0.88300  0.91900  0.26400  Biso   1.000  C
  C77      1.0000 0.38300  0.41900  0.23600  Biso   1.000  C
  C78      1.0000 0.88300  0.08100  0.76400  Biso   1.000  C
  C79      1.0000 0.61700  0.41900  0.26400  Biso   1.000  C
  C80      1.0000 0.11700  0.08100  0.73600  Biso   1.000  C
  C81      1.0000 0.84000  0.63400  0.51000  Biso   1.000  C
  C82      1.0000 0.34000  0.86600  0.49000  Biso   1.000  C
  C83      1.0000 0.16000  0.63400  0.99000  Biso   1.000  C
  C84      1.0000 0.66000  0.86600  0.01000  Biso   1.000  C
  C85      1.0000 0.16000  0.36600  0.49000  Biso   1.000  C
  C86      1.0000 0.66000  0.13400  0.51000  Biso   1.000  C
  C87      1.0000 0.84000  0.36600  0.01000  Biso   1.000  C
  C88      1.0000 0.34000  0.13400  0.99000  Biso   1.000  C
  C89      1.0000 0.90400  0.62200  0.48180  Biso   1.000  C
  C90      1.0000 0.40400  0.87800  0.51820  Biso   1.000  C
  C91      1.0000 0.09600  0.62200  0.01820  Biso   1.000  C
  C92      1.0000 0.59600  0.87800  0.98180  Biso   1.000  C
  C93      1.0000 0.09600  0.37800  0.51820  Biso   1.000  C
  C94      1.0000 0.59600  0.12200  0.48180  Biso   1.000  C
  C95      1.0000 0.90400  0.37800  0.98180  Biso   1.000  C
  C96      1.0000 0.40400  0.12200  0.01820  Biso   1.000  C
  C97      1.0000 0.96400  0.62600  0.51600  Biso   1.000  C
  C98      1.0000 0.46400  0.87400  0.48400  Biso   1.000  C
  C99      1.0000 0.03600  0.62600  0.98400  Biso   1.000  C
  C100     1.0000 0.53600  0.87400  0.01600  Biso   1.000  C
  C101     1.0000 0.03600  0.37400  0.48400  Biso   1.000  C
  C102     1.0000 0.53600  0.12600  0.51600  Biso   1.000  C
  C103     1.0000 0.96400  0.37400  0.01600  Biso   1.000  C
  C104     1.0000 0.46400  0.12600  0.98400  Biso   1.000  C
  C105     1.0000 0.96070  0.64100  0.57800  Biso   1.000  C
  C106     1.0000 0.46070  0.85900  0.42200  Biso   1.000  C
  C107     1.0000 0.03930  0.64100  0.92200  Biso   1.000  C
  C108     1.0000 0.53930  0.85900  0.07800  Biso   1.000  C
  C109     1.0000 0.03930  0.35900  0.42200  Biso   1.000  C
  C110     1.0000 0.53930  0.14100  0.57800  Biso   1.000  C
  C111     1.0000 0.96070  0.35900  0.07800  Biso   1.000  C
  C112     1.0000 0.46070  0.14100  0.92200  Biso   1.000  C
  C113     1.0000 0.89700  0.65300  0.60660  Biso   1.000  C
  C114     1.0000 0.39700  0.84700  0.39340  Biso   1.000  C
  C115     1.0000 0.10300  0.65300  0.89340  Biso   1.000  C
  C116     1.0000 0.60300  0.84700  0.10660  Biso   1.000  C
  C117     1.0000 0.10300  0.34700  0.39340  Biso   1.000  C
  C118     1.0000 0.60300  0.15300  0.60660  Biso   1.000  C
  C119     1.0000 0.89700  0.34700  0.10660  Biso   1.000  C
  C120     1.0000 0.39700  0.15300  0.89340  Biso   1.000  C
  C121     1.0000 0.10300  0.58800  0.39670  Biso   1.000  C
  C122     1.0000 0.60300  0.91200  0.60330  Biso   1.000  C
  C123     1.0000 0.89700  0.58800  0.10330  Biso   1.000  C
  C124     1.0000 0.39700  0.91200  0.89670  Biso   1.000  C
  C125     1.0000 0.89700  0.41200  0.60330  Biso   1.000  C
  C126     1.0000 0.39700  0.08800  0.39670  Biso   1.000  C
  C127     1.0000 0.10300  0.41200  0.89670  Biso   1.000  C
  C128     1.0000 0.60300  0.08800  0.10330  Biso   1.000  C
  C129     1.0000 0.03890  0.59700  0.42370  Biso   1.000  C
  C130     1.0000 0.53890  0.90300  0.57630  Biso   1.000  C
  C131     1.0000 0.96110  0.59700  0.07630  Biso   1.000  C
  C132     1.0000 0.46110  0.90300  0.92370  Biso   1.000  C
  C133     1.0000 0.96110  0.40300  0.57630  Biso   1.000  C
  C134     1.0000 0.46110  0.09700  0.42370  Biso   1.000  C
  C135     1.0000 0.03890  0.40300  0.92370  Biso   1.000  C
  C136     1.0000 0.53890  0.09700  0.07630  Biso   1.000  C
  C137     1.0000 0.03410  0.61800  0.48480  Biso   1.000  C
  C138     1.0000 0.53410  0.88200  0.51520  Biso   1.000  C
  C139     1.0000 0.96590  0.61800  0.01520  Biso   1.000  C
  C140     1.0000 0.46590  0.88200  0.98480  Biso   1.000  C
  C141     1.0000 0.96590  0.38200  0.51520  Biso   1.000  C
  C142     1.0000 0.46590  0.11800  0.48480  Biso   1.000  C
  C143     1.0000 0.03410  0.38200  0.98480  Biso   1.000  C
  C144     1.0000 0.53410  0.11800  0.01520  Biso   1.000  C
  C145     1.0000 0.09400  0.62800  0.51890  Biso   1.000  C
  C146     1.0000 0.59400  0.87200  0.48110  Biso   1.000  C
  C147     1.0000 0.90600  0.62800  0.98110  Biso   1.000  C
  C148     1.0000 0.40600  0.87200  0.01890  Biso   1.000  C
  C149     1.0000 0.90600  0.37200  0.48110  Biso   1.000  C
  C150     1.0000 0.40600  0.12800  0.51890  Biso   1.000  C
  C151     1.0000 0.09400  0.37200  0.01890  Biso   1.000  C
  C152     1.0000 0.59400  0.12800  0.98110  Biso   1.000  C
  C153     1.0000 0.15770  0.61900  0.49200  Biso   1.000  C
  C154     1.0000 0.65770  0.88100  0.50800  Biso   1.000  C
  C155     1.0000 0.84230  0.61900  0.00800  Biso   1.000  C
  C156     1.0000 0.34230  0.88100  0.99200  Biso   1.000  C
  C157     1.0000 0.84230  0.38100  0.50800  Biso   1.000  C
  C158     1.0000 0.34230  0.11900  0.49200  Biso   1.000  C
  C159     1.0000 0.15770  0.38100  0.99200  Biso   1.000  C
  C160     1.0000 0.65770  0.11900  0.00800  Biso   1.000  C
  H1       1.0000 0.57660  0.33160  0.70770  Biso   1.000  H
  H2       1.0000 0.07660  0.16840  0.29230  Biso   1.000  H
  H3       1.0000 0.42340  0.33160  0.79230  Biso   1.000  H
  H4       1.0000 0.92340  0.16840  0.20770  Biso   1.000  H
  H5       1.0000 0.42340  0.66840  0.29230  Biso   1.000  H
  H6       1.0000 0.92340  0.83160  0.70770  Biso   1.000  H
  H7       1.0000 0.57660  0.66840  0.20770  Biso   1.000  H
  H8       1.0000 0.07660  0.83160  0.79230  Biso   1.000  H
  H9       1.0000 0.57410  0.38720  0.76650  Biso   1.000  H
  H10      1.0000 0.07410  0.11280  0.23350  Biso   1.000  H
  H11      1.0000 0.42590  0.38720  0.73350  Biso   1.000  H
  H12      1.0000 0.92590  0.11280  0.26650  Biso   1.000  H
  H13      1.0000 0.42590  0.61280  0.23350  Biso   1.000  H
  H14      1.0000 0.92590  0.88720  0.76650  Biso   1.000  H
  H15      1.0000 0.57410  0.61280  0.26650  Biso   1.000  H
  H16      1.0000 0.07410  0.88720  0.73350  Biso   1.000  H
  H17      1.0000 0.64070  0.38440  0.72850  Biso   1.000  H
  H18      1.0000 0.14070  0.11560  0.27150  Biso   1.000  H
  H19      1.0000 0.35930  0.38440  0.77150  Biso   1.000  H
  H20      1.0000 0.85930  0.11560  0.22850  Biso   1.000  H
  H21      1.0000 0.35930  0.61560  0.27150  Biso   1.000  H
  H22      1.0000 0.85930  0.88440  0.72850  Biso   1.000  H
  H23      1.0000 0.64070  0.61560  0.22850  Biso   1.000  H
  H24      1.0000 0.14070  0.88440  0.77150  Biso   1.000  H
  H25      1.0000 0.47220  0.42160  0.57460  Biso   1.000  H
  H26      1.0000 0.97220  0.07840  0.42540  Biso   1.000  H
  H27      1.0000 0.52780  0.42160  0.92540  Biso   1.000  H
  H28      1.0000 0.02780  0.07840  0.07460  Biso   1.000  H
  H29      1.0000 0.52780  0.57840  0.42540  Biso   1.000  H
  H30      1.0000 0.02780  0.92160  0.57460  Biso   1.000  H
  H31      1.0000 0.47220  0.57840  0.07460  Biso   1.000  H
  H32      1.0000 0.97220  0.92160  0.92540  Biso   1.000  H
  H33      1.0000 0.46750  0.36560  0.63320  Biso   1.000  H
  H34      1.0000 0.96750  0.13440  0.36680  Biso   1.000  H
  H35      1.0000 0.53250  0.36560  0.86680  Biso   1.000  H
  H36      1.0000 0.03250  0.13440  0.13320  Biso   1.000  H
  H37      1.0000 0.53250  0.63440  0.36680  Biso   1.000  H
  H38      1.0000 0.03250  0.86560  0.63320  Biso   1.000  H
  H39      1.0000 0.46750  0.63440  0.13320  Biso   1.000  H
  H40      1.0000 0.96750  0.86560  0.86680  Biso   1.000  H
  H41      1.0000 0.53270  0.36050  0.59340  Biso   1.000  H
  H42      1.0000 0.03270  0.13950  0.40660  Biso   1.000  H
  H43      1.0000 0.46730  0.36050  0.90660  Biso   1.000  H
  H44      1.0000 0.96730  0.13950  0.09340  Biso   1.000  H
  H45      1.0000 0.46730  0.63950  0.40660  Biso   1.000  H
  H46      1.0000 0.96730  0.86050  0.59340  Biso   1.000  H
  H47      1.0000 0.53270  0.63950  0.09340  Biso   1.000  H
  H48      1.0000 0.03270  0.86050  0.90660  Biso   1.000  H
  H49      1.0000 0.47600  0.65100  0.57750  Biso   1.000  H
  H50      1.0000 0.97600  0.84900  0.42250  Biso   1.000  H
  H51      1.0000 0.52400  0.65100  0.92250  Biso   1.000  H
  H52      1.0000 0.02400  0.84900  0.07750  Biso   1.000  H
  H53      1.0000 0.52400  0.34900  0.42250  Biso   1.000  H
  H54      1.0000 0.02400  0.15100  0.57750  Biso   1.000  H
  H55      1.0000 0.47600  0.34900  0.07750  Biso   1.000  H
  H56      1.0000 0.97600  0.15100  0.92250  Biso   1.000  H
  H57      1.0000 0.43060  0.56610  0.57790  Biso   1.000  H
  H58      1.0000 0.93060  0.93390  0.42210  Biso   1.000  H
  H59      1.0000 0.56940  0.56610  0.92210  Biso   1.000  H
  H60      1.0000 0.06940  0.93390  0.07790  Biso   1.000  H
  H61      1.0000 0.56940  0.43390  0.42210  Biso   1.000  H
  H62      1.0000 0.06940  0.06610  0.57790  Biso   1.000  H
  H63      1.0000 0.43060  0.43390  0.07790  Biso   1.000  H
  H64      1.0000 0.93060  0.06610  0.92210  Biso   1.000  H
  H65      1.0000 0.49480  0.57050  0.53700  Biso   1.000  H
  H66      1.0000 0.99480  0.92950  0.46300  Biso   1.000  H
  H67      1.0000 0.50520  0.57050  0.96300  Biso   1.000  H
  H68      1.0000 0.00520  0.92950  0.03700  Biso   1.000  H
  H69      1.0000 0.50520  0.42950  0.46300  Biso   1.000  H
  H70      1.0000 0.00520  0.07050  0.53700  Biso   1.000  H
  H71      1.0000 0.49480  0.42950  0.03700  Biso   1.000  H
  H72      1.0000 0.99480  0.07050  0.96300  Biso   1.000  H
  H73      1.0000 0.57730  0.72760  0.69950  Biso   1.000  H
  H74      1.0000 0.07730  0.77240  0.30050  Biso   1.000  H
  H75      1.0000 0.42270  0.72760  0.80050  Biso   1.000  H
  H76      1.0000 0.92270  0.77240  0.19950  Biso   1.000  H
  H77      1.0000 0.42270  0.27240  0.30050  Biso   1.000  H
  H78      1.0000 0.92270  0.22760  0.69950  Biso   1.000  H
  H79      1.0000 0.57730  0.27240  0.19950  Biso   1.000  H
  H80      1.0000 0.07730  0.22760  0.80050  Biso   1.000  H
  H81      1.0000 0.50450  0.72170  0.67170  Biso   1.000  H
  H82      1.0000 0.00450  0.77830  0.32830  Biso   1.000  H
  H83      1.0000 0.49550  0.72170  0.82830  Biso   1.000  H
  H84      1.0000 0.99550  0.77830  0.17170  Biso   1.000  H
  H85      1.0000 0.49550  0.27830  0.32830  Biso   1.000  H
  H86      1.0000 0.99550  0.22170  0.67170  Biso   1.000  H
  H87      1.0000 0.50450  0.27830  0.17170  Biso   1.000  H
  H88      1.0000 0.00450  0.22170  0.82830  Biso   1.000  H
  H89      1.0000 0.56830  0.72450  0.63020  Biso   1.000  H
  H90      1.0000 0.06830  0.77550  0.36980  Biso   1.000  H
  H91      1.0000 0.43170  0.72450  0.86980  Biso   1.000  H
  H92      1.0000 0.93170  0.77550  0.13020  Biso   1.000  H
  H93      1.0000 0.43170  0.27550  0.36980  Biso   1.000  H
  H94      1.0000 0.93170  0.22450  0.63020  Biso   1.000  H
  H95      1.0000 0.56830  0.27550  0.13020  Biso   1.000  H
  H96      1.0000 0.06830  0.22450  0.86980  Biso   1.000  H
  H97      1.0000 0.63800  0.53490  0.78660  Biso   1.000  H
  H98      1.0000 0.13800  0.96510  0.21340  Biso   1.000  H
  H99      1.0000 0.36200  0.53490  0.71340  Biso   1.000  H
  H100     1.0000 0.86200  0.96510  0.28660  Biso   1.000  H
  H101     1.0000 0.36200  0.46510  0.21340  Biso   1.000  H
  H102     1.0000 0.86200  0.03490  0.78660  Biso   1.000  H
  H103     1.0000 0.63800  0.46510  0.28660  Biso   1.000  H
  H104     1.0000 0.13800  0.03490  0.71340  Biso   1.000  H
  H105     1.0000 0.58490  0.61180  0.78800  Biso   1.000  H
  H106     1.0000 0.08490  0.88820  0.21200  Biso   1.000  H
  H107     1.0000 0.41510  0.61180  0.71200  Biso   1.000  H
  H108     1.0000 0.91510  0.88820  0.28800  Biso   1.000  H
  H109     1.0000 0.41510  0.38820  0.21200  Biso   1.000  H
  H110     1.0000 0.91510  0.11180  0.78800  Biso   1.000  H
  H111     1.0000 0.58490  0.38820  0.28800  Biso   1.000  H
  H112     1.0000 0.08490  0.11180  0.71200  Biso   1.000  H
  H113     1.0000 0.65170  0.62190  0.75080  Biso   1.000  H
  H114     1.0000 0.15170  0.87810  0.24920  Biso   1.000  H
  H115     1.0000 0.34830  0.62190  0.74920  Biso   1.000  H
  H116     1.0000 0.84830  0.87810  0.25080  Biso   1.000  H
  H117     1.0000 0.34830  0.37810  0.24920  Biso   1.000  H
  H118     1.0000 0.84830  0.12190  0.75080  Biso   1.000  H
  H119     1.0000 0.65170  0.37810  0.25080  Biso   1.000  H
  H120     1.0000 0.15170  0.12190  0.74920  Biso   1.000  H
