data_image0
_cell_length_a       5.5864
_cell_length_b       12.769
_cell_length_c       15.621
_cell_angle_alpha    90
_cell_angle_beta     90
_cell_angle_gamma    90

_symmetry_space_group_name_H-M    "P 1"
_symmetry_int_tables_number       1

loop_
  _symmetry_equiv_pos_as_xyz
  'x, y, z'

loop_
  _atom_site_label
  _atom_site_occupancy
  _atom_site_fract_x
  _atom_site_fract_y
  _atom_site_fract_z
  _atom_site_thermal_displace_type
  _atom_site_B_iso_or_equiv
  _atom_site_type_symbol
  Cu1      1.0000 0.25000  0.75000  0.59770  Biso   1.000  Cu
  Cu2      1.0000 0.25000  0.75000  0.90230  Biso   1.000  Cu
  Cu3      1.0000 0.75000  0.25000  0.40230  Biso   1.000  Cu
  Cu4      1.0000 0.75000  0.25000  0.09770  Biso   1.000  Cu
  Cl1      1.0000 0.25000  0.75000  0.75000  Biso   1.000  Cl
  Cl2      1.0000 0.75000  0.25000  0.25000  Biso   1.000  Cl
  N1       1.0000 0.98500  0.66170  0.56370  Biso   1.000  N
  N2       1.0000 0.51500  0.83830  0.56370  Biso   1.000  N
  N3       1.0000 0.51500  0.66170  0.93630  Biso   1.000  N
  N4       1.0000 0.98500  0.83830  0.93630  Biso   1.000  N
  N5       1.0000 0.01500  0.33830  0.43630  Biso   1.000  N
  N6       1.0000 0.48500  0.16170  0.43630  Biso   1.000  N
  N7       1.0000 0.48500  0.33830  0.06370  Biso   1.000  N
  N8       1.0000 0.01500  0.16170  0.06370  Biso   1.000  N
  C1       1.0000 0.84530  0.61420  0.62110  Biso   1.000  C
  C2       1.0000 0.65470  0.88580  0.62110  Biso   1.000  C
  C3       1.0000 0.65470  0.61420  0.87890  Biso   1.000  C
  C4       1.0000 0.84530  0.88580  0.87890  Biso   1.000  C
  C5       1.0000 0.15470  0.38580  0.37890  Biso   1.000  C
  C6       1.0000 0.34530  0.11420  0.37890  Biso   1.000  C
  C7       1.0000 0.34530  0.38580  0.12110  Biso   1.000  C
  C8       1.0000 0.15470  0.11420  0.12110  Biso   1.000  C
  H1       1.0000 0.87610  0.62490  0.67900  Biso   1.000  H
  H2       1.0000 0.62390  0.87510  0.67900  Biso   1.000  H
  H3       1.0000 0.62390  0.62490  0.82100  Biso   1.000  H
  H4       1.0000 0.87610  0.87510  0.82100  Biso   1.000  H
  H5       1.0000 0.12390  0.37510  0.32100  Biso   1.000  H
  H6       1.0000 0.37610  0.12490  0.32100  Biso   1.000  H
  H7       1.0000 0.37610  0.37510  0.17900  Biso   1.000  H
  H8       1.0000 0.12390  0.12490  0.17900  Biso   1.000  H
  C9       1.0000 0.65790  0.55020  0.59850  Biso   1.000  C
  C10      1.0000 0.84210  0.94980  0.59850  Biso   1.000  C
  C11      1.0000 0.84210  0.55020  0.90150  Biso   1.000  C
  C12      1.0000 0.65790  0.94980  0.90150  Biso   1.000  C
  C13      1.0000 0.34210  0.44980  0.40150  Biso   1.000  C
  C14      1.0000 0.15790  0.05020  0.40150  Biso   1.000  C
  C15      1.0000 0.15790  0.44980  0.09850  Biso   1.000  C
  C16      1.0000 0.34210  0.05020  0.09850  Biso   1.000  C
  H9       1.0000 0.56820  0.51730  0.64080  Biso   1.000  H
  H10      1.0000 0.93180  0.98270  0.64080  Biso   1.000  H
  H11      1.0000 0.93180  0.51730  0.85920  Biso   1.000  H
  H12      1.0000 0.56820  0.98270  0.85920  Biso   1.000  H
  H13      1.0000 0.43180  0.48270  0.35920  Biso   1.000  H
  H14      1.0000 0.06820  0.01730  0.35920  Biso   1.000  H
  H15      1.0000 0.06820  0.48270  0.14080  Biso   1.000  H
  H16      1.0000 0.43180  0.01730  0.14080  Biso   1.000  H
  C17      1.0000 0.60170  0.53420  0.51370  Biso   1.000  C
  C18      1.0000 0.89830  0.96580  0.51370  Biso   1.000  C
  C19      1.0000 0.89830  0.53420  0.98630  Biso   1.000  C
  C20      1.0000 0.60170  0.96580  0.98630  Biso   1.000  C
  C21      1.0000 0.39830  0.46580  0.48630  Biso   1.000  C
  C22      1.0000 0.10170  0.03420  0.48630  Biso   1.000  C
  C23      1.0000 0.10170  0.46580  0.01370  Biso   1.000  C
  C24      1.0000 0.39830  0.03420  0.01370  Biso   1.000  C
  C25      1.0000 0.74340  0.58510  0.45460  Biso   1.000  C
  C26      1.0000 0.75660  0.91490  0.45460  Biso   1.000  C
  C27      1.0000 0.75660  0.58510  0.04540  Biso   1.000  C
  C28      1.0000 0.74340  0.91490  0.04540  Biso   1.000  C
  C29      1.0000 0.25660  0.41490  0.54540  Biso   1.000  C
  C30      1.0000 0.24340  0.08510  0.54540  Biso   1.000  C
  C31      1.0000 0.24340  0.41490  0.95460  Biso   1.000  C
  C32      1.0000 0.25660  0.08510  0.95460  Biso   1.000  C
  H17      1.0000 0.71260  0.57780  0.39640  Biso   1.000  H
  H18      1.0000 0.78740  0.92220  0.39640  Biso   1.000  H
  H19      1.0000 0.78740  0.57780  0.10360  Biso   1.000  H
  H20      1.0000 0.71260  0.92220  0.10360  Biso   1.000  H
  H21      1.0000 0.28740  0.42220  0.60360  Biso   1.000  H
  H22      1.0000 0.21260  0.07780  0.60360  Biso   1.000  H
  H23      1.0000 0.21260  0.42220  0.89640  Biso   1.000  H
  H24      1.0000 0.28740  0.07780  0.89640  Biso   1.000  H
  C33      1.0000 0.93140  0.64710  0.48210  Biso   1.000  C
  C34      1.0000 0.56860  0.85290  0.48210  Biso   1.000  C
  C35      1.0000 0.56860  0.64710  0.01790  Biso   1.000  C
  C36      1.0000 0.93140  0.85290  0.01790  Biso   1.000  C
  C37      1.0000 0.06860  0.35290  0.51790  Biso   1.000  C
  C38      1.0000 0.43140  0.14710  0.51790  Biso   1.000  C
  C39      1.0000 0.43140  0.35290  0.98210  Biso   1.000  C
  C40      1.0000 0.06860  0.14710  0.98210  Biso   1.000  C
  H25      1.0000 0.02520  0.68020  0.44100  Biso   1.000  H
  H26      1.0000 0.47480  0.81980  0.44100  Biso   1.000  H
  H27      1.0000 0.47480  0.68020  0.05900  Biso   1.000  H
  H28      1.0000 0.02520  0.81980  0.05900  Biso   1.000  H
  H29      1.0000 0.97480  0.31980  0.55900  Biso   1.000  H
  H30      1.0000 0.52520  0.18020  0.55900  Biso   1.000  H
  H31      1.0000 0.52520  0.31980  0.94100  Biso   1.000  H
  H32      1.0000 0.97480  0.18020  0.94100  Biso   1.000  H
  Cl3      1.0000 0.25000  0.75000  0.25000  Biso   1.000  Cl
  Cl4      1.0000 0.75000  0.25000  0.75000  Biso   1.000  Cl
  O1       1.0000 0.14300  0.81290  0.31320  Biso   1.000  O
  O2       1.0000 0.35700  0.68710  0.31320  Biso   1.000  O
  O3       1.0000 0.35700  0.81290  0.18680  Biso   1.000  O
  O4       1.0000 0.14300  0.68710  0.18680  Biso   1.000  O
  O5       1.0000 0.85700  0.18710  0.68680  Biso   1.000  O
  O6       1.0000 0.64300  0.31290  0.68680  Biso   1.000  O
  O7       1.0000 0.64300  0.18710  0.81320  Biso   1.000  O
  O8       1.0000 0.85700  0.31290  0.81320  Biso   1.000  O
  Cl5      1.0000 0.25000  0.68620  0.25000  Biso   1.000  Cl
  Cl6      1.0000 0.25000  0.81380  0.25000  Biso   1.000  Cl
  Cl7      1.0000 0.75000  0.31380  0.75000  Biso   1.000  Cl
  Cl8      1.0000 0.75000  0.18620  0.75000  Biso   1.000  Cl
  O9       1.0000 0.25000  0.75000  0.32410  Biso   1.000  O
  O10      1.0000 0.25000  0.75000  0.17590  Biso   1.000  O
  O11      1.0000 0.75000  0.25000  0.67590  Biso   1.000  O
  O12      1.0000 0.75000  0.25000  0.82410  Biso   1.000  O
  O13      1.0000 0.04500  0.62060  0.26510  Biso   1.000  O
  O14      1.0000 0.45500  0.87940  0.26510  Biso   1.000  O
  O15      1.0000 0.45500  0.62060  0.23490  Biso   1.000  O
  O16      1.0000 0.04500  0.87940  0.23490  Biso   1.000  O
  O17      1.0000 0.95500  0.37940  0.73490  Biso   1.000  O
  O18      1.0000 0.54500  0.12060  0.73490  Biso   1.000  O
  O19      1.0000 0.54500  0.37940  0.76510  Biso   1.000  O
  O20      1.0000 0.95500  0.12060  0.76510  Biso   1.000  O
