data_image0
_cell_length_a       8.866
_cell_length_b       12.582
_cell_length_c       10.495
_cell_angle_alpha    90
_cell_angle_beta     101.274
_cell_angle_gamma    90

_symmetry_space_group_name_H-M    "P 1"
_symmetry_int_tables_number       1

loop_
  _symmetry_equiv_pos_as_xyz
  'x, y, z'

loop_
  _atom_site_label
  _atom_site_occupancy
  _atom_site_fract_x
  _atom_site_fract_y
  _atom_site_fract_z
  _atom_site_thermal_displace_type
  _atom_site_B_iso_or_equiv
  _atom_site_type_symbol
  Cu1      1.0000 0.31105  0.56767  0.99671  Biso   1.000  Cu
  Cu2      1.0000 0.18895  0.06767  0.50329  Biso   1.000  Cu
  Cu3      1.0000 0.68895  0.43233  0.00329  Biso   1.000  Cu
  Cu4      1.0000 0.81105  0.93233  0.49671  Biso   1.000  Cu
  Cu5      1.0000 0.98335  0.60506  0.04532  Biso   1.000  Cu
  Cu6      1.0000 0.51665  0.10506  0.45468  Biso   1.000  Cu
  Cu7      1.0000 0.01665  0.39494  0.95468  Biso   1.000  Cu
  Cu8      1.0000 0.48335  0.89494  0.54532  Biso   1.000  Cu
  Cu9      1.0000 0.87336  0.67152  0.56419  Biso   1.000  Cu
  Cu10     1.0000 0.62664  0.17152  0.93581  Biso   1.000  Cu
  Cu11     1.0000 0.12664  0.32848  0.43581  Biso   1.000  Cu
  Cu12     1.0000 0.37336  0.82848  0.06419  Biso   1.000  Cu
  I1       1.0000 0.05516  0.57803  0.81368  Biso   1.000  I
  I2       1.0000 0.44484  0.07803  0.68632  Biso   1.000  I
  I3       1.0000 0.94484  0.42197  0.18632  Biso   1.000  I
  I4       1.0000 0.55516  0.92197  0.31368  Biso   1.000  I
  I5       1.0000 0.23172  0.68679  0.18622  Biso   1.000  I
  I6       1.0000 0.26828  0.18679  0.31378  Biso   1.000  I
  I7       1.0000 0.76828  0.31321  0.81378  Biso   1.000  I
  I8       1.0000 0.73172  0.81321  0.68622  Biso   1.000  I
  N1       1.0000 0.45800  0.25790  0.98360  Biso   1.000  N
  N2       1.0000 0.04200  0.75790  0.51640  Biso   1.000  N
  N3       1.0000 0.54200  0.74210  0.01640  Biso   1.000  N
  N4       1.0000 0.95800  0.24210  0.48360  Biso   1.000  N
  N5       1.0000 0.23500  0.33510  0.97420  Biso   1.000  N
  N6       1.0000 0.26500  0.83510  0.52580  Biso   1.000  N
  N7       1.0000 0.76500  0.66490  0.02580  Biso   1.000  N
  N8       1.0000 0.73500  0.16490  0.47420  Biso   1.000  N
  N9       1.0000 0.34760  0.40860  0.99970  Biso   1.000  N
  N10      1.0000 0.15240  0.90860  0.50030  Biso   1.000  N
  N11      1.0000 0.65240  0.59140  0.00030  Biso   1.000  N
  N12      1.0000 0.84760  0.09140  0.49970  Biso   1.000  N
  N13      1.0000 0.48000  0.36170  0.00530  Biso   1.000  N
  N14      1.0000 0.02000  0.86170  0.49470  Biso   1.000  N
  N15      1.0000 0.52000  0.63830  0.99470  Biso   1.000  N
  N16      1.0000 0.98000  0.13830  0.50530  Biso   1.000  N
  N17      1.0000 0.25530  0.95080  0.98260  Biso   1.000  N
  N18      1.0000 0.24470  0.45080  0.51740  Biso   1.000  N
  N19      1.0000 0.74470  0.04920  0.01740  Biso   1.000  N
  N20      1.0000 0.75530  0.54920  0.48260  Biso   1.000  N
  C1       1.0000 0.23470  0.13830  0.94120  Biso   1.000  C
  C2       1.0000 0.26530  0.63830  0.55880  Biso   1.000  C
  C3       1.0000 0.76530  0.86170  0.05880  Biso   1.000  C
  C4       1.0000 0.73470  0.36170  0.44120  Biso   1.000  C
  C5       1.0000 0.30750  0.05030  0.00570  Biso   1.000  C
  C6       1.0000 0.19250  0.55030  0.49430  Biso   1.000  C
  C7       1.0000 0.69250  0.94970  0.99430  Biso   1.000  C
  C8       1.0000 0.80750  0.44970  0.50570  Biso   1.000  C
  C9       1.0000 0.09980  0.12250  0.85110  Biso   1.000  C
  C10      1.0000 0.40020  0.62250  0.64890  Biso   1.000  C
  C11      1.0000 0.90020  0.87750  0.14890  Biso   1.000  C
  C12      1.0000 0.59980  0.37750  0.35110  Biso   1.000  C
  C13      1.0000 0.30550  0.24350  0.96540  Biso   1.000  C
  C14      1.0000 0.19450  0.74350  0.53460  Biso   1.000  C
  C15      1.0000 0.69450  0.75650  0.03460  Biso   1.000  C
  C16      1.0000 0.80550  0.25650  0.46540  Biso   1.000  C
  C17      1.0000 0.12350  0.93680  0.89500  Biso   1.000  C
  C18      1.0000 0.37650  0.43680  0.60500  Biso   1.000  C
  C19      1.0000 0.87650  0.06320  0.10500  Biso   1.000  C
  C20      1.0000 0.62350  0.56320  0.39500  Biso   1.000  C
  C21      1.0000 0.04340  0.02130  0.82890  Biso   1.000  C
  C22      1.0000 0.45660  0.52130  0.67110  Biso   1.000  C
  C23      1.0000 0.95660  0.97870  0.17110  Biso   1.000  C
  C24      1.0000 0.54340  0.47870  0.32890  Biso   1.000  C
  H1       1.0000 0.41000  0.05400  0.06100  Biso   1.000  H
  H2       1.0000 0.09000  0.55400  0.43900  Biso   1.000  H
  H3       1.0000 0.59000  0.94600  0.93900  Biso   1.000  H
  H4       1.0000 0.91000  0.44600  0.56100  Biso   1.000  H
  H5       1.0000 0.09600  0.86800  0.88600  Biso   1.000  H
  H6       1.0000 0.40400  0.36800  0.61400  Biso   1.000  H
  H7       1.0000 0.90400  0.13200  0.11400  Biso   1.000  H
  H8       1.0000 0.59600  0.63200  0.38600  Biso   1.000  H
  H9       1.0000 0.05600  0.18400  0.78900  Biso   1.000  H
  H10      1.0000 0.44400  0.68400  0.71100  Biso   1.000  H
  H11      1.0000 0.94400  0.81600  0.21100  Biso   1.000  H
  H12      1.0000 0.55600  0.31600  0.28900  Biso   1.000  H
  H13      1.0000 0.95100  0.01300  0.77100  Biso   1.000  H
  H14      1.0000 0.54900  0.51300  0.72900  Biso   1.000  H
  H15      1.0000 0.04900  0.98700  0.22900  Biso   1.000  H
  H16      1.0000 0.45100  0.48700  0.27100  Biso   1.000  H
