data_image0
_cell_length_a       7.0473
_cell_length_b       7.0749
_cell_length_c       9.8568
_cell_angle_alpha    80.148
_cell_angle_beta     86.618
_cell_angle_gamma    83.666

_symmetry_space_group_name_H-M    "P 1"
_symmetry_int_tables_number       1

loop_
  _symmetry_equiv_pos_as_xyz
  'x, y, z'

loop_
  _atom_site_label
  _atom_site_occupancy
  _atom_site_fract_x
  _atom_site_fract_y
  _atom_site_fract_z
  _atom_site_thermal_displace_type
  _atom_site_B_iso_or_equiv
  _atom_site_type_symbol
  I1       1.0000 0.69433  0.53299  0.34114  Biso   1.000  I
  I2       1.0000 0.30567  0.46701  0.65886  Biso   1.000  I
  Cu1      1.0000 0.48819  0.74593  0.51123  Biso   1.000  Cu
  Cu2      1.0000 0.51181  0.25407  0.48877  Biso   1.000  Cu
  Na1      1.0000 0.15270  0.57910  0.29950  Biso   1.000  Na
  Na2      1.0000 0.84730  0.42090  0.70050  Biso   1.000  Na
  C1       1.0000 0.97030  0.25380  0.04020  Biso   1.000  C
  C2       1.0000 0.02970  0.74620  0.95980  Biso   1.000  C
  H1       1.0000 0.08720  0.30220  0.01590  Biso   1.000  H
  H2       1.0000 0.91280  0.69780  0.98410  Biso   1.000  H
  C3       1.0000 0.95220  0.13580  0.16580  Biso   1.000  C
  C4       1.0000 0.04780  0.86420  0.83420  Biso   1.000  C
  N1       1.0000 0.83080  0.30300  0.95120  Biso   1.000  N
  N2       1.0000 0.16920  0.69700  0.04880  Biso   1.000  N
  N3       1.0000 0.20030  0.23230  0.29890  Biso   1.000  N
  N4       1.0000 0.79970  0.76770  0.70110  Biso   1.000  N
  C5       1.0000 0.10810  0.09730  0.26180  Biso   1.000  C
  C6       1.0000 0.89190  0.90270  0.73820  Biso   1.000  C
  N5       1.0000 0.17230  0.91870  0.32510  Biso   1.000  N
  N6       1.0000 0.82770  0.08130  0.67490  Biso   1.000  N
  N7       1.0000 0.30970  0.95310  0.40340  Biso   1.000  N
  N8       1.0000 0.69030  0.04690  0.59660  Biso   1.000  N
  N9       1.0000 0.32520  0.13330  0.38840  Biso   1.000  N
  N10      1.0000 0.67480  0.86670  0.61160  Biso   1.000  N
  C7       1.0000 0.77790  0.06110  0.19940  Biso   1.000  C
  C8       1.0000 0.22210  0.93890  0.80060  Biso   1.000  C
  H3       1.0000 0.76040  0.97900  0.28260  Biso   1.000  H
  H4       1.0000 0.23960  0.02100  0.71740  Biso   1.000  H
  C9       1.0000 0.63220  0.10870  0.10990  Biso   1.000  C
  C10      1.0000 0.36780  0.89130  0.89010  Biso   1.000  C
  H5       1.0000 0.51530  0.05860  0.13010  Biso   1.000  H
  H6       1.0000 0.48470  0.94140  0.86990  Biso   1.000  H
  C11      1.0000 0.66410  0.23280  0.98910  Biso   1.000  C
  C12      1.0000 0.33590  0.76720  0.01090  Biso   1.000  C
  H7       1.0000 0.56340  0.27010  0.93030  Biso   1.000  H
  H8       1.0000 0.43660  0.72990  0.06970  Biso   1.000  H
