data_image0
_cell_length_a       12.063
_cell_length_b       12.38
_cell_length_c       13.967
_cell_angle_alpha    99.82
_cell_angle_beta     98.682
_cell_angle_gamma    113.418

_symmetry_space_group_name_H-M    "P 1"
_symmetry_int_tables_number       1

loop_
  _symmetry_equiv_pos_as_xyz
  'x, y, z'

loop_
  _atom_site_label
  _atom_site_occupancy
  _atom_site_fract_x
  _atom_site_fract_y
  _atom_site_fract_z
  _atom_site_thermal_displace_type
  _atom_site_B_iso_or_equiv
  _atom_site_type_symbol
  O1       1.0000 0.27160  0.39380  0.44700  Biso   1.000  O
  O2       1.0000 0.72840  0.60620  0.55300  Biso   1.000  O
  H1       1.0000 0.34530  0.44330  0.44870  Biso   1.000  H
  H2       1.0000 0.65470  0.55670  0.55130  Biso   1.000  H
  H3       1.0000 0.25860  0.35300  0.49070  Biso   1.000  H
  H4       1.0000 0.74140  0.64700  0.50930  Biso   1.000  H
  Mo1      1.0000 0.74949  0.00617  0.38954  Biso   1.000  Mo
  Mo2      1.0000 0.25051  0.99383  0.61046  Biso   1.000  Mo
  Mo3      1.0000 0.74052  0.28428  0.50060  Biso   1.000  Mo
  Mo4      1.0000 0.25948  0.71572  0.49940  Biso   1.000  Mo
  Mo5      1.0000 0.48643  0.27436  0.60460  Biso   1.000  Mo
  Mo6      1.0000 0.51357  0.72564  0.39540  Biso   1.000  Mo
  Mo7      1.0000 0.26848  0.07403  0.37796  Biso   1.000  Mo
  Mo8      1.0000 0.73152  0.92597  0.62204  Biso   1.000  Mo
  Mo9      1.0000 0.52283  0.09093  0.27305  Biso   1.000  Mo
  Mo10     1.0000 0.47717  0.90907  0.72695  Biso   1.000  Mo
  Mo11     1.0000 0.29160  0.80234  0.26941  Biso   1.000  Mo
  Mo12     1.0000 0.70840  0.19766  0.73059  Biso   1.000  Mo
  Cu1      1.0000 0.48776  0.32948  0.90256  Biso   1.000  Cu
  Cu2      1.0000 0.51224  0.67052  0.09744  Biso   1.000  Cu
  Cu3      1.0000 0.62025  0.13770  0.01127  Biso   1.000  Cu
  Cu4      1.0000 0.37975  0.86230  0.98873  Biso   1.000  Cu
  Cu5      1.0000 0.73668  0.62524  0.95659  Biso   1.000  Cu
  Cu6      1.0000 0.26332  0.37476  0.04341  Biso   1.000  Cu
  P1       1.0000 0.50000  0.00000  0.50000  Biso   1.000  P
  O3       1.0000 0.59930  0.06860  0.44830  Biso   1.000  O
  O4       1.0000 0.40070  0.93140  0.55170  Biso   1.000  O
  O5       1.0000 0.57090  0.13470  0.55490  Biso   1.000  O
  O6       1.0000 0.42910  0.86530  0.44510  Biso   1.000  O
  O7       1.0000 0.58040  0.94110  0.47930  Biso   1.000  O
  O8       1.0000 0.41960  0.05890  0.52070  Biso   1.000  O
  O9       1.0000 0.41750  0.99430  0.39220  Biso   1.000  O
  O10      1.0000 0.58250  0.00570  0.60780  Biso   1.000  O
  O11      1.0000 0.39580  0.12580  0.30740  Biso   1.000  O
  O12      1.0000 0.60420  0.87420  0.69260  Biso   1.000  O
  O13      1.0000 0.80540  0.99350  0.52480  Biso   1.000  O
  O14      1.0000 0.19460  0.00650  0.47520  Biso   1.000  O
  O15      1.0000 0.64750  0.83910  0.35020  Biso   1.000  O
  O16      1.0000 0.35250  0.16090  0.64980  Biso   1.000  O
  O17      1.0000 0.62180  0.33760  0.54770  Biso   1.000  O
  O18      1.0000 0.37820  0.66240  0.45230  Biso   1.000  O
  O19      1.0000 0.63960  0.23600  0.37040  Biso   1.000  O
  O20      1.0000 0.36040  0.76400  0.62960  Biso   1.000  O
  O21      1.0000 0.36930  0.22190  0.47690  Biso   1.000  O
  O22      1.0000 0.63070  0.77810  0.52310  Biso   1.000  O
  O23      1.0000 0.53970  0.13560  0.16790  Biso   1.000  O
  O24      1.0000 0.46030  0.86440  0.83210  Biso   1.000  O
  O25      1.0000 0.65630  0.03810  0.29140  Biso   1.000  O
  O26      1.0000 0.34370  0.96190  0.70860  Biso   1.000  O
  O27      1.0000 0.85250  0.41760  0.50280  Biso   1.000  O
  O28      1.0000 0.14750  0.58240  0.49720  Biso   1.000  O
  O29      1.0000 0.19020  0.71120  0.16050  Biso   1.000  O
  O30      1.0000 0.80980  0.28880  0.83950  Biso   1.000  O
  O31      1.0000 0.40860  0.92470  0.22410  Biso   1.000  O
  O32      1.0000 0.59140  0.07530  0.77590  Biso   1.000  O
  O33      1.0000 0.16250  0.10970  0.32150  Biso   1.000  O
  O34      1.0000 0.83750  0.89030  0.67850  Biso   1.000  O
  O35      1.0000 0.21900  0.91470  0.29980  Biso   1.000  O
  O36      1.0000 0.78100  0.08530  0.70020  Biso   1.000  O
  O37      1.0000 0.81050  0.17800  0.46220  Biso   1.000  O
  O38      1.0000 0.18950  0.82200  0.53780  Biso   1.000  O
  O39      1.0000 0.48030  0.40520  0.64880  Biso   1.000  O
  O40      1.0000 0.51970  0.59480  0.35120  Biso   1.000  O
  O41      1.0000 0.59540  0.26650  0.71250  Biso   1.000  O
  O42      1.0000 0.40460  0.73350  0.28750  Biso   1.000  O
  O43      1.0000 0.87020  0.01740  0.34180  Biso   1.000  O
  O44      1.0000 0.12980  0.98260  0.65820  Biso   1.000  O
  O45      1.0000 0.78580  0.27550  0.63520  Biso   1.000  O
  O46      1.0000 0.21420  0.72450  0.36480  Biso   1.000  O
  N1       1.0000 0.46870  0.46590  0.86420  Biso   1.000  N
  N2       1.0000 0.53130  0.53410  0.13580  Biso   1.000  N
  N3       1.0000 0.56550  0.57660  0.89180  Biso   1.000  N
  N4       1.0000 0.43450  0.42340  0.10820  Biso   1.000  N
  N5       1.0000 0.53650  0.65470  0.85510  Biso   1.000  N
  N6       1.0000 0.46350  0.34530  0.14490  Biso   1.000  N
  N7       1.0000 0.41830  0.59630  0.79800  Biso   1.000  N
  N8       1.0000 0.58170  0.40370  0.20200  Biso   1.000  N
  N9       1.0000 0.01970  0.23490  0.63980  Biso   1.000  N
  N10      1.0000 0.98030  0.76510  0.36020  Biso   1.000  N
  N11      1.0000 0.39130  0.16510  0.91600  Biso   1.000  N
  N12      1.0000 0.60870  0.83490  0.08400  Biso   1.000  N
  N13      1.0000 0.43880  0.09540  0.94990  Biso   1.000  N
  N14      1.0000 0.56120  0.90460  0.05010  Biso   1.000  N
  N15      1.0000 0.34800  0.99970  0.96470  Biso   1.000  N
  N16      1.0000 0.65200  0.00030  0.03530  Biso   1.000  N
  N17      1.0000 0.26720  0.11750  0.90970  Biso   1.000  N
  N18      1.0000 0.73280  0.88250  0.09030  Biso   1.000  N
  N19      1.0000 0.89190  0.76610  0.96500  Biso   1.000  N
  N20      1.0000 0.10810  0.23390  0.03500  Biso   1.000  N
  N21      1.0000 0.66910  0.37610  0.98100  Biso   1.000  N
  N22      1.0000 0.33090  0.62390  0.01900  Biso   1.000  N
  N23      1.0000 0.71390  0.31440  0.03570  Biso   1.000  N
  N24      1.0000 0.28610  0.68560  0.96430  Biso   1.000  N
  N25      1.0000 0.75750  0.48840  0.00220  Biso   1.000  N
  N26      1.0000 0.24250  0.51160  0.99780  Biso   1.000  N
  N27      1.0000 0.85840  0.50320  0.06870  Biso   1.000  N
  N28      1.0000 0.14160  0.49680  0.93130  Biso   1.000  N
  N29      1.0000 0.08530  0.36690  0.30860  Biso   1.000  N
  N30      1.0000 0.91470  0.63310  0.69140  Biso   1.000  N
  C1       1.0000 0.37900  0.48200  0.80360  Biso   1.000  C
  C2       1.0000 0.62100  0.51800  0.19640  Biso   1.000  C
  C3       1.0000 0.25590  0.39300  0.74850  Biso   1.000  C
  C4       1.0000 0.74410  0.60700  0.25150  Biso   1.000  C
  C5       1.0000 0.19490  0.27850  0.76510  Biso   1.000  C
  C6       1.0000 0.80510  0.72150  0.23490  Biso   1.000  C
  H5       1.0000 0.23560  0.25450  0.81310  Biso   1.000  H
  H6       1.0000 0.76440  0.74550  0.18690  Biso   1.000  H
  C7       1.0000 0.07790  0.20180  0.71260  Biso   1.000  C
  C8       1.0000 0.92210  0.79820  0.28740  Biso   1.000  C
  H7       1.0000 0.03720  0.12670  0.72600  Biso   1.000  H
  H8       1.0000 0.96280  0.87330  0.27400  Biso   1.000  H
  C9       1.0000 0.07590  0.34700  0.62150  Biso   1.000  C
  C10      1.0000 0.92410  0.65300  0.37850  Biso   1.000  C
  H9       1.0000 0.03440  0.36930  0.57250  Biso   1.000  H
  H10      1.0000 0.96560  0.63070  0.42750  Biso   1.000  H
  C11      1.0000 0.19300  0.42540  0.67570  Biso   1.000  C
  C12      1.0000 0.80700  0.57460  0.32430  Biso   1.000  C
  H11      1.0000 0.23150  0.50170  0.66370  Biso   1.000  H
  H12      1.0000 0.76850  0.49830  0.33630  Biso   1.000  H
  C13      1.0000 0.24570  0.01700  0.94060  Biso   1.000  C
  C14      1.0000 0.75430  0.98300  0.05940  Biso   1.000  C
  C15      1.0000 0.12290  0.93410  0.95140  Biso   1.000  C
  C16      1.0000 0.87710  0.06590  0.04860  Biso   1.000  C
  C17      1.0000 0.11330  0.87080  0.02610  Biso   1.000  C
  C18      1.0000 0.88670  0.12920  0.97390  Biso   1.000  C
  H13      1.0000 0.18480  0.88460  0.07230  Biso   1.000  H
  H14      1.0000 0.81520  0.11540  0.92770  Biso   1.000  H
  C19      1.0000 0.99890  0.78820  0.03180  Biso   1.000  C
  C20      1.0000 0.00110  0.21180  0.96820  Biso   1.000  C
  H15      1.0000 0.99410  0.74660  0.08170  Biso   1.000  H
  H16      1.0000 0.00590  0.25340  0.91830  Biso   1.000  H
  C21      1.0000 0.89970  0.83090  0.89580  Biso   1.000  C
  C22      1.0000 0.10030  0.16910  0.10420  Biso   1.000  C
  H17      1.0000 0.82680  0.81890  0.85250  Biso   1.000  H
  H18      1.0000 0.17320  0.18110  0.14750  Biso   1.000  H
  C23      1.0000 0.83020  0.39500  0.08880  Biso   1.000  C
  C24      1.0000 0.16980  0.60500  0.91120  Biso   1.000  C
  C25      1.0000 0.91560  0.37810  0.16260  Biso   1.000  C
  C26      1.0000 0.08440  0.62190  0.83740  Biso   1.000  C
  C27      1.0000 0.87620  0.30220  0.22330  Biso   1.000  C
  C28      1.0000 0.12380  0.69780  0.77670  Biso   1.000  C
  H19      1.0000 0.79180  0.25400  0.21510  Biso   1.000  H
  H20      1.0000 0.20820  0.74600  0.78490  Biso   1.000  H
  C29      1.0000 0.96310  0.29800  0.29680  Biso   1.000  C
  C30      1.0000 0.03690  0.70200  0.70320  Biso   1.000  C
  H21      1.0000 0.93710  0.24690  0.33870  Biso   1.000  H
  H22      1.0000 0.06290  0.75310  0.66130  Biso   1.000  H
  C31      1.0000 0.12450  0.43780  0.24770  Biso   1.000  C
  C32      1.0000 0.87550  0.56220  0.75230  Biso   1.000  C
  H23      1.0000 0.20940  0.48330  0.25580  Biso   1.000  H
  H24      1.0000 0.79060  0.51670  0.74420  Biso   1.000  H
  C33      1.0000 0.04170  0.44530  0.17310  Biso   1.000  C
  C34      1.0000 0.95830  0.55470  0.82690  Biso   1.000  C
  H25      1.0000 0.06990  0.49450  0.13040  Biso   1.000  H
  H26      1.0000 0.93010  0.50550  0.86960  Biso   1.000  H
  C35      1.0000 0.01320  0.91530  0.88690  Biso   1.000  C
  C36      1.0000 0.98680  0.08470  0.11310  Biso   1.000  C
  H27      1.0000 0.01570  0.95860  0.83840  Biso   1.000  H
  H28      1.0000 0.98430  0.04140  0.16160  Biso   1.000  H
