data_image0
_cell_length_a       12.05
_cell_length_b       12.349
_cell_length_c       13.965
_cell_angle_alpha    99.305
_cell_angle_beta     98.769
_cell_angle_gamma    113.266

_symmetry_space_group_name_H-M    "P 1"
_symmetry_int_tables_number       1

loop_
  _symmetry_equiv_pos_as_xyz
  'x, y, z'

loop_
  _atom_site_label
  _atom_site_occupancy
  _atom_site_fract_x
  _atom_site_fract_y
  _atom_site_fract_z
  _atom_site_thermal_displace_type
  _atom_site_B_iso_or_equiv
  _atom_site_type_symbol
  As1      1.0000 0.00000  0.00000  0.50000  Biso   1.000  As
  O1       1.0000 0.28460  0.27640  0.63360  Biso   1.000  O
  O2       1.0000 0.71540  0.72360  0.36640  Biso   1.000  O
  O3       1.0000 0.97650  0.40420  0.64290  Biso   1.000  O
  O4       1.0000 0.02350  0.59580  0.35710  Biso   1.000  O
  O5       1.0000 0.85130  0.16110  0.64550  Biso   1.000  O
  O6       1.0000 0.14870  0.83890  0.35450  Biso   1.000  O
  O7       1.0000 0.30800  0.17810  0.46180  Biso   1.000  O
  O8       1.0000 0.69200  0.82190  0.53820  Biso   1.000  O
  O9       1.0000 0.30630  0.99290  0.52610  Biso   1.000  O
  O10      1.0000 0.69370  0.00710  0.47390  Biso   1.000  O
  O11      1.0000 0.09340  0.07700  0.78150  Biso   1.000  O
  O12      1.0000 0.90660  0.92300  0.21850  Biso   1.000  O
  O13      1.0000 0.07570  0.14470  0.55700  Biso   1.000  O
  O14      1.0000 0.92430  0.85530  0.44300  Biso   1.000  O
  O15      1.0000 0.30720  0.28670  0.83620  Biso   1.000  O
  O16      1.0000 0.69280  0.71330  0.16380  Biso   1.000  O
  O17      1.0000 0.34930  0.41610  0.49860  Biso   1.000  O
  O18      1.0000 0.65070  0.58390  0.50140  Biso   1.000  O
  O19      1.0000 0.33650  0.89060  0.68080  Biso   1.000  O
  O20      1.0000 0.66350  0.10940  0.31920  Biso   1.000  O
  O21      1.0000 0.95790  0.86860  0.83430  Biso   1.000  O
  O22      1.0000 0.04210  0.13140  0.16570  Biso   1.000  O
  O23      1.0000 0.89660  0.92910  0.56000  Biso   1.000  O
  O24      1.0000 0.10340  0.07090  0.44000  Biso   1.000  O
  O25      1.0000 0.62710  0.98140  0.65760  Biso   1.000  O
  O26      1.0000 0.37290  0.01860  0.34240  Biso   1.000  O
  O27      1.0000 0.08870  0.93700  0.47850  Biso   1.000  O
  O28      1.0000 0.91130  0.06300  0.52150  Biso   1.000  O
  O29      1.0000 0.86410  0.76790  0.63200  Biso   1.000  O
  O30      1.0000 0.13590  0.23210  0.36800  Biso   1.000  O
  O31      1.0000 0.84920  0.96590  0.70690  Biso   1.000  O
  O32      1.0000 0.15080  0.03410  0.29310  Biso   1.000  O
  O33      1.0000 0.28320  0.08890  0.69910  Biso   1.000  O
  O34      1.0000 0.71680  0.91110  0.30090  Biso   1.000  O
  O35      1.0000 0.11610  0.33860  0.54000  Biso   1.000  O
  O36      1.0000 0.88390  0.66140  0.46000  Biso   1.000  O
  O37      1.0000 0.09540  0.27020  0.71120  Biso   1.000  O
  O38      1.0000 0.90460  0.72980  0.28880  Biso   1.000  O
  O39      1.0000 0.86990  0.22150  0.47210  Biso   1.000  O
  O40      1.0000 0.13010  0.77850  0.52790  Biso   1.000  O
  O41      1.0000 0.91390  0.99650  0.38520  Biso   1.000  O
  O42      1.0000 0.08610  0.00350  0.61480  Biso   1.000  O
  O43      1.0000 0.11880  0.87500  0.71020  Biso   1.000  O
  O44      1.0000 0.88120  0.12500  0.28980  Biso   1.000  O
  C1       1.0000 0.31120  0.57490  0.32570  Biso   1.000  C
  C2       1.0000 0.68880  0.42510  0.67430  Biso   1.000  C
  H1       1.0000 0.27540  0.49770  0.33690  Biso   1.000  H
  H2       1.0000 0.72460  0.50230  0.66310  Biso   1.000  H
  C3       1.0000 0.12180  0.51710  0.20020  Biso   1.000  C
  C4       1.0000 0.87820  0.48290  0.79980  Biso   1.000  C
  C5       1.0000 0.62620  0.69810  0.77640  Biso   1.000  C
  C6       1.0000 0.37380  0.30190  0.22360  Biso   1.000  C
  H3       1.0000 0.71070  0.74540  0.78410  Biso   1.000  H
  H4       1.0000 0.28930  0.25460  0.21590  Biso   1.000  H
  C7       1.0000 0.48870  0.08600  0.11420  Biso   1.000  C
  C8       1.0000 0.51130  0.91400  0.88580  Biso   1.000  C
  H5       1.0000 0.48680  0.04510  0.16480  Biso   1.000  H
  H6       1.0000 0.51320  0.95490  0.83520  Biso   1.000  H
  C9       1.0000 0.67100  0.60550  0.91440  Biso   1.000  C
  C10      1.0000 0.32900  0.39450  0.08560  Biso   1.000  C
  C11      1.0000 0.37590  0.56090  0.75280  Biso   1.000  C
  C12      1.0000 0.62410  0.43910  0.24720  Biso   1.000  C
  H7       1.0000 0.29110  0.51300  0.74260  Biso   1.000  H
  H8       1.0000 0.70890  0.48700  0.25740  Biso   1.000  H
  C13      1.0000 0.42420  0.65300  0.37990  Biso   1.000  C
  C14      1.0000 0.57580  0.34700  0.62010  Biso   1.000  C
  H9       1.0000 0.46560  0.63170  0.43040  Biso   1.000  H
  H10      1.0000 0.53440  0.36830  0.56960  Biso   1.000  H
  C15      1.0000 0.53880  0.70170  0.70240  Biso   1.000  C
  C16      1.0000 0.46120  0.29830  0.29760  Biso   1.000  C
  H11      1.0000 0.56350  0.74900  0.65730  Biso   1.000  H
  H12      1.0000 0.43650  0.25100  0.34270  Biso   1.000  H
  C17      1.0000 0.37780  0.06540  0.04890  Biso   1.000  C
  C18      1.0000 0.62220  0.93460  0.95110  Biso   1.000  C
  C19      1.0000 0.25630  0.98310  0.05940  Biso   1.000  C
  C20      1.0000 0.74370  0.01690  0.94060  Biso   1.000  C
  C21      1.0000 0.58430  0.62110  0.83980  Biso   1.000  C
  C22      1.0000 0.41570  0.37890  0.16020  Biso   1.000  C
  C23      1.0000 0.38870  0.13100  0.97450  Biso   1.000  C
  C24      1.0000 0.61130  0.86900  0.02550  Biso   1.000  C
  H13      1.0000 0.31840  0.11770  0.92730  Biso   1.000  H
  H14      1.0000 0.68160  0.88230  0.07270  Biso   1.000  H
  C25      1.0000 0.59810  0.16530  0.10300  Biso   1.000  C
  C26      1.0000 0.40190  0.83470  0.89700  Biso   1.000  C
  H15      1.0000 0.67050  0.17340  0.14450  Biso   1.000  H
  H16      1.0000 0.32950  0.82660  0.85550  Biso   1.000  H
  C27      1.0000 0.50180  0.21320  0.97200  Biso   1.000  C
  C28      1.0000 0.49820  0.78680  0.02800  Biso   1.000  C
  H17      1.0000 0.50630  0.25810  0.92410  Biso   1.000  H
  H18      1.0000 0.49370  0.74190  0.07590  Biso   1.000  H
  C29      1.0000 0.46040  0.55360  0.82840  Biso   1.000  C
  C30      1.0000 0.53960  0.44640  0.17160  Biso   1.000  C
  H19      1.0000 0.43250  0.50320  0.87080  Biso   1.000  H
  H20      1.0000 0.56750  0.49680  0.12920  Biso   1.000  H
  C31      1.0000 0.30650  0.72000  0.23670  Biso   1.000  C
  C32      1.0000 0.69350  0.28000  0.76330  Biso   1.000  C
  H21      1.0000 0.26640  0.74370  0.18760  Biso   1.000  H
  H22      1.0000 0.73360  0.25630  0.81240  Biso   1.000  H
  C33      1.0000 0.42110  0.79640  0.28920  Biso   1.000  C
  C34      1.0000 0.57890  0.20360  0.71080  Biso   1.000  C
  H23      1.0000 0.46130  0.87240  0.27680  Biso   1.000  H
  H24      1.0000 0.53870  0.12760  0.72320  Biso   1.000  H
  C35      1.0000 0.24520  0.60490  0.25360  Biso   1.000  C
  C36      1.0000 0.75480  0.39510  0.74640  Biso   1.000  C
  N1       1.0000 0.41650  0.63530  0.69610  Biso   1.000  N
  N2       1.0000 0.58350  0.36470  0.30390  Biso   1.000  N
  N3       1.0000 0.83110  0.62190  0.01750  Biso   1.000  N
  N4       1.0000 0.16890  0.37810  0.98250  Biso   1.000  N
  N5       1.0000 0.61000  0.23420  0.03560  Biso   1.000  N
  N6       1.0000 0.39000  0.76580  0.96440  Biso   1.000  N
  N7       1.0000 0.74530  0.51110  0.99890  Biso   1.000  N
  N8       1.0000 0.25470  0.48890  0.00110  Biso   1.000  N
  N9       1.0000 0.03110  0.53110  0.13830  Biso   1.000  N
  N10      1.0000 0.96890  0.46890  0.86170  Biso   1.000  N
  N11      1.0000 0.78710  0.68490  0.96640  Biso   1.000  N
  N12      1.0000 0.21290  0.31510  0.03360  Biso   1.000  N
  N13      1.0000 0.96130  0.34340  0.15180  Biso   1.000  N
  N14      1.0000 0.03870  0.65660  0.84820  Biso   1.000  N
  N15      1.0000 0.23300  0.88020  0.08990  Biso   1.000  N
  N16      1.0000 0.76700  0.11980  0.91010  Biso   1.000  N
  N17      1.0000 0.47690  0.76190  0.35980  Biso   1.000  N
  N18      1.0000 0.52310  0.23810  0.64020  Biso   1.000  N
  N19      1.0000 0.05760  0.90080  0.05010  Biso   1.000  N
  N20      1.0000 0.94240  0.09920  0.94990  Biso   1.000  N
  N21      1.0000 0.93230  0.42140  0.10970  Biso   1.000  N
  N22      1.0000 0.06770  0.57860  0.89030  Biso   1.000  N
  N23      1.0000 0.07820  0.40090  0.20980  Biso   1.000  N
  N24      1.0000 0.92180  0.59910  0.79020  Biso   1.000  N
  N25      1.0000 0.10840  0.83160  0.08230  Biso   1.000  N
  N26      1.0000 0.89160  0.16840  0.91770  Biso   1.000  N
  N27      1.0000 0.15290  0.00080  0.03550  Biso   1.000  N
  N28      1.0000 0.84710  0.99920  0.96450  Biso   1.000  N
  N29      1.0000 0.64380  0.49720  0.93300  Biso   1.000  N
  N30      1.0000 0.35620  0.50280  0.06700  Biso   1.000  N
  Mo1      1.0000 0.20866  0.19824  0.72908  Biso   1.000  Mo
  Mo2      1.0000 0.79134  0.80176  0.27092  Biso   1.000  Mo
  Mo3      1.0000 0.97564  0.91203  0.72939  Biso   1.000  Mo
  Mo4      1.0000 0.02436  0.08797  0.27061  Biso   1.000  Mo
  Mo5      1.0000 0.98504  0.27516  0.60168  Biso   1.000  Mo
  Mo6      1.0000 0.01496  0.72484  0.39832  Biso   1.000  Mo
  Mo7      1.0000 0.23239  0.92707  0.62419  Biso   1.000  Mo
  Mo8      1.0000 0.76761  0.07293  0.37581  Biso   1.000  Mo
  Mo9      1.0000 0.23983  0.28378  0.49904  Biso   1.000  Mo
  Mo10     1.0000 0.76017  0.71622  0.50096  Biso   1.000  Mo
  Mo11     1.0000 0.74805  0.99353  0.60829  Biso   1.000  Mo
  Mo12     1.0000 0.25195  0.00647  0.39171  Biso   1.000  Mo
  Cu1      1.0000 0.88012  0.86189  0.98740  Biso   1.000  Cu
  Cu2      1.0000 0.11988  0.13811  0.01260  Biso   1.000  Cu
  Cu3      1.0000 0.01326  0.66834  0.09655  Biso   1.000  Cu
  Cu4      1.0000 0.98674  0.33166  0.90345  Biso   1.000  Cu
  Cu5      1.0000 0.76438  0.37387  0.04526  Biso   1.000  Cu
  Cu6      1.0000 0.23562  0.62613  0.95474  Biso   1.000  Cu
  O45      1.0000 0.76690  0.39220  0.44490  Biso   1.000  O
  O46      1.0000 0.23310  0.60780  0.55510  Biso   1.000  O
