data_image0
_cell_length_a       10.9722
_cell_length_b       21.5961
_cell_length_c       28.0216
_cell_angle_alpha    90
_cell_angle_beta     90
_cell_angle_gamma    90

_symmetry_space_group_name_H-M    "P 1"
_symmetry_int_tables_number       1

loop_
  _symmetry_equiv_pos_as_xyz
  'x, y, z'

loop_
  _atom_site_label
  _atom_site_occupancy
  _atom_site_fract_x
  _atom_site_fract_y
  _atom_site_fract_z
  _atom_site_thermal_displace_type
  _atom_site_B_iso_or_equiv
  _atom_site_type_symbol
  C1       1.0000 0.67600  0.56610  0.19050  Biso   1.000  C
  C2       1.0000 0.67600  0.93390  0.80950  Biso   1.000  C
  C3       1.0000 0.32400  0.56610  0.30950  Biso   1.000  C
  C4       1.0000 0.32400  0.93390  0.69050  Biso   1.000  C
  C5       1.0000 0.32400  0.43390  0.80950  Biso   1.000  C
  C6       1.0000 0.32400  0.06610  0.19050  Biso   1.000  C
  C7       1.0000 0.67600  0.43390  0.69050  Biso   1.000  C
  C8       1.0000 0.67600  0.06610  0.30950  Biso   1.000  C
  H1       1.0000 0.68050  0.58170  0.15970  Biso   1.000  H
  H2       1.0000 0.68050  0.91830  0.84030  Biso   1.000  H
  H3       1.0000 0.31950  0.58170  0.34030  Biso   1.000  H
  H4       1.0000 0.31950  0.91830  0.65970  Biso   1.000  H
  H5       1.0000 0.31950  0.41830  0.84030  Biso   1.000  H
  H6       1.0000 0.31950  0.08170  0.15970  Biso   1.000  H
  H7       1.0000 0.68050  0.41830  0.65970  Biso   1.000  H
  H8       1.0000 0.68050  0.08170  0.34030  Biso   1.000  H
  C9       1.0000 0.67900  0.50270  0.19760  Biso   1.000  C
  C10      1.0000 0.67900  0.99730  0.80240  Biso   1.000  C
  C11      1.0000 0.32100  0.50270  0.30240  Biso   1.000  C
  C12      1.0000 0.32100  0.99730  0.69760  Biso   1.000  C
  C13      1.0000 0.32100  0.49730  0.80240  Biso   1.000  C
  C14      1.0000 0.32100  0.00270  0.19760  Biso   1.000  C
  C15      1.0000 0.67900  0.49730  0.69760  Biso   1.000  C
  C16      1.0000 0.67900  0.00270  0.30240  Biso   1.000  C
  H9       1.0000 0.69280  0.47750  0.17110  Biso   1.000  H
  H10      1.0000 0.69280  0.02250  0.82890  Biso   1.000  H
  H11      1.0000 0.30720  0.47750  0.32890  Biso   1.000  H
  H12      1.0000 0.30720  0.02250  0.67110  Biso   1.000  H
  H13      1.0000 0.30720  0.52250  0.82890  Biso   1.000  H
  H14      1.0000 0.30720  0.97750  0.17110  Biso   1.000  H
  H15      1.0000 0.69280  0.52250  0.67110  Biso   1.000  H
  H16      1.0000 0.69280  0.97750  0.32890  Biso   1.000  H
  C17      1.0000 0.66400  0.47540  0.24000  Biso   1.000  C
  C18      1.0000 0.66400  0.02460  0.76000  Biso   1.000  C
  C19      1.0000 0.33600  0.47540  0.26000  Biso   1.000  C
  C20      1.0000 0.33600  0.02460  0.74000  Biso   1.000  C
  C21      1.0000 0.33600  0.52460  0.76000  Biso   1.000  C
  C22      1.0000 0.33600  0.97540  0.24000  Biso   1.000  C
  C23      1.0000 0.66400  0.52460  0.74000  Biso   1.000  C
  C24      1.0000 0.66400  0.97540  0.26000  Biso   1.000  C
  C25      1.0000 0.65700  0.51670  0.27680  Biso   1.000  C
  C26      1.0000 0.65700  0.98330  0.72320  Biso   1.000  C
  C27      1.0000 0.34300  0.51670  0.22320  Biso   1.000  C
  C28      1.0000 0.34300  0.98330  0.77680  Biso   1.000  C
  C29      1.0000 0.34300  0.48330  0.72320  Biso   1.000  C
  C30      1.0000 0.34300  0.01670  0.27680  Biso   1.000  C
  C31      1.0000 0.65700  0.48330  0.77680  Biso   1.000  C
  C32      1.0000 0.65700  0.01670  0.22320  Biso   1.000  C
  H17      1.0000 0.65250  0.50150  0.30780  Biso   1.000  H
  H18      1.0000 0.65250  0.99850  0.69220  Biso   1.000  H
  H19      1.0000 0.34750  0.50150  0.19220  Biso   1.000  H
  H20      1.0000 0.34750  0.99850  0.80780  Biso   1.000  H
  H21      1.0000 0.34750  0.49850  0.69220  Biso   1.000  H
  H22      1.0000 0.34750  0.00150  0.30780  Biso   1.000  H
  H23      1.0000 0.65250  0.49850  0.80780  Biso   1.000  H
  H24      1.0000 0.65250  0.00150  0.19220  Biso   1.000  H
  C33      1.0000 0.65600  0.57940  0.27000  Biso   1.000  C
  C34      1.0000 0.65600  0.92060  0.73000  Biso   1.000  C
  C35      1.0000 0.34400  0.57940  0.23000  Biso   1.000  C
  C36      1.0000 0.34400  0.92060  0.77000  Biso   1.000  C
  C37      1.0000 0.34400  0.42060  0.73000  Biso   1.000  C
  C38      1.0000 0.34400  0.07940  0.27000  Biso   1.000  C
  C39      1.0000 0.65600  0.42060  0.77000  Biso   1.000  C
  C40      1.0000 0.65600  0.07940  0.23000  Biso   1.000  C
  H25      1.0000 0.64700  0.60510  0.29640  Biso   1.000  H
  H26      1.0000 0.64700  0.89490  0.70360  Biso   1.000  H
  H27      1.0000 0.35300  0.60510  0.20360  Biso   1.000  H
  H28      1.0000 0.35300  0.89490  0.79640  Biso   1.000  H
  H29      1.0000 0.35300  0.39490  0.70360  Biso   1.000  H
  H30      1.0000 0.35300  0.10510  0.29640  Biso   1.000  H
  H31      1.0000 0.64700  0.39490  0.79640  Biso   1.000  H
  H32      1.0000 0.64700  0.10510  0.20360  Biso   1.000  H
  C41      1.0000 0.63800  0.30340  0.22220  Biso   1.000  C
  C42      1.0000 0.63800  0.19660  0.77780  Biso   1.000  C
  C43      1.0000 0.36200  0.30340  0.27780  Biso   1.000  C
  C44      1.0000 0.36200  0.19660  0.72220  Biso   1.000  C
  C45      1.0000 0.36200  0.69660  0.77780  Biso   1.000  C
  C46      1.0000 0.36200  0.80340  0.22220  Biso   1.000  C
  C47      1.0000 0.63800  0.69660  0.72220  Biso   1.000  C
  C48      1.0000 0.63800  0.80340  0.27780  Biso   1.000  C
  H33      1.0000 0.61910  0.27630  0.19740  Biso   1.000  H
  H34      1.0000 0.61910  0.22370  0.80260  Biso   1.000  H
  H35      1.0000 0.38090  0.27630  0.30260  Biso   1.000  H
  H36      1.0000 0.38090  0.22370  0.69740  Biso   1.000  H
  H37      1.0000 0.38090  0.72370  0.80260  Biso   1.000  H
  H38      1.0000 0.38090  0.77630  0.19740  Biso   1.000  H
  H39      1.0000 0.61910  0.72370  0.69740  Biso   1.000  H
  H40      1.0000 0.61910  0.77630  0.30260  Biso   1.000  H
  C49      1.0000 0.63900  0.36580  0.21200  Biso   1.000  C
  C50      1.0000 0.63900  0.13420  0.78800  Biso   1.000  C
  C51      1.0000 0.36100  0.36580  0.28800  Biso   1.000  C
  C52      1.0000 0.36100  0.13420  0.71200  Biso   1.000  C
  C53      1.0000 0.36100  0.63420  0.78800  Biso   1.000  C
  C54      1.0000 0.36100  0.86580  0.21200  Biso   1.000  C
  C55      1.0000 0.63900  0.63420  0.71200  Biso   1.000  C
  C56      1.0000 0.63900  0.86580  0.28800  Biso   1.000  C
  H41      1.0000 0.62130  0.37950  0.18130  Biso   1.000  H
  H42      1.0000 0.62130  0.12050  0.81870  Biso   1.000  H
  H43      1.0000 0.37870  0.37950  0.31870  Biso   1.000  H
  H44      1.0000 0.37870  0.12050  0.68130  Biso   1.000  H
  H45      1.0000 0.37870  0.62050  0.81870  Biso   1.000  H
  H46      1.0000 0.37870  0.87950  0.18130  Biso   1.000  H
  H47      1.0000 0.62130  0.62050  0.68130  Biso   1.000  H
  H48      1.0000 0.62130  0.87950  0.31870  Biso   1.000  H
  C57      1.0000 0.66560  0.40720  0.24680  Biso   1.000  C
  C58      1.0000 0.66560  0.09280  0.75320  Biso   1.000  C
  C59      1.0000 0.33440  0.40720  0.25320  Biso   1.000  C
  C60      1.0000 0.33440  0.09280  0.74680  Biso   1.000  C
  C61      1.0000 0.33440  0.59280  0.75320  Biso   1.000  C
  C62      1.0000 0.33440  0.90720  0.24680  Biso   1.000  C
  C63      1.0000 0.66560  0.59280  0.74680  Biso   1.000  C
  C64      1.0000 0.66560  0.90720  0.25320  Biso   1.000  C
  C65      1.0000 0.69500  0.38280  0.29310  Biso   1.000  C
  C66      1.0000 0.69500  0.11720  0.70690  Biso   1.000  C
  C67      1.0000 0.30500  0.38280  0.20690  Biso   1.000  C
  C68      1.0000 0.30500  0.11720  0.79310  Biso   1.000  C
  C69      1.0000 0.30500  0.61720  0.70690  Biso   1.000  C
  C70      1.0000 0.30500  0.88280  0.29310  Biso   1.000  C
  C71      1.0000 0.69500  0.61720  0.79310  Biso   1.000  C
  C72      1.0000 0.69500  0.88280  0.20690  Biso   1.000  C
  H49      1.0000 0.71390  0.40940  0.31810  Biso   1.000  H
  H50      1.0000 0.71390  0.09060  0.68190  Biso   1.000  H
  H51      1.0000 0.28610  0.40940  0.18190  Biso   1.000  H
  H52      1.0000 0.28610  0.09060  0.81810  Biso   1.000  H
  H53      1.0000 0.28610  0.59060  0.68190  Biso   1.000  H
  H54      1.0000 0.28610  0.90940  0.31810  Biso   1.000  H
  H55      1.0000 0.71390  0.59060  0.81810  Biso   1.000  H
  H56      1.0000 0.71390  0.90940  0.18190  Biso   1.000  H
  C73      1.0000 0.69500  0.31860  0.30020  Biso   1.000  C
  C74      1.0000 0.69500  0.18140  0.69980  Biso   1.000  C
  C75      1.0000 0.30500  0.31860  0.19980  Biso   1.000  C
  C76      1.0000 0.30500  0.18140  0.80020  Biso   1.000  C
  C77      1.0000 0.30500  0.68140  0.69980  Biso   1.000  C
  C78      1.0000 0.30500  0.81860  0.30020  Biso   1.000  C
  C79      1.0000 0.69500  0.68140  0.80020  Biso   1.000  C
  C80      1.0000 0.69500  0.81860  0.19980  Biso   1.000  C
  H57      1.0000 0.71840  0.30310  0.32980  Biso   1.000  H
  H58      1.0000 0.71840  0.19690  0.67020  Biso   1.000  H
  H59      1.0000 0.28160  0.30310  0.17020  Biso   1.000  H
  H60      1.0000 0.28160  0.19690  0.82980  Biso   1.000  H
  H61      1.0000 0.28160  0.69690  0.67020  Biso   1.000  H
  H62      1.0000 0.28160  0.80310  0.32980  Biso   1.000  H
  H63      1.0000 0.71840  0.69690  0.82980  Biso   1.000  H
  H64      1.0000 0.71840  0.80310  0.17020  Biso   1.000  H
  C81      1.0000 0.03800  0.79070  0.21290  Biso   1.000  C
  C82      1.0000 0.03800  0.70930  0.78710  Biso   1.000  C
  C83      1.0000 0.96200  0.79070  0.28710  Biso   1.000  C
  C84      1.0000 0.96200  0.70930  0.71290  Biso   1.000  C
  C85      1.0000 0.96200  0.20930  0.78710  Biso   1.000  C
  C86      1.0000 0.96200  0.29070  0.21290  Biso   1.000  C
  C87      1.0000 0.03800  0.20930  0.71290  Biso   1.000  C
  C88      1.0000 0.03800  0.29070  0.28710  Biso   1.000  C
  H65      1.0000 0.06540  0.76940  0.18610  Biso   1.000  H
  H66      1.0000 0.06540  0.73060  0.81390  Biso   1.000  H
  H67      1.0000 0.93460  0.76940  0.31390  Biso   1.000  H
  H68      1.0000 0.93460  0.73060  0.68610  Biso   1.000  H
  H69      1.0000 0.93460  0.23060  0.81390  Biso   1.000  H
  H70      1.0000 0.93460  0.26940  0.18610  Biso   1.000  H
  H71      1.0000 0.06540  0.23060  0.68610  Biso   1.000  H
  H72      1.0000 0.06540  0.26940  0.31390  Biso   1.000  H
  C89      1.0000 0.04200  0.85240  0.21130  Biso   1.000  C
  C90      1.0000 0.04200  0.64760  0.78870  Biso   1.000  C
  C91      1.0000 0.95800  0.85240  0.28870  Biso   1.000  C
  C92      1.0000 0.95800  0.64760  0.71130  Biso   1.000  C
  C93      1.0000 0.95800  0.14760  0.78870  Biso   1.000  C
  C94      1.0000 0.95800  0.35240  0.21130  Biso   1.000  C
  C95      1.0000 0.04200  0.14760  0.71130  Biso   1.000  C
  C96      1.0000 0.04200  0.35240  0.28870  Biso   1.000  C
  H73      1.0000 0.07110  0.87290  0.18450  Biso   1.000  H
  H74      1.0000 0.07110  0.62710  0.81550  Biso   1.000  H
  H75      1.0000 0.92890  0.87290  0.31550  Biso   1.000  H
  H76      1.0000 0.92890  0.62710  0.68450  Biso   1.000  H
  H77      1.0000 0.92890  0.12710  0.81550  Biso   1.000  H
  H78      1.0000 0.92890  0.37290  0.18450  Biso   1.000  H
  H79      1.0000 0.07110  0.12710  0.68450  Biso   1.000  H
  H80      1.0000 0.07110  0.37290  0.31550  Biso   1.000  H
  C97      1.0000 0.00000  0.88460  0.25000  Biso   1.000  C
  C98      1.0000 0.00000  0.61540  0.75000  Biso   1.000  C
  C99      1.0000 0.00000  0.11540  0.75000  Biso   1.000  C
  C100     1.0000 0.00000  0.38460  0.25000  Biso   1.000  C
  C101     1.0000 0.00000  0.95300  0.25000  Biso   1.000  C
  C102     1.0000 0.00000  0.54700  0.75000  Biso   1.000  C
  C103     1.0000 0.00000  0.04700  0.75000  Biso   1.000  C
  C104     1.0000 0.00000  0.45300  0.25000  Biso   1.000  C
  C105     1.0000 0.98700  0.98830  0.20850  Biso   1.000  C
  C106     1.0000 0.98700  0.51170  0.79150  Biso   1.000  C
  C107     1.0000 0.01300  0.98830  0.29150  Biso   1.000  C
  C108     1.0000 0.01300  0.51170  0.70850  Biso   1.000  C
  C109     1.0000 0.01300  0.01170  0.79150  Biso   1.000  C
  C110     1.0000 0.01300  0.48830  0.20850  Biso   1.000  C
  C111     1.0000 0.98700  0.01170  0.70850  Biso   1.000  C
  C112     1.0000 0.98700  0.48830  0.29150  Biso   1.000  C
  H81      1.0000 0.97800  0.96770  0.17960  Biso   1.000  H
  H82      1.0000 0.97800  0.53230  0.82040  Biso   1.000  H
  H83      1.0000 0.02200  0.96770  0.32040  Biso   1.000  H
  H84      1.0000 0.02200  0.53230  0.67960  Biso   1.000  H
  H85      1.0000 0.02200  0.03230  0.82040  Biso   1.000  H
  H86      1.0000 0.02200  0.46770  0.17960  Biso   1.000  H
  H87      1.0000 0.97800  0.03230  0.67960  Biso   1.000  H
  H88      1.0000 0.97800  0.46770  0.32040  Biso   1.000  H
  C113     1.0000 0.98600  0.05230  0.20840  Biso   1.000  C
  C114     1.0000 0.98600  0.44770  0.79160  Biso   1.000  C
  C115     1.0000 0.01400  0.05230  0.29160  Biso   1.000  C
  C116     1.0000 0.01400  0.44770  0.70840  Biso   1.000  C
  C117     1.0000 0.01400  0.94770  0.79160  Biso   1.000  C
  C118     1.0000 0.01400  0.55230  0.20840  Biso   1.000  C
  C119     1.0000 0.98600  0.94770  0.70840  Biso   1.000  C
  C120     1.0000 0.98600  0.55230  0.29160  Biso   1.000  C
  H89      1.0000 0.97660  0.07350  0.17970  Biso   1.000  H
  H90      1.0000 0.97660  0.42650  0.82030  Biso   1.000  H
  H91      1.0000 0.02340  0.07350  0.32030  Biso   1.000  H
  H92      1.0000 0.02340  0.42650  0.67970  Biso   1.000  H
  H93      1.0000 0.02340  0.92650  0.82030  Biso   1.000  H
  H94      1.0000 0.02340  0.57350  0.17970  Biso   1.000  H
  H95      1.0000 0.97660  0.92650  0.67970  Biso   1.000  H
  H96      1.0000 0.97660  0.57350  0.32030  Biso   1.000  H
  Cu1      1.0000 0.66710  0.69253  0.22349  Biso   1.000  Cu
  Cu2      1.0000 0.66710  0.80747  0.77651  Biso   1.000  Cu
  Cu3      1.0000 0.33290  0.69253  0.27651  Biso   1.000  Cu
  Cu4      1.0000 0.33290  0.80747  0.72349  Biso   1.000  Cu
  Cu5      1.0000 0.33290  0.30747  0.77651  Biso   1.000  Cu
  Cu6      1.0000 0.33290  0.19253  0.22349  Biso   1.000  Cu
  Cu7      1.0000 0.66710  0.30747  0.72349  Biso   1.000  Cu
  Cu8      1.0000 0.66710  0.19253  0.27651  Biso   1.000  Cu
  Cu9      1.0000 0.00000  0.67120  0.25000  Biso   1.000  Cu
  Cu10     1.0000 0.00000  0.82880  0.75000  Biso   1.000  Cu
  Cu11     1.0000 0.00000  0.32880  0.75000  Biso   1.000  Cu
  Cu12     1.0000 0.00000  0.17120  0.25000  Biso   1.000  Cu
  N1       1.0000 0.66800  0.60500  0.22720  Biso   1.000  N
  N2       1.0000 0.66800  0.89500  0.77280  Biso   1.000  N
  N3       1.0000 0.33200  0.60500  0.27280  Biso   1.000  N
  N4       1.0000 0.33200  0.89500  0.72720  Biso   1.000  N
  N5       1.0000 0.33200  0.39500  0.77280  Biso   1.000  N
  N6       1.0000 0.33200  0.10500  0.22720  Biso   1.000  N
  N7       1.0000 0.66800  0.39500  0.72720  Biso   1.000  N
  N8       1.0000 0.66800  0.10500  0.27280  Biso   1.000  N
  N9       1.0000 0.66200  0.27830  0.26560  Biso   1.000  N
  N10      1.0000 0.66200  0.22170  0.73440  Biso   1.000  N
  N11      1.0000 0.33800  0.27830  0.23440  Biso   1.000  N
  N12      1.0000 0.33800  0.22170  0.76560  Biso   1.000  N
  N13      1.0000 0.33800  0.72170  0.73440  Biso   1.000  N
  N14      1.0000 0.33800  0.77830  0.26560  Biso   1.000  N
  N15      1.0000 0.66200  0.72170  0.76560  Biso   1.000  N
  N16      1.0000 0.66200  0.77830  0.23440  Biso   1.000  N
  N17      1.0000 0.00000  0.75700  0.25000  Biso   1.000  N
  N18      1.0000 0.00000  0.74300  0.75000  Biso   1.000  N
  N19      1.0000 0.00000  0.24300  0.75000  Biso   1.000  N
  N20      1.0000 0.00000  0.25700  0.25000  Biso   1.000  N
  N21      1.0000 0.00000  0.08490  0.25000  Biso   1.000  N
  N22      1.0000 0.00000  0.41510  0.75000  Biso   1.000  N
  N23      1.0000 0.00000  0.91510  0.75000  Biso   1.000  N
  N24      1.0000 0.00000  0.58490  0.25000  Biso   1.000  N
  O1       1.0000 0.19700  0.75000  0.00000  Biso   1.000  O
  O2       1.0000 0.80300  0.75000  0.50000  Biso   1.000  O
  O3       1.0000 0.80300  0.25000  0.00000  Biso   1.000  O
  O4       1.0000 0.19700  0.25000  0.50000  Biso   1.000  O
  O5       1.0000 0.45310  0.58930  0.89540  Biso   1.000  O
  O6       1.0000 0.45310  0.91070  0.10460  Biso   1.000  O
  O7       1.0000 0.54690  0.58930  0.60460  Biso   1.000  O
  O8       1.0000 0.54690  0.91070  0.39540  Biso   1.000  O
  O9       1.0000 0.54690  0.41070  0.10460  Biso   1.000  O
  O10      1.0000 0.54690  0.08930  0.89540  Biso   1.000  O
  O11      1.0000 0.45310  0.41070  0.39540  Biso   1.000  O
  O12      1.0000 0.45310  0.08930  0.60460  Biso   1.000  O
  O13      1.0000 0.45100  0.67800  0.15050  Biso   1.000  O
  O14      1.0000 0.45100  0.82200  0.84950  Biso   1.000  O
  O15      1.0000 0.54900  0.67800  0.34950  Biso   1.000  O
  O16      1.0000 0.54900  0.82200  0.65050  Biso   1.000  O
  O17      1.0000 0.54900  0.32200  0.84950  Biso   1.000  O
  O18      1.0000 0.54900  0.17800  0.15050  Biso   1.000  O
  O19      1.0000 0.45100  0.32200  0.65050  Biso   1.000  O
  O20      1.0000 0.45100  0.17800  0.34950  Biso   1.000  O
  O21      1.0000 0.68600  0.51620  0.04520  Biso   1.000  O
  O22      1.0000 0.68600  0.98380  0.95480  Biso   1.000  O
  O23      1.0000 0.31400  0.51620  0.45480  Biso   1.000  O
  O24      1.0000 0.31400  0.98380  0.54520  Biso   1.000  O
  O25      1.0000 0.31400  0.48380  0.95480  Biso   1.000  O
  O26      1.0000 0.31400  0.01620  0.04520  Biso   1.000  O
  O27      1.0000 0.68600  0.48380  0.54520  Biso   1.000  O
  O28      1.0000 0.68600  0.01620  0.45480  Biso   1.000  O
  O29      1.0000 0.92400  0.59150  0.89660  Biso   1.000  O
  O30      1.0000 0.92400  0.90850  0.10340  Biso   1.000  O
  O31      1.0000 0.07600  0.59150  0.60340  Biso   1.000  O
  O32      1.0000 0.07600  0.90850  0.39660  Biso   1.000  O
  O33      1.0000 0.07600  0.40850  0.10340  Biso   1.000  O
  O34      1.0000 0.07600  0.09150  0.89660  Biso   1.000  O
  O35      1.0000 0.92400  0.40850  0.39660  Biso   1.000  O
  O36      1.0000 0.92400  0.09150  0.60340  Biso   1.000  O
  O37      1.0000 0.92600  0.82450  0.84860  Biso   1.000  O
  O38      1.0000 0.92600  0.67550  0.15140  Biso   1.000  O
  O39      1.0000 0.07400  0.82450  0.65140  Biso   1.000  O
  O40      1.0000 0.07400  0.67550  0.34860  Biso   1.000  O
  O41      1.0000 0.07400  0.17550  0.15140  Biso   1.000  O
  O42      1.0000 0.07400  0.32450  0.84860  Biso   1.000  O
  O43      1.0000 0.92600  0.17550  0.34860  Biso   1.000  O
  O44      1.0000 0.92600  0.32450  0.65140  Biso   1.000  O
  O45      1.0000 0.39500  0.67430  0.96340  Biso   1.000  O
  O46      1.0000 0.39500  0.82570  0.03660  Biso   1.000  O
  O47      1.0000 0.60500  0.67430  0.53660  Biso   1.000  O
  O48      1.0000 0.60500  0.82570  0.46340  Biso   1.000  O
  O49      1.0000 0.60500  0.32570  0.03660  Biso   1.000  O
  O50      1.0000 0.60500  0.17430  0.96340  Biso   1.000  O
  O51      1.0000 0.39500  0.32570  0.46340  Biso   1.000  O
  O52      1.0000 0.39500  0.17430  0.53660  Biso   1.000  O
  O53      1.0000 0.53100  0.71290  0.89130  Biso   1.000  O
  O54      1.0000 0.53100  0.78710  0.10870  Biso   1.000  O
  O55      1.0000 0.46900  0.71290  0.60870  Biso   1.000  O
  O56      1.0000 0.46900  0.78710  0.39130  Biso   1.000  O
  O57      1.0000 0.46900  0.28710  0.10870  Biso   1.000  O
  O58      1.0000 0.46900  0.21290  0.89130  Biso   1.000  O
  O59      1.0000 0.53100  0.28710  0.39130  Biso   1.000  O
  O60      1.0000 0.53100  0.21290  0.60870  Biso   1.000  O
  O61      1.0000 0.39600  0.70580  0.05800  Biso   1.000  O
  O62      1.0000 0.39600  0.79420  0.94200  Biso   1.000  O
  O63      1.0000 0.60400  0.70580  0.44200  Biso   1.000  O
  O64      1.0000 0.60400  0.79420  0.55800  Biso   1.000  O
  O65      1.0000 0.60400  0.29420  0.94200  Biso   1.000  O
  O66      1.0000 0.60400  0.20580  0.05800  Biso   1.000  O
  O67      1.0000 0.39600  0.29420  0.55800  Biso   1.000  O
  O68      1.0000 0.39600  0.20580  0.44200  Biso   1.000  O
  O69      1.0000 0.57070  0.59280  0.98350  Biso   1.000  O
  O70      1.0000 0.57070  0.90720  0.01650  Biso   1.000  O
  O71      1.0000 0.42930  0.59280  0.51650  Biso   1.000  O
  O72      1.0000 0.42930  0.90720  0.48350  Biso   1.000  O
  O73      1.0000 0.42930  0.40720  0.01650  Biso   1.000  O
  O74      1.0000 0.42930  0.09280  0.98350  Biso   1.000  O
  O75      1.0000 0.57070  0.40720  0.48350  Biso   1.000  O
  O76      1.0000 0.57070  0.09280  0.51650  Biso   1.000  O
  O77      1.0000 0.68800  0.62860  0.90760  Biso   1.000  O
  O78      1.0000 0.68800  0.87140  0.09240  Biso   1.000  O
  O79      1.0000 0.31200  0.62860  0.59240  Biso   1.000  O
  O80      1.0000 0.31200  0.87140  0.40760  Biso   1.000  O
  O81      1.0000 0.31200  0.37140  0.09240  Biso   1.000  O
  O82      1.0000 0.31200  0.12860  0.90760  Biso   1.000  O
  O83      1.0000 0.68800  0.37140  0.40760  Biso   1.000  O
  O84      1.0000 0.68800  0.12860  0.59240  Biso   1.000  O
  O85      1.0000 0.56470  0.62180  0.07550  Biso   1.000  O
  O86      1.0000 0.56470  0.87820  0.92450  Biso   1.000  O
  O87      1.0000 0.43530  0.62180  0.42450  Biso   1.000  O
  O88      1.0000 0.43530  0.87820  0.57550  Biso   1.000  O
  O89      1.0000 0.43530  0.37820  0.92450  Biso   1.000  O
  O90      1.0000 0.43530  0.12180  0.07550  Biso   1.000  O
  O91      1.0000 0.56470  0.37820  0.57550  Biso   1.000  O
  O92      1.0000 0.56470  0.12180  0.42450  Biso   1.000  O
  O93      1.0000 0.80800  0.59500  0.98360  Biso   1.000  O
  O94      1.0000 0.80800  0.90500  0.01640  Biso   1.000  O
  O95      1.0000 0.19200  0.59500  0.51640  Biso   1.000  O
  O96      1.0000 0.19200  0.90500  0.48360  Biso   1.000  O
  O97      1.0000 0.19200  0.40500  0.01640  Biso   1.000  O
  O98      1.0000 0.19200  0.09500  0.98360  Biso   1.000  O
  O99      1.0000 0.80800  0.40500  0.48360  Biso   1.000  O
  O100     1.0000 0.80800  0.09500  0.51640  Biso   1.000  O
  O101     1.0000 0.68800  0.70260  0.12600  Biso   1.000  O
  O102     1.0000 0.68800  0.79740  0.87400  Biso   1.000  O
  O103     1.0000 0.31200  0.70260  0.37400  Biso   1.000  O
  O104     1.0000 0.31200  0.79740  0.62600  Biso   1.000  O
  O105     1.0000 0.31200  0.29740  0.87400  Biso   1.000  O
  O106     1.0000 0.31200  0.20260  0.12600  Biso   1.000  O
  O107     1.0000 0.68800  0.29740  0.62600  Biso   1.000  O
  O108     1.0000 0.68800  0.20260  0.37400  Biso   1.000  O
  O109     1.0000 0.80900  0.62270  0.07490  Biso   1.000  O
  O110     1.0000 0.80900  0.87730  0.92510  Biso   1.000  O
  O111     1.0000 0.19100  0.62270  0.42510  Biso   1.000  O
  O112     1.0000 0.19100  0.87730  0.57490  Biso   1.000  O
  O113     1.0000 0.19100  0.37730  0.92510  Biso   1.000  O
  O114     1.0000 0.19100  0.12270  0.07490  Biso   1.000  O
  O115     1.0000 0.80900  0.37730  0.57490  Biso   1.000  O
  O116     1.0000 0.80900  0.12270  0.42510  Biso   1.000  O
  O117     1.0000 0.98000  0.67460  0.96710  Biso   1.000  O
  O118     1.0000 0.98000  0.82540  0.03290  Biso   1.000  O
  O119     1.0000 0.02000  0.67460  0.53290  Biso   1.000  O
  O120     1.0000 0.02000  0.82540  0.46710  Biso   1.000  O
  O121     1.0000 0.02000  0.32540  0.03290  Biso   1.000  O
  O122     1.0000 0.02000  0.17460  0.96710  Biso   1.000  O
  O123     1.0000 0.98000  0.32540  0.46710  Biso   1.000  O
  O124     1.0000 0.98000  0.17460  0.53290  Biso   1.000  O
  O125     1.0000 0.85300  0.71300  0.89220  Biso   1.000  O
  O126     1.0000 0.85300  0.78700  0.10780  Biso   1.000  O
  O127     1.0000 0.14700  0.71300  0.60780  Biso   1.000  O
  O128     1.0000 0.14700  0.78700  0.39220  Biso   1.000  O
  O129     1.0000 0.14700  0.28700  0.10780  Biso   1.000  O
  O130     1.0000 0.14700  0.21300  0.89220  Biso   1.000  O
  O131     1.0000 0.85300  0.28700  0.39220  Biso   1.000  O
  O132     1.0000 0.85300  0.21300  0.60780  Biso   1.000  O
  O133     1.0000 0.98500  0.79490  0.94000  Biso   1.000  O
  O134     1.0000 0.98500  0.70510  0.06000  Biso   1.000  O
  O135     1.0000 0.01500  0.79490  0.56000  Biso   1.000  O
  O136     1.0000 0.01500  0.70510  0.44000  Biso   1.000  O
  O137     1.0000 0.01500  0.20510  0.06000  Biso   1.000  O
  O138     1.0000 0.01500  0.29490  0.94000  Biso   1.000  O
  O139     1.0000 0.98500  0.20510  0.44000  Biso   1.000  O
  O140     1.0000 0.98500  0.29490  0.56000  Biso   1.000  O
  O141     1.0000 0.69100  0.67830  0.98040  Biso   1.000  O
  O142     1.0000 0.69100  0.82170  0.01960  Biso   1.000  O
  O143     1.0000 0.30900  0.67830  0.51960  Biso   1.000  O
  O144     1.0000 0.30900  0.82170  0.48040  Biso   1.000  O
  O145     1.0000 0.30900  0.32170  0.01960  Biso   1.000  O
  O146     1.0000 0.30900  0.17830  0.98040  Biso   1.000  O
  O147     1.0000 0.69100  0.32170  0.48040  Biso   1.000  O
  O148     1.0000 0.69100  0.17830  0.51960  Biso   1.000  O
  O149     1.0000 0.57000  0.73950  0.96280  Biso   1.000  O
  O150     1.0000 0.57000  0.76050  0.03720  Biso   1.000  O
  O151     1.0000 0.43000  0.73950  0.53720  Biso   1.000  O
  O152     1.0000 0.43000  0.76050  0.46280  Biso   1.000  O
  O153     1.0000 0.43000  0.26050  0.03720  Biso   1.000  O
  O154     1.0000 0.43000  0.23950  0.96280  Biso   1.000  O
  O155     1.0000 0.57000  0.26050  0.46280  Biso   1.000  O
  O156     1.0000 0.57000  0.23950  0.53720  Biso   1.000  O
  O157     1.0000 0.68600  0.70400  0.04230  Biso   1.000  O
  O158     1.0000 0.68600  0.79600  0.95770  Biso   1.000  O
  O159     1.0000 0.31400  0.70400  0.45770  Biso   1.000  O
  O160     1.0000 0.31400  0.79600  0.54230  Biso   1.000  O
  O161     1.0000 0.31400  0.29600  0.95770  Biso   1.000  O
  O162     1.0000 0.31400  0.20400  0.04230  Biso   1.000  O
  O163     1.0000 0.68600  0.29600  0.54230  Biso   1.000  O
  O164     1.0000 0.68600  0.20400  0.45770  Biso   1.000  O
  O165     1.0000 0.81100  0.73990  0.96550  Biso   1.000  O
  O166     1.0000 0.81100  0.76010  0.03450  Biso   1.000  O
  O167     1.0000 0.18900  0.73990  0.53450  Biso   1.000  O
  O168     1.0000 0.18900  0.76010  0.46550  Biso   1.000  O
  O169     1.0000 0.18900  0.26010  0.03450  Biso   1.000  O
  O170     1.0000 0.18900  0.23990  0.96550  Biso   1.000  O
  O171     1.0000 0.81100  0.26010  0.46550  Biso   1.000  O
  O172     1.0000 0.81100  0.23990  0.53450  Biso   1.000  O
  O173     1.0000 0.38000  0.52300  0.10340  Biso   1.000  O
  O174     1.0000 0.38000  0.97700  0.89660  Biso   1.000  O
  O175     1.0000 0.62000  0.52300  0.39660  Biso   1.000  O
  O176     1.0000 0.62000  0.97700  0.60340  Biso   1.000  O
  O177     1.0000 0.62000  0.47700  0.89660  Biso   1.000  O
  O178     1.0000 0.62000  0.02300  0.10340  Biso   1.000  O
  O179     1.0000 0.38000  0.47700  0.60340  Biso   1.000  O
  O180     1.0000 0.38000  0.02300  0.39660  Biso   1.000  O
  O181     1.0000 0.18800  0.65700  0.12490  Biso   1.000  O
  O182     1.0000 0.18800  0.84300  0.87510  Biso   1.000  O
  O183     1.0000 0.81200  0.65700  0.37510  Biso   1.000  O
  O184     1.0000 0.81200  0.84300  0.62490  Biso   1.000  O
  O185     1.0000 0.81200  0.34300  0.87510  Biso   1.000  O
  O186     1.0000 0.81200  0.15700  0.12490  Biso   1.000  O
  O187     1.0000 0.18800  0.34300  0.62490  Biso   1.000  O
  O188     1.0000 0.18800  0.15700  0.37510  Biso   1.000  O
  O189     1.0000 0.19400  0.79700  0.11610  Biso   1.000  O
  O190     1.0000 0.19400  0.70300  0.88390  Biso   1.000  O
  O191     1.0000 0.80600  0.79700  0.38390  Biso   1.000  O
  O192     1.0000 0.80600  0.70300  0.61610  Biso   1.000  O
  O193     1.0000 0.80600  0.20300  0.88390  Biso   1.000  O
  O194     1.0000 0.80600  0.29700  0.11610  Biso   1.000  O
  O195     1.0000 0.19400  0.20300  0.61610  Biso   1.000  O
  O196     1.0000 0.19400  0.29700  0.38390  Biso   1.000  O
  O197     1.0000 0.18300  0.91200  0.09160  Biso   1.000  O
  O198     1.0000 0.18300  0.58800  0.90840  Biso   1.000  O
  O199     1.0000 0.81700  0.91200  0.40840  Biso   1.000  O
  O200     1.0000 0.81700  0.58800  0.59160  Biso   1.000  O
  O201     1.0000 0.81700  0.08800  0.90840  Biso   1.000  O
  O202     1.0000 0.81700  0.41200  0.09160  Biso   1.000  O
  O203     1.0000 0.18300  0.08800  0.59160  Biso   1.000  O
  O204     1.0000 0.18300  0.41200  0.40840  Biso   1.000  O
  O205     1.0000 0.88800  0.43300  0.99700  Biso   1.000  O
  O206     1.0000 0.88800  0.06700  0.00300  Biso   1.000  O
  O207     1.0000 0.11200  0.43300  0.50300  Biso   1.000  O
  O208     1.0000 0.11200  0.06700  0.49700  Biso   1.000  O
  O209     1.0000 0.11200  0.56700  0.00300  Biso   1.000  O
  O210     1.0000 0.11200  0.93300  0.99700  Biso   1.000  O
  O211     1.0000 0.88800  0.56700  0.49700  Biso   1.000  O
  O212     1.0000 0.88800  0.93300  0.50300  Biso   1.000  O
  Si1      1.0000 0.68710  0.75000  0.00000  Biso   1.000  Si
  Si2      1.0000 0.31290  0.75000  0.50000  Biso   1.000  Si
  Si3      1.0000 0.31290  0.25000  0.00000  Biso   1.000  Si
  Si4      1.0000 0.68710  0.25000  0.50000  Biso   1.000  Si
  Cu13     1.0000 0.37050  0.75000  0.00000  Biso   1.000  Cu
  Cu14     1.0000 0.62950  0.75000  0.50000  Biso   1.000  Cu
  Cu15     1.0000 0.62950  0.25000  0.00000  Biso   1.000  Cu
  Cu16     1.0000 0.37050  0.25000  0.50000  Biso   1.000  Cu
  W1       1.0000 0.52435  0.64309  0.93020  Biso   1.000  W
  W2       1.0000 0.52435  0.85691  0.06980  Biso   1.000  W
  W3       1.0000 0.47565  0.64309  0.56980  Biso   1.000  W
  W4       1.0000 0.47565  0.85691  0.43020  Biso   1.000  W
  W5       1.0000 0.47565  0.35691  0.06980  Biso   1.000  W
  W6       1.0000 0.47565  0.14309  0.93020  Biso   1.000  W
  W7       1.0000 0.52435  0.35691  0.43020  Biso   1.000  W
  W8       1.0000 0.52435  0.14309  0.56980  Biso   1.000  W
  W9       1.0000 0.52470  0.70100  0.10107  Biso   1.000  W
  W10      1.0000 0.52470  0.79900  0.89893  Biso   1.000  W
  W11      1.0000 0.47530  0.70100  0.39893  Biso   1.000  W
  W12      1.0000 0.47530  0.79900  0.60107  Biso   1.000  W
  W13      1.0000 0.47530  0.29900  0.89893  Biso   1.000  W
  W14      1.0000 0.47530  0.20100  0.10107  Biso   1.000  W
  W15      1.0000 0.52470  0.29900  0.60107  Biso   1.000  W
  W16      1.0000 0.52470  0.20100  0.39893  Biso   1.000  W
  W17      1.0000 0.68881  0.59256  0.03136  Biso   1.000  W
  W18      1.0000 0.68881  0.90744  0.96864  Biso   1.000  W
  W19      1.0000 0.31119  0.59256  0.46864  Biso   1.000  W
  W20      1.0000 0.31119  0.90744  0.53136  Biso   1.000  W
  W21      1.0000 0.31119  0.40744  0.96864  Biso   1.000  W
  W22      1.0000 0.31119  0.09256  0.03136  Biso   1.000  W
  W23      1.0000 0.68881  0.40744  0.53136  Biso   1.000  W
  W24      1.0000 0.68881  0.09256  0.46864  Biso   1.000  W
  W25      1.0000 0.85116  0.64285  0.92978  Biso   1.000  W
  W26      1.0000 0.85116  0.85715  0.07022  Biso   1.000  W
  W27      1.0000 0.14884  0.64285  0.57022  Biso   1.000  W
  W28      1.0000 0.14884  0.85715  0.42978  Biso   1.000  W
  W29      1.0000 0.14884  0.35715  0.07022  Biso   1.000  W
  W30      1.0000 0.14884  0.14285  0.92978  Biso   1.000  W
  W31      1.0000 0.85116  0.35715  0.42978  Biso   1.000  W
  W32      1.0000 0.85116  0.14285  0.57022  Biso   1.000  W
  W33      1.0000 0.85225  0.80021  0.89843  Biso   1.000  W
  W34      1.0000 0.85225  0.69979  0.10157  Biso   1.000  W
  W35      1.0000 0.14775  0.80021  0.60157  Biso   1.000  W
  W36      1.0000 0.14775  0.69979  0.39843  Biso   1.000  W
  W37      1.0000 0.14775  0.19979  0.10157  Biso   1.000  W
  W38      1.0000 0.14775  0.30021  0.89843  Biso   1.000  W
  W39      1.0000 0.85225  0.19979  0.39843  Biso   1.000  W
  W40      1.0000 0.85225  0.30021  0.60157  Biso   1.000  W
  W41      1.0000 0.00968  0.75000  0.00000  Biso   1.000  W
  W42      1.0000 0.99032  0.75000  0.50000  Biso   1.000  W
  W43      1.0000 0.99032  0.25000  0.00000  Biso   1.000  W
  W44      1.0000 0.00968  0.25000  0.50000  Biso   1.000  W
  K1       1.0000 0.33220  0.57720  0.03020  Biso   1.000  K
  K2       1.0000 0.33220  0.92280  0.96980  Biso   1.000  K
  K3       1.0000 0.66780  0.57720  0.46980  Biso   1.000  K
  K4       1.0000 0.66780  0.92280  0.53020  Biso   1.000  K
  K5       1.0000 0.66780  0.42280  0.96980  Biso   1.000  K
  K6       1.0000 0.66780  0.07720  0.03020  Biso   1.000  K
  K7       1.0000 0.33220  0.42280  0.53020  Biso   1.000  K
  K8       1.0000 0.33220  0.07720  0.46980  Biso   1.000  K
  O213     1.0000 0.02400  0.00930  0.05420  Biso   1.000  O
  O214     1.0000 0.02400  0.49070  0.94580  Biso   1.000  O
  O215     1.0000 0.97600  0.00930  0.44580  Biso   1.000  O
  O216     1.0000 0.97600  0.49070  0.55420  Biso   1.000  O
  O217     1.0000 0.97600  0.99070  0.94580  Biso   1.000  O
  O218     1.0000 0.97600  0.50930  0.05420  Biso   1.000  O
  O219     1.0000 0.02400  0.99070  0.55420  Biso   1.000  O
  O220     1.0000 0.02400  0.50930  0.44580  Biso   1.000  O
