data_image0
_cell_length_a       8.5922
_cell_length_b       9.1285
_cell_length_c       21.5629
_cell_angle_alpha    90
_cell_angle_beta     96.754
_cell_angle_gamma    90

_symmetry_space_group_name_H-M    "P 1"
_symmetry_int_tables_number       1

loop_
  _symmetry_equiv_pos_as_xyz
  'x, y, z'

loop_
  _atom_site_label
  _atom_site_occupancy
  _atom_site_fract_x
  _atom_site_fract_y
  _atom_site_fract_z
  _atom_site_thermal_displace_type
  _atom_site_B_iso_or_equiv
  _atom_site_type_symbol
  Cu1      1.0000 0.14206  0.42954  0.71506  Biso   1.000  Cu
  Cu2      1.0000 0.85794  0.92954  0.28494  Biso   1.000  Cu
  Cu3      1.0000 0.46250  0.57157  0.77959  Biso   1.000  Cu
  Cu4      1.0000 0.53750  0.07157  0.22041  Biso   1.000  Cu
  Cu5      1.0000 0.96151  0.58815  0.78775  Biso   1.000  Cu
  Cu6      1.0000 0.03849  0.08815  0.21225  Biso   1.000  Cu
  Cu7      1.0000 0.66577  0.42199  0.71635  Biso   1.000  Cu
  Cu8      1.0000 0.33423  0.92199  0.28365  Biso   1.000  Cu
  I1       1.0000 0.22291  0.45860  0.83671  Biso   1.000  I
  I2       1.0000 0.77709  0.95860  0.16329  Biso   1.000  I
  I3       1.0000 0.38662  0.51673  0.65893  Biso   1.000  I
  I4       1.0000 0.61338  0.01673  0.34107  Biso   1.000  I
  I5       1.0000 0.88480  0.57738  0.66655  Biso   1.000  I
  I6       1.0000 0.11520  0.07738  0.33345  Biso   1.000  I
  I7       1.0000 0.72270  0.46385  0.83810  Biso   1.000  I
  I8       1.0000 0.27730  0.96385  0.16190  Biso   1.000  I
  S1       1.0000 0.04440  0.19580  0.69520  Biso   1.000  S
  S2       1.0000 0.95560  0.69580  0.30480  Biso   1.000  S
  S3       1.0000 0.41690  0.81550  0.79653  Biso   1.000  S
  S4       1.0000 0.58310  0.31550  0.20347  Biso   1.000  S
  O1       1.0000 0.96090  0.80910  0.81260  Biso   1.000  O
  O2       1.0000 0.03910  0.30910  0.18740  Biso   1.000  O
  O3       1.0000 0.64730  0.19780  0.70280  Biso   1.000  O
  O4       1.0000 0.35270  0.69780  0.29720  Biso   1.000  O
  N1       1.0000 0.03340  0.01640  0.86680  Biso   1.000  N
  N2       1.0000 0.96660  0.51640  0.13320  Biso   1.000  N
  N3       1.0000 0.62730  0.98010  0.65010  Biso   1.000  N
  N4       1.0000 0.37270  0.48010  0.34990  Biso   1.000  N
  C1       1.0000 0.10610  0.20020  0.57530  Biso   1.000  C
  C2       1.0000 0.89390  0.70020  0.42470  Biso   1.000  C
  H1       1.0000 0.99140  0.20680  0.56360  Biso   1.000  H
  H2       1.0000 0.00860  0.70680  0.43640  Biso   1.000  H
  H3       1.0000 0.14670  0.30070  0.58350  Biso   1.000  H
  H4       1.0000 0.85330  0.80070  0.41650  Biso   1.000  H
  C3       1.0000 0.18120  0.13440  0.52190  Biso   1.000  C
  C4       1.0000 0.81880  0.63440  0.47810  Biso   1.000  C
  H5       1.0000 0.29650  0.13480  0.53230  Biso   1.000  H
  H6       1.0000 0.70350  0.63480  0.46770  Biso   1.000  H
  H7       1.0000 0.15510  0.19480  0.48400  Biso   1.000  H
  H8       1.0000 0.84490  0.69480  0.51600  Biso   1.000  H
  C5       1.0000 0.12530  0.97810  0.50870  Biso   1.000  C
  C6       1.0000 0.87470  0.47810  0.49130  Biso   1.000  C
  H9       1.0000 0.18080  0.93560  0.47520  Biso   1.000  H
  H10      1.0000 0.81920  0.43560  0.52480  Biso   1.000  H
  H11      1.0000 0.01160  0.97830  0.49410  Biso   1.000  H
  H12      1.0000 0.98840  0.47830  0.50590  Biso   1.000  H
  C7       1.0000 0.15670  0.88420  0.56790  Biso   1.000  C
  C8       1.0000 0.84330  0.38420  0.43210  Biso   1.000  C
  H13      1.0000 0.11280  0.78490  0.55940  Biso   1.000  H
  H14      1.0000 0.88720  0.28490  0.44060  Biso   1.000  H
  H15      1.0000 0.27120  0.87430  0.57940  Biso   1.000  H
  H16      1.0000 0.72880  0.37430  0.42060  Biso   1.000  H
  C9       1.0000 0.08350  0.95210  0.62220  Biso   1.000  C
  C10      1.0000 0.91650  0.45210  0.37780  Biso   1.000  C
  H17      1.0000 0.96790  0.95140  0.61260  Biso   1.000  H
  H18      1.0000 0.03210  0.45140  0.38740  Biso   1.000  H
  H19      1.0000 0.11150  0.89260  0.66020  Biso   1.000  H
  H20      1.0000 0.88850  0.39260  0.33980  Biso   1.000  H
  C11      1.0000 0.13980  0.10840  0.63410  Biso   1.000  C
  C12      1.0000 0.86020  0.60840  0.36590  Biso   1.000  C
  H21      1.0000 0.25550  0.10720  0.64700  Biso   1.000  H
  H22      1.0000 0.74450  0.60720  0.35300  Biso   1.000  H
  C13      1.0000 0.10850  0.08720  0.76390  Biso   1.000  C
  C14      1.0000 0.89150  0.58720  0.23610  Biso   1.000  C
  H23      1.0000 0.11980  0.98330  0.75200  Biso   1.000  H
  H24      1.0000 0.88020  0.48330  0.24800  Biso   1.000  H
  H25      1.0000 0.21150  0.12270  0.78360  Biso   1.000  H
  H26      1.0000 0.78850  0.62270  0.21640  Biso   1.000  H
  C15      1.0000 0.98730  0.10070  0.80960  Biso   1.000  C
  C16      1.0000 0.01270  0.60070  0.19040  Biso   1.000  C
  H27      1.0000 0.97510  0.20510  0.82050  Biso   1.000  H
  H28      1.0000 0.02490  0.70510  0.17950  Biso   1.000  H
  H29      1.0000 0.88490  0.06480  0.78960  Biso   1.000  H
  H30      1.0000 0.11510  0.56480  0.21040  Biso   1.000  H
  C17      1.0000 0.09080  0.08790  0.92030  Biso   1.000  C
  C18      1.0000 0.90920  0.58790  0.07970  Biso   1.000  C
  H31      1.0000 0.10470  0.19110  0.91990  Biso   1.000  H
  H32      1.0000 0.89530  0.69110  0.08010  Biso   1.000  H
  C19      1.0000 0.12730  0.01250  0.97350  Biso   1.000  C
  C20      1.0000 0.87270  0.51250  0.02650  Biso   1.000  C
  H33      1.0000 0.16650  0.06320  0.01060  Biso   1.000  H
  H34      1.0000 0.83350  0.56320  0.98940  Biso   1.000  H
  C21      1.0000 0.10870  0.86080  0.97520  Biso   1.000  C
  C22      1.0000 0.89130  0.36080  0.02480  Biso   1.000  C
  H35      1.0000 0.13440  0.80800  0.01300  Biso   1.000  H
  H36      1.0000 0.86560  0.30800  0.98700  Biso   1.000  H
  C23      1.0000 0.05250  0.78930  0.92120  Biso   1.000  C
  C24      1.0000 0.94750  0.28930  0.07880  Biso   1.000  C
  H37      1.0000 0.03940  0.68600  0.92210  Biso   1.000  H
  H38      1.0000 0.96060  0.18600  0.07790  Biso   1.000  H
  C25      1.0000 0.01330  0.86480  0.86410  Biso   1.000  C
  C26      1.0000 0.98670  0.36480  0.13590  Biso   1.000  C
  C27      1.0000 0.52720  0.80420  0.91830  Biso   1.000  C
  C28      1.0000 0.47280  0.30420  0.08170  Biso   1.000  C
  H39      1.0000 0.54730  0.69870  0.91220  Biso   1.000  H
  H40      1.0000 0.45270  0.19870  0.08780  Biso   1.000  H
  H41      1.0000 0.41640  0.81570  0.92580  Biso   1.000  H
  H42      1.0000 0.58360  0.31570  0.07420  Biso   1.000  H
  C29      1.0000 0.63510  0.86070  0.97550  Biso   1.000  C
  C30      1.0000 0.36490  0.36070  0.02450  Biso   1.000  C
  H43      1.0000 0.61080  0.80870  0.01350  Biso   1.000  H
  H44      1.0000 0.38920  0.30870  0.98650  Biso   1.000  H
  H45      1.0000 0.74580  0.84070  0.96990  Biso   1.000  H
  H46      1.0000 0.25420  0.34070  0.03010  Biso   1.000  H
  C31      1.0000 0.61160  0.02530  0.98330  Biso   1.000  C
  C32      1.0000 0.38840  0.52530  0.01670  Biso   1.000  C
  H47      1.0000 0.50380  0.04350  0.99340  Biso   1.000  H
  H48      1.0000 0.49620  0.54350  0.00660  Biso   1.000  H
  H49      1.0000 0.68550  0.06110  0.01880  Biso   1.000  H
  H50      1.0000 0.31450  0.56110  0.98120  Biso   1.000  H
  C33      1.0000 0.63710  0.10940  0.92560  Biso   1.000  C
  C34      1.0000 0.36290  0.60940  0.07440  Biso   1.000  C
  H51      1.0000 0.74830  0.10070  0.91830  Biso   1.000  H
  H52      1.0000 0.25170  0.60070  0.08170  Biso   1.000  H
  H53      1.0000 0.61460  0.21430  0.93200  Biso   1.000  H
  H54      1.0000 0.38540  0.71430  0.06800  Biso   1.000  H
  C35      1.0000 0.53240  0.05350  0.86780  Biso   1.000  C
  C36      1.0000 0.46760  0.55350  0.13220  Biso   1.000  C
  H55      1.0000 0.42110  0.07280  0.87280  Biso   1.000  H
  H56      1.0000 0.57890  0.57280  0.12720  Biso   1.000  H
  H57      1.0000 0.55790  0.10670  0.83030  Biso   1.000  H
  H58      1.0000 0.44210  0.60670  0.16970  Biso   1.000  H
  C37      1.0000 0.55640  0.88960  0.85910  Biso   1.000  C
  C38      1.0000 0.44360  0.38960  0.14090  Biso   1.000  C
  H59      1.0000 0.66580  0.87110  0.84950  Biso   1.000  H
  H60      1.0000 0.33420  0.37110  0.15050  Biso   1.000  H
  C39      1.0000 0.45370  0.92000  0.72850  Biso   1.000  C
  C40      1.0000 0.54630  0.42000  0.27150  Biso   1.000  C
  H61      1.0000 0.37670  0.89040  0.69300  Biso   1.000  H
  H62      1.0000 0.62330  0.39040  0.30700  Biso   1.000  H
  H63      1.0000 0.43610  0.02500  0.73680  Biso   1.000  H
  H64      1.0000 0.56390  0.52500  0.26320  Biso   1.000  H
  C41      1.0000 0.61820  0.90180  0.70970  Biso   1.000  C
  C42      1.0000 0.38180  0.40180  0.29030  Biso   1.000  C
  H65      1.0000 0.69640  0.94240  0.74260  Biso   1.000  H
  H66      1.0000 0.30360  0.44240  0.25740  Biso   1.000  H
  H67      1.0000 0.64140  0.79660  0.70460  Biso   1.000  H
  H68      1.0000 0.35860  0.29660  0.29540  Biso   1.000  H
  C43      1.0000 0.61720  0.90170  0.59540  Biso   1.000  C
  C44      1.0000 0.38280  0.40170  0.40460  Biso   1.000  C
  H69      1.0000 0.60560  0.79830  0.59670  Biso   1.000  H
  H70      1.0000 0.39440  0.29830  0.40330  Biso   1.000  H
  C45      1.0000 0.62340  0.96770  0.54020  Biso   1.000  C
  C46      1.0000 0.37660  0.46770  0.45980  Biso   1.000  C
  H71      1.0000 0.61640  0.91190  0.50280  Biso   1.000  H
  H72      1.0000 0.38360  0.41190  0.49720  Biso   1.000  H
  C47      1.0000 0.64050  0.12200  0.53840  Biso   1.000  C
  C48      1.0000 0.35950  0.62200  0.46160  Biso   1.000  C
  H73      1.0000 0.64500  0.17010  0.49960  Biso   1.000  H
  H74      1.0000 0.35500  0.67010  0.50040  Biso   1.000  H
  C49      1.0000 0.65060  0.20140  0.59220  Biso   1.000  C
  C50      1.0000 0.34940  0.70140  0.40780  Biso   1.000  C
  H75      1.0000 0.66410  0.30460  0.59050  Biso   1.000  H
  H76      1.0000 0.33590  0.80460  0.40950  Biso   1.000  H
  C51      1.0000 0.64110  0.13200  0.65130  Biso   1.000  C
  C52      1.0000 0.35890  0.63200  0.34870  Biso   1.000  C
