data_image0
_cell_length_a       6.3873
_cell_length_b       9.0571
_cell_length_c       24.3181
_cell_angle_alpha    90
_cell_angle_beta     90
_cell_angle_gamma    90

_symmetry_space_group_name_H-M    "P 1"
_symmetry_int_tables_number       1

loop_
  _symmetry_equiv_pos_as_xyz
  'x, y, z'

loop_
  _atom_site_label
  _atom_site_occupancy
  _atom_site_fract_x
  _atom_site_fract_y
  _atom_site_fract_z
  _atom_site_thermal_displace_type
  _atom_site_B_iso_or_equiv
  _atom_site_type_symbol
  Cu1      1.0000 0.00367  0.20325  0.41441  Biso   1.000  Cu
  Cu2      1.0000 0.49633  0.79675  0.91441  Biso   1.000  Cu
  Cu3      1.0000 0.50367  0.29675  0.58560  Biso   1.000  Cu
  Cu4      1.0000 0.99633  0.70325  0.08559  Biso   1.000  Cu
  Cu5      1.0000 0.09084  0.38398  0.51363  Biso   1.000  Cu
  Cu6      1.0000 0.40916  0.61602  0.01363  Biso   1.000  Cu
  Cu7      1.0000 0.59084  0.11602  0.48637  Biso   1.000  Cu
  Cu8      1.0000 0.90916  0.88398  0.98637  Biso   1.000  Cu
  Cl1      1.0000 0.20021  0.14415  0.49113  Biso   1.000  Cl
  Cl2      1.0000 0.29979  0.85585  0.99113  Biso   1.000  Cl
  Cl3      1.0000 0.70021  0.35585  0.50887  Biso   1.000  Cl
  Cl4      1.0000 0.79979  0.64415  0.00887  Biso   1.000  Cl
  Cl5      1.0000 0.21254  0.42148  0.60430  Biso   1.000  Cl
  Cl6      1.0000 0.28746  0.57852  0.10430  Biso   1.000  Cl
  Cl7      1.0000 0.71254  0.07852  0.39570  Biso   1.000  Cl
  Cl8      1.0000 0.78746  0.92148  0.89570  Biso   1.000  Cl
  N1       1.0000 0.16780  0.32099  0.36043  Biso   1.000  N
  N2       1.0000 0.33220  0.67901  0.86043  Biso   1.000  N
  N3       1.0000 0.66780  0.17901  0.63957  Biso   1.000  N
  N4       1.0000 0.83220  0.82099  0.13957  Biso   1.000  N
  N5       1.0000 0.87410  0.06294  0.03382  Biso   1.000  N
  N6       1.0000 0.62590  0.93706  0.53382  Biso   1.000  N
  N7       1.0000 0.37410  0.43706  0.96618  Biso   1.000  N
  N8       1.0000 0.12590  0.56294  0.46618  Biso   1.000  N
  C1       1.0000 0.49680  0.42562  0.33305  Biso   1.000  C
  C2       1.0000 0.00320  0.57438  0.83305  Biso   1.000  C
  C3       1.0000 0.99680  0.07438  0.66695  Biso   1.000  C
  C4       1.0000 0.50320  0.92562  0.16695  Biso   1.000  C
  H1       1.0000 0.63440  0.45450  0.34330  Biso   1.000  H
  H2       1.0000 0.86560  0.54550  0.84330  Biso   1.000  H
  H3       1.0000 0.13440  0.04550  0.65670  Biso   1.000  H
  H4       1.0000 0.36560  0.95450  0.15670  Biso   1.000  H
  C5       1.0000 0.36370  0.36420  0.37195  Biso   1.000  C
  C6       1.0000 0.13630  0.63580  0.87195  Biso   1.000  C
  C7       1.0000 0.86370  0.13580  0.62805  Biso   1.000  C
  C8       1.0000 0.63630  0.86420  0.12805  Biso   1.000  C
  H5       1.0000 0.41380  0.35220  0.40850  Biso   1.000  H
  H6       1.0000 0.08620  0.64780  0.90850  Biso   1.000  H
  H7       1.0000 0.91380  0.14780  0.59150  Biso   1.000  H
  H8       1.0000 0.58620  0.85220  0.09150  Biso   1.000  H
  C9       1.0000 0.09960  0.34200  0.30829  Biso   1.000  C
  C10      1.0000 0.40040  0.65800  0.80829  Biso   1.000  C
  C11      1.0000 0.59960  0.15800  0.69171  Biso   1.000  C
  C12      1.0000 0.90040  0.84200  0.19171  Biso   1.000  C
  H9       1.0000 0.96070  0.31330  0.29930  Biso   1.000  H
  H10      1.0000 0.53930  0.68670  0.79930  Biso   1.000  H
  H11      1.0000 0.46070  0.18670  0.70070  Biso   1.000  H
  H12      1.0000 0.03930  0.81330  0.20070  Biso   1.000  H
  C13      1.0000 0.22340  0.40340  0.26749  Biso   1.000  C
  C14      1.0000 0.27660  0.59660  0.76749  Biso   1.000  C
  C15      1.0000 0.72340  0.09660  0.73251  Biso   1.000  C
  C16      1.0000 0.77660  0.90340  0.23251  Biso   1.000  C
  H13      1.0000 0.16830  0.41730  0.23160  Biso   1.000  H
  H14      1.0000 0.33170  0.58270  0.73160  Biso   1.000  H
  H15      1.0000 0.66830  0.08270  0.76840  Biso   1.000  H
  H16      1.0000 0.83170  0.91730  0.26840  Biso   1.000  H
  C17      1.0000 0.42940  0.44496  0.27918  Biso   1.000  C
  C18      1.0000 0.07060  0.55504  0.77918  Biso   1.000  C
  C19      1.0000 0.92940  0.05504  0.72082  Biso   1.000  C
  C20      1.0000 0.57060  0.94496  0.22082  Biso   1.000  C
  C21      1.0000 0.57400  0.49812  0.23425  Biso   1.000  C
  C22      1.0000 0.92600  0.50188  0.73425  Biso   1.000  C
  C23      1.0000 0.07400  0.00188  0.76575  Biso   1.000  C
  C24      1.0000 0.42600  0.99812  0.26575  Biso   1.000  C
  H17      1.0000 0.70360  0.53850  0.25080  Biso   1.000  H
  H18      1.0000 0.79640  0.46150  0.75080  Biso   1.000  H
  H19      1.0000 0.20360  0.96150  0.74920  Biso   1.000  H
  H20      1.0000 0.29640  0.03850  0.24920  Biso   1.000  H
  H21      1.0000 0.50510  0.57810  0.21320  Biso   1.000  H
  H22      1.0000 0.99490  0.42190  0.71320  Biso   1.000  H
  H23      1.0000 0.00510  0.92190  0.78680  Biso   1.000  H
  H24      1.0000 0.49490  0.07810  0.28680  Biso   1.000  H
  C25      1.0000 0.62970  0.37053  0.19535  Biso   1.000  C
  C26      1.0000 0.87030  0.62947  0.69535  Biso   1.000  C
  C27      1.0000 0.12970  0.12947  0.80465  Biso   1.000  C
  C28      1.0000 0.37030  0.87053  0.30465  Biso   1.000  C
  H25      1.0000 0.49920  0.32800  0.18010  Biso   1.000  H
  H26      1.0000 0.00080  0.67200  0.68010  Biso   1.000  H
  H27      1.0000 0.99920  0.17200  0.81990  Biso   1.000  H
  H28      1.0000 0.50080  0.82800  0.31990  Biso   1.000  H
  H29      1.0000 0.70200  0.29220  0.21640  Biso   1.000  H
  H30      1.0000 0.79800  0.70780  0.71640  Biso   1.000  H
  H31      1.0000 0.20200  0.20780  0.78360  Biso   1.000  H
  H32      1.0000 0.29800  0.79220  0.28360  Biso   1.000  H
  C29      1.0000 0.77090  0.42097  0.14784  Biso   1.000  C
  C30      1.0000 0.72910  0.57903  0.64784  Biso   1.000  C
  C31      1.0000 0.27090  0.07903  0.85216  Biso   1.000  C
  C32      1.0000 0.22910  0.92097  0.35216  Biso   1.000  C
  H33      1.0000 0.70380  0.50490  0.12860  Biso   1.000  H
  H34      1.0000 0.79620  0.49510  0.62860  Biso   1.000  H
  H35      1.0000 0.20380  0.99510  0.87140  Biso   1.000  H
  H36      1.0000 0.29620  0.00490  0.37140  Biso   1.000  H
  H37      1.0000 0.90620  0.45570  0.16290  Biso   1.000  H
  H38      1.0000 0.59380  0.54430  0.66290  Biso   1.000  H
  H39      1.0000 0.40620  0.04430  0.83710  Biso   1.000  H
  H40      1.0000 0.09380  0.95570  0.33710  Biso   1.000  H
  C33      1.0000 0.81040  0.29860  0.10739  Biso   1.000  C
  C34      1.0000 0.68960  0.70140  0.60739  Biso   1.000  C
  C35      1.0000 0.31040  0.20140  0.89261  Biso   1.000  C
  C36      1.0000 0.18960  0.79860  0.39261  Biso   1.000  C
  C37      1.0000 0.65700  0.25710  0.06961  Biso   1.000  C
  C38      1.0000 0.84300  0.74290  0.56961  Biso   1.000  C
  C39      1.0000 0.15700  0.24290  0.93039  Biso   1.000  C
  C40      1.0000 0.34300  0.75710  0.43039  Biso   1.000  C
  H41      1.0000 0.52760  0.30860  0.06830  Biso   1.000  H
  H42      1.0000 0.97240  0.69140  0.56830  Biso   1.000  H
  H43      1.0000 0.02760  0.19140  0.93170  Biso   1.000  H
  H44      1.0000 0.47240  0.80860  0.43170  Biso   1.000  H
  C41      1.0000 0.69410  0.13995  0.03383  Biso   1.000  C
  C42      1.0000 0.80590  0.86005  0.53383  Biso   1.000  C
  C43      1.0000 0.19410  0.36005  0.96617  Biso   1.000  C
  C44      1.0000 0.30590  0.63995  0.46617  Biso   1.000  C
  H45      1.0000 0.58780  0.11330  0.00840  Biso   1.000  H
  H46      1.0000 0.91220  0.88670  0.50840  Biso   1.000  H
  H47      1.0000 0.08780  0.38670  0.99160  Biso   1.000  H
  H48      1.0000 0.41220  0.61330  0.49160  Biso   1.000  H
  C45      1.0000 0.02330  0.10451  0.06957  Biso   1.000  C
  C46      1.0000 0.47670  0.89549  0.56957  Biso   1.000  C
  C47      1.0000 0.52330  0.39549  0.93043  Biso   1.000  C
  C48      1.0000 0.97670  0.60451  0.43043  Biso   1.000  C
  H49      1.0000 0.15250  0.05250  0.06960  Biso   1.000  H
  H50      1.0000 0.34750  0.94750  0.56960  Biso   1.000  H
  H51      1.0000 0.65250  0.44750  0.93040  Biso   1.000  H
  H52      1.0000 0.84750  0.55250  0.43040  Biso   1.000  H
  C49      1.0000 0.99740  0.22008  0.10660  Biso   1.000  C
  C50      1.0000 0.50260  0.77992  0.60660  Biso   1.000  C
  C51      1.0000 0.49740  0.27992  0.89340  Biso   1.000  C
  C52      1.0000 0.00260  0.72008  0.39340  Biso   1.000  C
  H53      1.0000 0.10710  0.24530  0.13130  Biso   1.000  H
  H54      1.0000 0.39290  0.75470  0.63130  Biso   1.000  H
  H55      1.0000 0.60710  0.25470  0.86870  Biso   1.000  H
  H56      1.0000 0.89290  0.74530  0.36870  Biso   1.000  H
