data_image0
_cell_length_a       16.934
_cell_length_b       24.172
_cell_length_c       8.8786
_cell_angle_alpha    90
_cell_angle_beta     111.41
_cell_angle_gamma    90

_symmetry_space_group_name_H-M    "P 1"
_symmetry_int_tables_number       1

loop_
  _symmetry_equiv_pos_as_xyz
  'x, y, z'

loop_
  _atom_site_label
  _atom_site_occupancy
  _atom_site_fract_x
  _atom_site_fract_y
  _atom_site_fract_z
  _atom_site_thermal_displace_type
  _atom_site_B_iso_or_equiv
  _atom_site_type_symbol
  Cu1      1.0000 0.16918  0.28762  0.52929  Biso   1.000  Cu
  Cu2      1.0000 0.83082  0.28762  0.97071  Biso   1.000  Cu
  Cu3      1.0000 0.66918  0.78762  0.52929  Biso   1.000  Cu
  Cu4      1.0000 0.33082  0.78762  0.97071  Biso   1.000  Cu
  Cu5      1.0000 0.83082  0.71238  0.47071  Biso   1.000  Cu
  Cu6      1.0000 0.16918  0.71238  0.02929  Biso   1.000  Cu
  Cu7      1.0000 0.33082  0.21238  0.47071  Biso   1.000  Cu
  Cu8      1.0000 0.66918  0.21238  0.02929  Biso   1.000  Cu
  N1       1.0000 0.19450  0.35691  0.45160  Biso   1.000  N
  N2       1.0000 0.80550  0.35691  0.04840  Biso   1.000  N
  N3       1.0000 0.69450  0.85691  0.45160  Biso   1.000  N
  N4       1.0000 0.30550  0.85691  0.04840  Biso   1.000  N
  N5       1.0000 0.80550  0.64309  0.54840  Biso   1.000  N
  N6       1.0000 0.19450  0.64309  0.95160  Biso   1.000  N
  N7       1.0000 0.30550  0.14309  0.54840  Biso   1.000  N
  N8       1.0000 0.69450  0.14309  0.95160  Biso   1.000  N
  C1       1.0000 0.14620  0.44170  0.31110  Biso   1.000  C
  C2       1.0000 0.85380  0.44170  0.18890  Biso   1.000  C
  C3       1.0000 0.64620  0.94170  0.31110  Biso   1.000  C
  C4       1.0000 0.35380  0.94170  0.18890  Biso   1.000  C
  C5       1.0000 0.85380  0.55830  0.68890  Biso   1.000  C
  C6       1.0000 0.14620  0.55830  0.81110  Biso   1.000  C
  C7       1.0000 0.35380  0.05830  0.68890  Biso   1.000  C
  C8       1.0000 0.64620  0.05830  0.81110  Biso   1.000  C
  H1       1.0000 0.10070  0.46310  0.24720  Biso   1.000  H
  H2       1.0000 0.89930  0.46310  0.25280  Biso   1.000  H
  H3       1.0000 0.60070  0.96310  0.24720  Biso   1.000  H
  H4       1.0000 0.39930  0.96310  0.25280  Biso   1.000  H
  H5       1.0000 0.89930  0.53690  0.75280  Biso   1.000  H
  H6       1.0000 0.10070  0.53690  0.74720  Biso   1.000  H
  H7       1.0000 0.39930  0.03690  0.75280  Biso   1.000  H
  H8       1.0000 0.60070  0.03690  0.74720  Biso   1.000  H
  C9       1.0000 0.13160  0.38950  0.35880  Biso   1.000  C
  C10      1.0000 0.86840  0.38950  0.14120  Biso   1.000  C
  C11      1.0000 0.63160  0.88950  0.35880  Biso   1.000  C
  C12      1.0000 0.36840  0.88950  0.14120  Biso   1.000  C
  C13      1.0000 0.86840  0.61050  0.64120  Biso   1.000  C
  C14      1.0000 0.13160  0.61050  0.85880  Biso   1.000  C
  C15      1.0000 0.36840  0.11050  0.64120  Biso   1.000  C
  C16      1.0000 0.63160  0.11050  0.85880  Biso   1.000  C
  H9       1.0000 0.07610  0.37660  0.32530  Biso   1.000  H
  H10      1.0000 0.92390  0.37660  0.17470  Biso   1.000  H
  H11      1.0000 0.57610  0.87660  0.32530  Biso   1.000  H
  H12      1.0000 0.42390  0.87660  0.17470  Biso   1.000  H
  H13      1.0000 0.92390  0.62340  0.67470  Biso   1.000  H
  H14      1.0000 0.07610  0.62340  0.82530  Biso   1.000  H
  H15      1.0000 0.42390  0.12340  0.67470  Biso   1.000  H
  H16      1.0000 0.57610  0.12340  0.82530  Biso   1.000  H
  C17      1.0000 0.27350  0.37670  0.49560  Biso   1.000  C
  C18      1.0000 0.72650  0.37670  0.00440  Biso   1.000  C
  C19      1.0000 0.77350  0.87670  0.49560  Biso   1.000  C
  C20      1.0000 0.22650  0.87670  0.00440  Biso   1.000  C
  C21      1.0000 0.72650  0.62330  0.50440  Biso   1.000  C
  C22      1.0000 0.27350  0.62330  0.99560  Biso   1.000  C
  C23      1.0000 0.22650  0.12330  0.50440  Biso   1.000  C
  C24      1.0000 0.77350  0.12330  0.99560  Biso   1.000  C
  H17      1.0000 0.31830  0.35480  0.56020  Biso   1.000  H
  H18      1.0000 0.68170  0.35480  0.93980  Biso   1.000  H
  H19      1.0000 0.81830  0.85480  0.56020  Biso   1.000  H
  H20      1.0000 0.18170  0.85480  0.93980  Biso   1.000  H
  H21      1.0000 0.68170  0.64520  0.43980  Biso   1.000  H
  H22      1.0000 0.31830  0.64520  0.06020  Biso   1.000  H
  H23      1.0000 0.18170  0.14520  0.43980  Biso   1.000  H
  H24      1.0000 0.81830  0.14520  0.06020  Biso   1.000  H
  C25      1.0000 0.29130  0.42800  0.44900  Biso   1.000  C
  C26      1.0000 0.70870  0.42800  0.05100  Biso   1.000  C
  C27      1.0000 0.79130  0.92800  0.44900  Biso   1.000  C
  C28      1.0000 0.20870  0.92800  0.05100  Biso   1.000  C
  C29      1.0000 0.70870  0.57200  0.55100  Biso   1.000  C
  C30      1.0000 0.29130  0.57200  0.94900  Biso   1.000  C
  C31      1.0000 0.20870  0.07200  0.55100  Biso   1.000  C
  C32      1.0000 0.79130  0.07200  0.94900  Biso   1.000  C
  H25      1.0000 0.34730  0.43970  0.47990  Biso   1.000  H
  H26      1.0000 0.65270  0.43970  0.02010  Biso   1.000  H
  H27      1.0000 0.84730  0.93970  0.47990  Biso   1.000  H
  H28      1.0000 0.15270  0.93970  0.02010  Biso   1.000  H
  H29      1.0000 0.65270  0.56030  0.52010  Biso   1.000  H
  H30      1.0000 0.34730  0.56030  0.97990  Biso   1.000  H
  H31      1.0000 0.15270  0.06030  0.52010  Biso   1.000  H
  H32      1.0000 0.84730  0.06030  0.97990  Biso   1.000  H
  C33      1.0000 0.22640  0.46220  0.35640  Biso   1.000  C
  C34      1.0000 0.77360  0.46220  0.14360  Biso   1.000  C
  C35      1.0000 0.72640  0.96220  0.35640  Biso   1.000  C
  C36      1.0000 0.27360  0.96220  0.14360  Biso   1.000  C
  C37      1.0000 0.77360  0.53780  0.64360  Biso   1.000  C
  C38      1.0000 0.22640  0.53780  0.85640  Biso   1.000  C
  C39      1.0000 0.27360  0.03780  0.64360  Biso   1.000  C
  C40      1.0000 0.72640  0.03780  0.85640  Biso   1.000  C
  C41      1.0000 0.24460  0.51980  0.31310  Biso   1.000  C
  C42      1.0000 0.75540  0.51980  0.18690  Biso   1.000  C
  C43      1.0000 0.74460  0.01980  0.31310  Biso   1.000  C
  C44      1.0000 0.25540  0.01980  0.18690  Biso   1.000  C
  C45      1.0000 0.75540  0.48020  0.68690  Biso   1.000  C
  C46      1.0000 0.24460  0.48020  0.81310  Biso   1.000  C
  C47      1.0000 0.25540  0.98020  0.68690  Biso   1.000  C
  C48      1.0000 0.74460  0.98020  0.81310  Biso   1.000  C
  H33      1.0000 0.19770  0.53240  0.21860  Biso   1.000  H
  H34      1.0000 0.80230  0.53240  0.28140  Biso   1.000  H
  H35      1.0000 0.69770  0.03240  0.21860  Biso   1.000  H
  H36      1.0000 0.30230  0.03240  0.28140  Biso   1.000  H
  H37      1.0000 0.80230  0.46760  0.78140  Biso   1.000  H
  H38      1.0000 0.19770  0.46760  0.71860  Biso   1.000  H
  H39      1.0000 0.30230  0.96760  0.78140  Biso   1.000  H
  H40      1.0000 0.69770  0.96760  0.71860  Biso   1.000  H
  H41      1.0000 0.29520  0.51930  0.28630  Biso   1.000  H
  H42      1.0000 0.70480  0.51930  0.21370  Biso   1.000  H
  H43      1.0000 0.79520  0.01930  0.28630  Biso   1.000  H
  H44      1.0000 0.20480  0.01930  0.21370  Biso   1.000  H
  H45      1.0000 0.70480  0.48070  0.71370  Biso   1.000  H
  H46      1.0000 0.29520  0.48070  0.78630  Biso   1.000  H
  H47      1.0000 0.20480  0.98070  0.71370  Biso   1.000  H
  H48      1.0000 0.79520  0.98070  0.78630  Biso   1.000  H
  C49      1.0000 0.25740  0.56020  0.45410  Biso   1.000  C
  C50      1.0000 0.74260  0.56020  0.04590  Biso   1.000  C
  C51      1.0000 0.75740  0.06020  0.45410  Biso   1.000  C
  C52      1.0000 0.24260  0.06020  0.04590  Biso   1.000  C
  C53      1.0000 0.74260  0.43980  0.54590  Biso   1.000  C
  C54      1.0000 0.25740  0.43980  0.95410  Biso   1.000  C
  C55      1.0000 0.24260  0.93980  0.54590  Biso   1.000  C
  C56      1.0000 0.75740  0.93980  0.95410  Biso   1.000  C
  H49      1.0000 0.20700  0.56030  0.48150  Biso   1.000  H
  H50      1.0000 0.79300  0.56030  0.01850  Biso   1.000  H
  H51      1.0000 0.70700  0.06030  0.48150  Biso   1.000  H
  H52      1.0000 0.29300  0.06030  0.01850  Biso   1.000  H
  H53      1.0000 0.79300  0.43970  0.51850  Biso   1.000  H
  H54      1.0000 0.20700  0.43970  0.98150  Biso   1.000  H
  H55      1.0000 0.29300  0.93970  0.51850  Biso   1.000  H
  H56      1.0000 0.70700  0.93970  0.98150  Biso   1.000  H
  H57      1.0000 0.30450  0.54760  0.54830  Biso   1.000  H
  H58      1.0000 0.69550  0.54760  0.95170  Biso   1.000  H
  H59      1.0000 0.80450  0.04760  0.54830  Biso   1.000  H
  H60      1.0000 0.19550  0.04760  0.95170  Biso   1.000  H
  H61      1.0000 0.69550  0.45240  0.45170  Biso   1.000  H
  H62      1.0000 0.30450  0.45240  0.04830  Biso   1.000  H
  H63      1.0000 0.19550  0.95240  0.45170  Biso   1.000  H
  H64      1.0000 0.80450  0.95240  0.04830  Biso   1.000  H
  C57      1.0000 0.27520  0.61880  0.41190  Biso   1.000  C
  C58      1.0000 0.72480  0.61880  0.08810  Biso   1.000  C
  C59      1.0000 0.77520  0.11880  0.41190  Biso   1.000  C
  C60      1.0000 0.22480  0.11880  0.08810  Biso   1.000  C
  C61      1.0000 0.72480  0.38120  0.58810  Biso   1.000  C
  C62      1.0000 0.27520  0.38120  0.91190  Biso   1.000  C
  C63      1.0000 0.22480  0.88120  0.58810  Biso   1.000  C
  C64      1.0000 0.77520  0.88120  0.91190  Biso   1.000  C
  H65      1.0000 0.32560  0.61860  0.38400  Biso   1.000  H
  H66      1.0000 0.67440  0.61860  0.11600  Biso   1.000  H
  H67      1.0000 0.82560  0.11860  0.38400  Biso   1.000  H
  H68      1.0000 0.17440  0.11860  0.11600  Biso   1.000  H
  H69      1.0000 0.67440  0.38140  0.61600  Biso   1.000  H
  H70      1.0000 0.32560  0.38140  0.88400  Biso   1.000  H
  H71      1.0000 0.17440  0.88140  0.61600  Biso   1.000  H
  H72      1.0000 0.82560  0.88140  0.88400  Biso   1.000  H
  H73      1.0000 0.22800  0.63150  0.31800  Biso   1.000  H
  H74      1.0000 0.77200  0.63150  0.18200  Biso   1.000  H
  H75      1.0000 0.72800  0.13150  0.31800  Biso   1.000  H
  H76      1.0000 0.27200  0.13150  0.18200  Biso   1.000  H
  H77      1.0000 0.77200  0.36850  0.68200  Biso   1.000  H
  H78      1.0000 0.22800  0.36850  0.81800  Biso   1.000  H
  H79      1.0000 0.27200  0.86850  0.68200  Biso   1.000  H
  H80      1.0000 0.72800  0.86850  0.81800  Biso   1.000  H
  C65      1.0000 0.28820  0.65830  0.54950  Biso   1.000  C
  C66      1.0000 0.71180  0.65830  0.95050  Biso   1.000  C
  C67      1.0000 0.78820  0.15830  0.54950  Biso   1.000  C
  C68      1.0000 0.21180  0.15830  0.95050  Biso   1.000  C
  C69      1.0000 0.71180  0.34170  0.45050  Biso   1.000  C
  C70      1.0000 0.28820  0.34170  0.04950  Biso   1.000  C
  C71      1.0000 0.21180  0.84170  0.45050  Biso   1.000  C
  C72      1.0000 0.78820  0.84170  0.04950  Biso   1.000  C
  C73      1.0000 0.22220  0.68590  0.57020  Biso   1.000  C
  C74      1.0000 0.77780  0.68590  0.92980  Biso   1.000  C
  C75      1.0000 0.72220  0.18590  0.57020  Biso   1.000  C
  C76      1.0000 0.27780  0.18590  0.92980  Biso   1.000  C
  C77      1.0000 0.77780  0.31410  0.42980  Biso   1.000  C
  C78      1.0000 0.22220  0.31410  0.07020  Biso   1.000  C
  C79      1.0000 0.27780  0.81410  0.42980  Biso   1.000  C
  C80      1.0000 0.72220  0.81410  0.07020  Biso   1.000  C
  H81      1.0000 0.16720  0.67950  0.49850  Biso   1.000  H
  H82      1.0000 0.83280  0.67950  0.00150  Biso   1.000  H
  H83      1.0000 0.66720  0.17950  0.49850  Biso   1.000  H
  H84      1.0000 0.33280  0.17950  0.00150  Biso   1.000  H
  H85      1.0000 0.83280  0.32050  0.50150  Biso   1.000  H
  H86      1.0000 0.16720  0.32050  0.99850  Biso   1.000  H
  H87      1.0000 0.33280  0.82050  0.50150  Biso   1.000  H
  H88      1.0000 0.66720  0.82050  0.99850  Biso   1.000  H
  C81      1.0000 0.23590  0.72290  0.69560  Biso   1.000  C
  C82      1.0000 0.76410  0.72290  0.80440  Biso   1.000  C
  C83      1.0000 0.73590  0.22290  0.69560  Biso   1.000  C
  C84      1.0000 0.26410  0.22290  0.80440  Biso   1.000  C
  C85      1.0000 0.76410  0.27710  0.30440  Biso   1.000  C
  C86      1.0000 0.23590  0.27710  0.19560  Biso   1.000  C
  C87      1.0000 0.26410  0.77710  0.30440  Biso   1.000  C
  C88      1.0000 0.73590  0.77710  0.19560  Biso   1.000  C
  H89      1.0000 0.18960  0.74130  0.70460  Biso   1.000  H
  H90      1.0000 0.81040  0.74130  0.79540  Biso   1.000  H
  H91      1.0000 0.68960  0.24130  0.70460  Biso   1.000  H
  H92      1.0000 0.31040  0.24130  0.79540  Biso   1.000  H
  H93      1.0000 0.81040  0.25870  0.29540  Biso   1.000  H
  H94      1.0000 0.18960  0.25870  0.20460  Biso   1.000  H
  H95      1.0000 0.31040  0.75870  0.29540  Biso   1.000  H
  H96      1.0000 0.68960  0.75870  0.20460  Biso   1.000  H
  C89      1.0000 0.37750  0.70590  0.78620  Biso   1.000  C
  C90      1.0000 0.62250  0.70590  0.71380  Biso   1.000  C
  C91      1.0000 0.87750  0.20590  0.78620  Biso   1.000  C
  C92      1.0000 0.12250  0.20590  0.71380  Biso   1.000  C
  C93      1.0000 0.62250  0.29410  0.21380  Biso   1.000  C
  C94      1.0000 0.37750  0.29410  0.28620  Biso   1.000  C
  C95      1.0000 0.12250  0.79410  0.21380  Biso   1.000  C
  C96      1.0000 0.87750  0.79410  0.28620  Biso   1.000  C
  H97      1.0000 0.43180  0.71220  0.86150  Biso   1.000  H
  H98      1.0000 0.56820  0.71220  0.63850  Biso   1.000  H
  H99      1.0000 0.93180  0.21220  0.86150  Biso   1.000  H
  H100     1.0000 0.06820  0.21220  0.63850  Biso   1.000  H
  H101     1.0000 0.56820  0.28780  0.13850  Biso   1.000  H
  H102     1.0000 0.43180  0.28780  0.36150  Biso   1.000  H
  H103     1.0000 0.06820  0.78780  0.13850  Biso   1.000  H
  H104     1.0000 0.93180  0.78780  0.36150  Biso   1.000  H
  C97      1.0000 0.36830  0.66930  0.66350  Biso   1.000  C
  C98      1.0000 0.63170  0.66930  0.83650  Biso   1.000  C
  C99      1.0000 0.86830  0.16930  0.66350  Biso   1.000  C
  C100     1.0000 0.13170  0.16930  0.83650  Biso   1.000  C
  C101     1.0000 0.63170  0.33070  0.33650  Biso   1.000  C
  C102     1.0000 0.36830  0.33070  0.16350  Biso   1.000  C
  C103     1.0000 0.13170  0.83070  0.33650  Biso   1.000  C
  C104     1.0000 0.86830  0.83070  0.16350  Biso   1.000  C
  H105     1.0000 0.41560  0.65170  0.65640  Biso   1.000  H
  H106     1.0000 0.58440  0.65170  0.84360  Biso   1.000  H
  H107     1.0000 0.91560  0.15170  0.65640  Biso   1.000  H
  H108     1.0000 0.08440  0.15170  0.84360  Biso   1.000  H
  H109     1.0000 0.58440  0.34830  0.34360  Biso   1.000  H
  H110     1.0000 0.41560  0.34830  0.15640  Biso   1.000  H
  H111     1.0000 0.08440  0.84830  0.34360  Biso   1.000  H
  H112     1.0000 0.91560  0.84830  0.15640  Biso   1.000  H
  N9       1.0000 0.31250  0.73326  0.80360  Biso   1.000  N
  N10      1.0000 0.68750  0.73326  0.69640  Biso   1.000  N
  N11      1.0000 0.81250  0.23326  0.80360  Biso   1.000  N
  N12      1.0000 0.18750  0.23326  0.69640  Biso   1.000  N
  N13      1.0000 0.68750  0.26674  0.19640  Biso   1.000  N
  N14      1.0000 0.31250  0.26674  0.30360  Biso   1.000  N
  N15      1.0000 0.18750  0.76674  0.19640  Biso   1.000  N
  N16      1.0000 0.81250  0.76674  0.30360  Biso   1.000  N
  O1       1.0000 0.02000  0.28530  0.39180  Biso   1.000  O
  O2       1.0000 0.98000  0.28530  0.10820  Biso   1.000  O
  O3       1.0000 0.52000  0.78530  0.39180  Biso   1.000  O
  O4       1.0000 0.48000  0.78530  0.10820  Biso   1.000  O
  O5       1.0000 0.98000  0.71470  0.60820  Biso   1.000  O
  O6       1.0000 0.02000  0.71470  0.89180  Biso   1.000  O
  O7       1.0000 0.48000  0.21470  0.60820  Biso   1.000  O
  O8       1.0000 0.52000  0.21470  0.89180  Biso   1.000  O
  O9       1.0000 0.07450  0.22040  0.27730  Biso   1.000  O
  O10      1.0000 0.92550  0.22040  0.22270  Biso   1.000  O
  O11      1.0000 0.57450  0.72040  0.27730  Biso   1.000  O
  O12      1.0000 0.42550  0.72040  0.22270  Biso   1.000  O
  O13      1.0000 0.92550  0.77960  0.72270  Biso   1.000  O
  O14      1.0000 0.07450  0.77960  0.77730  Biso   1.000  O
  O15      1.0000 0.42550  0.27960  0.72270  Biso   1.000  O
  O16      1.0000 0.57450  0.27960  0.77730  Biso   1.000  O
  S1       1.0000 0.00000  0.25036  0.25000  Biso   1.000  S
  S2       1.0000 0.50000  0.75036  0.25000  Biso   1.000  S
  S3       1.0000 0.00000  0.74964  0.75000  Biso   1.000  S
  S4       1.0000 0.50000  0.24964  0.75000  Biso   1.000  S
  O17      1.0000 0.02820  0.13050  0.11720  Biso   1.000  O
  O18      1.0000 0.97180  0.13050  0.38280  Biso   1.000  O
  O19      1.0000 0.52820  0.63050  0.11720  Biso   1.000  O
  O20      1.0000 0.47180  0.63050  0.38280  Biso   1.000  O
  O21      1.0000 0.97180  0.86950  0.88280  Biso   1.000  O
  O22      1.0000 0.02820  0.86950  0.61720  Biso   1.000  O
  O23      1.0000 0.47180  0.36950  0.88280  Biso   1.000  O
  O24      1.0000 0.52820  0.36950  0.61720  Biso   1.000  O
  H113     1.0000 0.05890  0.14400  0.21020  Biso   1.000  H
  H114     1.0000 0.94110  0.14400  0.28980  Biso   1.000  H
  H115     1.0000 0.55890  0.64400  0.21020  Biso   1.000  H
  H116     1.0000 0.44110  0.64400  0.28980  Biso   1.000  H
  H117     1.0000 0.94110  0.85600  0.78980  Biso   1.000  H
  H118     1.0000 0.05890  0.85600  0.71020  Biso   1.000  H
  H119     1.0000 0.44110  0.35600  0.78980  Biso   1.000  H
  H120     1.0000 0.55890  0.35600  0.71020  Biso   1.000  H
  H121     1.0000 0.99120  0.15690  0.08600  Biso   1.000  H
  H122     1.0000 0.00880  0.15690  0.41400  Biso   1.000  H
  H123     1.0000 0.49120  0.65690  0.08600  Biso   1.000  H
  H124     1.0000 0.50880  0.65690  0.41400  Biso   1.000  H
  H125     1.0000 0.00880  0.84310  0.91400  Biso   1.000  H
  H126     1.0000 0.99120  0.84310  0.58600  Biso   1.000  H
  H127     1.0000 0.50880  0.34310  0.91400  Biso   1.000  H
  H128     1.0000 0.49120  0.34310  0.58600  Biso   1.000  H
  O25      1.0000 0.00000  0.04140  0.25000  Biso   1.000  O
  O26      1.0000 0.50000  0.54140  0.25000  Biso   1.000  O
  O27      1.0000 0.00000  0.95860  0.75000  Biso   1.000  O
  O28      1.0000 0.50000  0.45860  0.75000  Biso   1.000  O
  H129     1.0000 0.03390  0.06410  0.31370  Biso   1.000  H
  H130     1.0000 0.96610  0.06410  0.18630  Biso   1.000  H
  H131     1.0000 0.53390  0.56410  0.31370  Biso   1.000  H
  H132     1.0000 0.46610  0.56410  0.18630  Biso   1.000  H
  H133     1.0000 0.96610  0.93590  0.68630  Biso   1.000  H
  H134     1.0000 0.03390  0.93590  0.81370  Biso   1.000  H
  H135     1.0000 0.46610  0.43590  0.68630  Biso   1.000  H
  H136     1.0000 0.53390  0.43590  0.81370  Biso   1.000  H
  H137     1.0000 0.05540  0.68820  0.26190  Biso   1.000  H
  H138     1.0000 0.94460  0.68820  0.23810  Biso   1.000  H
  H139     1.0000 0.55540  0.18820  0.26190  Biso   1.000  H
  H140     1.0000 0.44460  0.18820  0.23810  Biso   1.000  H
  H141     1.0000 0.94460  0.31180  0.73810  Biso   1.000  H
  H142     1.0000 0.05540  0.31180  0.76190  Biso   1.000  H
  H143     1.0000 0.44460  0.81180  0.73810  Biso   1.000  H
  H144     1.0000 0.55540  0.81180  0.76190  Biso   1.000  H
  H145     1.0000 0.98530  0.68820  0.33830  Biso   1.000  H
  H146     1.0000 0.01470  0.68820  0.16170  Biso   1.000  H
  H147     1.0000 0.48530  0.18820  0.33830  Biso   1.000  H
  H148     1.0000 0.51470  0.18820  0.16170  Biso   1.000  H
  H149     1.0000 0.01470  0.31180  0.66170  Biso   1.000  H
  H150     1.0000 0.98530  0.31180  0.83830  Biso   1.000  H
  H151     1.0000 0.51470  0.81180  0.66170  Biso   1.000  H
  H152     1.0000 0.48530  0.81180  0.83830  Biso   1.000  H
  O29      1.0000 0.00400  0.54230  0.09770  Biso   1.000  O
  O30      1.0000 0.99600  0.54230  0.40230  Biso   1.000  O
  O31      1.0000 0.50400  0.04230  0.09770  Biso   1.000  O
  O32      1.0000 0.49600  0.04230  0.40230  Biso   1.000  O
  O33      1.0000 0.99600  0.45770  0.90230  Biso   1.000  O
  O34      1.0000 0.00400  0.45770  0.59770  Biso   1.000  O
  O35      1.0000 0.49600  0.95770  0.90230  Biso   1.000  O
  O36      1.0000 0.50400  0.95770  0.59770  Biso   1.000  O
  C105     1.0000 0.99870  0.58830  0.11470  Biso   1.000  C
  C106     1.0000 0.00130  0.58830  0.38530  Biso   1.000  C
  C107     1.0000 0.49870  0.08830  0.11470  Biso   1.000  C
  C108     1.0000 0.50130  0.08830  0.38530  Biso   1.000  C
  C109     1.0000 0.00130  0.41170  0.88530  Biso   1.000  C
  C110     1.0000 0.99870  0.41170  0.61470  Biso   1.000  C
  C111     1.0000 0.50130  0.91170  0.88530  Biso   1.000  C
  C112     1.0000 0.49870  0.91170  0.61470  Biso   1.000  C
  H153     1.0000 0.99280  0.61030  0.02520  Biso   1.000  H
  H154     1.0000 0.00720  0.61030  0.47480  Biso   1.000  H
  H155     1.0000 0.49280  0.11030  0.02520  Biso   1.000  H
  H156     1.0000 0.50720  0.11030  0.47480  Biso   1.000  H
  H157     1.0000 0.00720  0.38970  0.97480  Biso   1.000  H
  H158     1.0000 0.99280  0.38970  0.52520  Biso   1.000  H
  H159     1.0000 0.50720  0.88970  0.97480  Biso   1.000  H
  H160     1.0000 0.49280  0.88970  0.52520  Biso   1.000  H
  H161     1.0000 0.05540  0.57770  0.12730  Biso   1.000  H
  H162     1.0000 0.94460  0.57770  0.37270  Biso   1.000  H
  H163     1.0000 0.55540  0.07770  0.12730  Biso   1.000  H
  H164     1.0000 0.44460  0.07770  0.37270  Biso   1.000  H
  H165     1.0000 0.94460  0.42230  0.87270  Biso   1.000  H
  H166     1.0000 0.05540  0.42230  0.62730  Biso   1.000  H
  H167     1.0000 0.44460  0.92230  0.87270  Biso   1.000  H
  H168     1.0000 0.55540  0.92230  0.62730  Biso   1.000  H
  H169     1.0000 0.97590  0.61210  0.02230  Biso   1.000  H
  H170     1.0000 0.02410  0.61210  0.47770  Biso   1.000  H
  H171     1.0000 0.47590  0.11210  0.02230  Biso   1.000  H
  H172     1.0000 0.52410  0.11210  0.47770  Biso   1.000  H
  H173     1.0000 0.02410  0.38790  0.97770  Biso   1.000  H
  H174     1.0000 0.97590  0.38790  0.52230  Biso   1.000  H
  H175     1.0000 0.52410  0.88790  0.97770  Biso   1.000  H
  H176     1.0000 0.47590  0.88790  0.52230  Biso   1.000  H
  H177     1.0000 0.96400  0.55590  0.09930  Biso   1.000  H
  H178     1.0000 0.03600  0.55590  0.40070  Biso   1.000  H
  H179     1.0000 0.46400  0.05590  0.09930  Biso   1.000  H
  H180     1.0000 0.53600  0.05590  0.40070  Biso   1.000  H
  H181     1.0000 0.03600  0.44410  0.90070  Biso   1.000  H
  H182     1.0000 0.96400  0.44410  0.59930  Biso   1.000  H
  H183     1.0000 0.53600  0.94410  0.90070  Biso   1.000  H
  H184     1.0000 0.46400  0.94410  0.59930  Biso   1.000  H
  N17      1.0000 0.00000  0.61570  0.25000  Biso   1.000  N
  N18      1.0000 0.50000  0.11570  0.25000  Biso   1.000  N
  N19      1.0000 0.00000  0.38430  0.75000  Biso   1.000  N
  N20      1.0000 0.50000  0.88430  0.75000  Biso   1.000  N
  C113     1.0000 0.00000  0.67490  0.25000  Biso   1.000  C
  C114     1.0000 0.50000  0.17490  0.25000  Biso   1.000  C
  C115     1.0000 0.00000  0.32510  0.75000  Biso   1.000  C
  C116     1.0000 0.50000  0.82510  0.75000  Biso   1.000  C
  H185     1.0000 0.95930  0.68820  0.14980  Biso   1.000  H
  H186     1.0000 0.04070  0.68820  0.35020  Biso   1.000  H
  H187     1.0000 0.45930  0.18820  0.14980  Biso   1.000  H
  H188     1.0000 0.54070  0.18820  0.35020  Biso   1.000  H
  H189     1.0000 0.04070  0.31180  0.85020  Biso   1.000  H
  H190     1.0000 0.95930  0.31180  0.64980  Biso   1.000  H
  H191     1.0000 0.54070  0.81180  0.85020  Biso   1.000  H
  H192     1.0000 0.45930  0.81180  0.64980  Biso   1.000  H
