data_image0
_cell_length_a       15.9864
_cell_length_b       4.2237
_cell_length_c       14.0722
_cell_angle_alpha    90
_cell_angle_beta     90
_cell_angle_gamma    90

_symmetry_space_group_name_H-M    "P 1"
_symmetry_int_tables_number       1

loop_
  _symmetry_equiv_pos_as_xyz
  'x, y, z'

loop_
  _atom_site_label
  _atom_site_occupancy
  _atom_site_fract_x
  _atom_site_fract_y
  _atom_site_fract_z
  _atom_site_thermal_displace_type
  _atom_site_B_iso_or_equiv
  _atom_site_type_symbol
  I1       1.0000 0.30516  0.19929  0.61918  Biso   1.000  I
  I2       1.0000 0.19484  0.80071  0.11918  Biso   1.000  I
  I3       1.0000 0.69484  0.19929  0.61918  Biso   1.000  I
  I4       1.0000 0.80516  0.80071  0.11918  Biso   1.000  I
  Br1      1.0000 0.00000  0.93020  0.99061  Biso   1.000  Br
  Br2      1.0000 0.50000  0.06980  0.49061  Biso   1.000  Br
  Cu1      1.0000 0.00000  0.42150  0.89559  Biso   1.000  Cu
  Cu2      1.0000 0.50000  0.57850  0.39559  Biso   1.000  Cu
  N1       1.0000 0.09560  0.43710  0.79120  Biso   1.000  N
  N2       1.0000 0.40440  0.56290  0.29120  Biso   1.000  N
  N3       1.0000 0.90440  0.43710  0.79120  Biso   1.000  N
  N4       1.0000 0.59560  0.56290  0.29120  Biso   1.000  N
  N5       1.0000 0.07440  0.57470  0.70770  Biso   1.000  N
  N6       1.0000 0.42560  0.42530  0.20770  Biso   1.000  N
  N7       1.0000 0.92560  0.57470  0.70770  Biso   1.000  N
  N8       1.0000 0.57440  0.42530  0.20770  Biso   1.000  N
  C1       1.0000 0.21310  0.12200  0.85270  Biso   1.000  C
  C2       1.0000 0.28690  0.87800  0.35270  Biso   1.000  C
  C3       1.0000 0.78690  0.12200  0.85270  Biso   1.000  C
  C4       1.0000 0.71310  0.87800  0.35270  Biso   1.000  C
  H1       1.0000 0.18930  0.17520  0.91320  Biso   1.000  H
  H2       1.0000 0.31070  0.82480  0.41320  Biso   1.000  H
  H3       1.0000 0.81070  0.17520  0.91320  Biso   1.000  H
  H4       1.0000 0.68930  0.82480  0.41320  Biso   1.000  H
  H5       1.0000 0.27100  0.18150  0.85160  Biso   1.000  H
  H6       1.0000 0.22900  0.81850  0.35160  Biso   1.000  H
  H7       1.0000 0.72900  0.18150  0.85160  Biso   1.000  H
  H8       1.0000 0.77100  0.81850  0.35160  Biso   1.000  H
  H9       1.0000 0.20840  0.89750  0.84250  Biso   1.000  H
  H10      1.0000 0.29160  0.10250  0.34250  Biso   1.000  H
  H11      1.0000 0.79160  0.89750  0.84250  Biso   1.000  H
  H12      1.0000 0.70840  0.10250  0.34250  Biso   1.000  H
  C5       1.0000 0.16770  0.29160  0.77670  Biso   1.000  C
  C6       1.0000 0.33230  0.70840  0.27670  Biso   1.000  C
  C7       1.0000 0.83230  0.29160  0.77670  Biso   1.000  C
  C8       1.0000 0.66770  0.70840  0.27670  Biso   1.000  C
  C9       1.0000 0.19380  0.34400  0.68250  Biso   1.000  C
  C10      1.0000 0.30620  0.65600  0.18250  Biso   1.000  C
  C11      1.0000 0.80620  0.34400  0.68250  Biso   1.000  C
  C12      1.0000 0.69380  0.65600  0.18250  Biso   1.000  C
  C13      1.0000 0.13260  0.51810  0.63900  Biso   1.000  C
  C14      1.0000 0.36740  0.48190  0.13900  Biso   1.000  C
  C15      1.0000 0.86740  0.51810  0.63900  Biso   1.000  C
  C16      1.0000 0.63260  0.48190  0.13900  Biso   1.000  C
  C17      1.0000 0.12620  0.63900  0.54080  Biso   1.000  C
  C18      1.0000 0.37380  0.36100  0.04080  Biso   1.000  C
  C19      1.0000 0.87380  0.63900  0.54080  Biso   1.000  C
  C20      1.0000 0.62620  0.36100  0.04080  Biso   1.000  C
  H13      1.0000 0.17720  0.59520  0.50730  Biso   1.000  H
  H14      1.0000 0.32280  0.40480  0.00730  Biso   1.000  H
  H15      1.0000 0.82280  0.59520  0.50730  Biso   1.000  H
  H16      1.0000 0.67720  0.40480  0.00730  Biso   1.000  H
  H17      1.0000 0.11680  0.86360  0.54220  Biso   1.000  H
  H18      1.0000 0.38320  0.13640  0.04220  Biso   1.000  H
  H19      1.0000 0.88320  0.86360  0.54220  Biso   1.000  H
  H20      1.0000 0.61680  0.13640  0.04220  Biso   1.000  H
  H21      1.0000 0.08030  0.53720  0.50910  Biso   1.000  H
  H22      1.0000 0.41970  0.46280  0.00910  Biso   1.000  H
  H23      1.0000 0.91970  0.53720  0.50910  Biso   1.000  H
  H24      1.0000 0.58030  0.46280  0.00910  Biso   1.000  H
  C21      1.0000 0.00000  0.76400  0.70330  Biso   1.000  C
  C22      1.0000 0.50000  0.23600  0.20330  Biso   1.000  C
  H25      1.0000 0.00000  0.91340  0.75570  Biso   1.000  H
  H26      1.0000 0.50000  0.08660  0.25570  Biso   1.000  H
  H27      1.0000 0.00000  0.88490  0.64460  Biso   1.000  H
  H28      1.0000 0.50000  0.11510  0.14460  Biso   1.000  H
  N9       1.0000 0.00000  0.07400  0.39700  Biso   1.000  N
  N10      1.0000 0.50000  0.92600  0.89700  Biso   1.000  N
  C23      1.0000 0.00000  0.20100  0.32620  Biso   1.000  C
  C24      1.0000 0.50000  0.79900  0.82620  Biso   1.000  C
  C25      1.0000 0.00000  0.36000  0.23630  Biso   1.000  C
  C26      1.0000 0.50000  0.64000  0.73630  Biso   1.000  C
  H29      1.0000 0.03770  0.53710  0.23880  Biso   1.000  H
  H30      1.0000 0.46230  0.46290  0.73880  Biso   1.000  H
  H31      1.0000 0.96230  0.53710  0.23880  Biso   1.000  H
  H32      1.0000 0.53770  0.46290  0.73880  Biso   1.000  H
  H33      1.0000 0.94460  0.43440  0.22230  Biso   1.000  H
  H34      1.0000 0.55540  0.56560  0.72230  Biso   1.000  H
  H35      1.0000 0.05540  0.43440  0.22230  Biso   1.000  H
  H36      1.0000 0.44460  0.56560  0.72230  Biso   1.000  H
  H37      1.0000 0.01780  0.21640  0.18750  Biso   1.000  H
  H38      1.0000 0.48220  0.78360  0.68750  Biso   1.000  H
  H39      1.0000 0.98220  0.21640  0.18750  Biso   1.000  H
  H40      1.0000 0.51780  0.78360  0.68750  Biso   1.000  H
