data_image0
_cell_length_a       23.296
_cell_length_b       5.7045
_cell_length_c       30.675
_cell_angle_alpha    90
_cell_angle_beta     123.95
_cell_angle_gamma    90

_symmetry_space_group_name_H-M    "P 1"
_symmetry_int_tables_number       1

loop_
  _symmetry_equiv_pos_as_xyz
  'x, y, z'

loop_
  _atom_site_label
  _atom_site_occupancy
  _atom_site_fract_x
  _atom_site_fract_y
  _atom_site_fract_z
  _atom_site_thermal_displace_type
  _atom_site_B_iso_or_equiv
  _atom_site_type_symbol
  Cu1      1.0000 0.39051  0.64606  0.30046  Biso   1.000  Cu
  Cu2      1.0000 0.60949  0.14606  0.19954  Biso   1.000  Cu
  Cu3      1.0000 0.60949  0.35394  0.69954  Biso   1.000  Cu
  Cu4      1.0000 0.39051  0.85394  0.80046  Biso   1.000  Cu
  Cu5      1.0000 0.32806  0.44795  0.34942  Biso   1.000  Cu
  Cu6      1.0000 0.67194  0.94795  0.15058  Biso   1.000  Cu
  Cu7      1.0000 0.67194  0.55205  0.65058  Biso   1.000  Cu
  Cu8      1.0000 0.32806  0.05205  0.84942  Biso   1.000  Cu
  Cu9      1.0000 0.08931  0.66330  0.38820  Biso   1.000  Cu
  Cu10     1.0000 0.91069  0.16330  0.11180  Biso   1.000  Cu
  Cu11     1.0000 0.91069  0.33670  0.61180  Biso   1.000  Cu
  Cu12     1.0000 0.08931  0.83670  0.88820  Biso   1.000  Cu
  Cu13     1.0000 0.16365  0.85323  0.49132  Biso   1.000  Cu
  Cu14     1.0000 0.83635  0.35323  0.00868  Biso   1.000  Cu
  Cu15     1.0000 0.83635  0.14677  0.50868  Biso   1.000  Cu
  Cu16     1.0000 0.16365  0.64677  0.99132  Biso   1.000  Cu
  S1       1.0000 0.45180  0.40050  0.37313  Biso   1.000  S
  S2       1.0000 0.54820  0.90050  0.12687  Biso   1.000  S
  S3       1.0000 0.54820  0.59950  0.62687  Biso   1.000  S
  S4       1.0000 0.45180  0.09950  0.87313  Biso   1.000  S
  S5       1.0000 0.27177  0.70060  0.27239  Biso   1.000  S
  S6       1.0000 0.72823  0.20060  0.22761  Biso   1.000  S
  S7       1.0000 0.72823  0.29940  0.72761  Biso   1.000  S
  S8       1.0000 0.27177  0.79940  0.77239  Biso   1.000  S
  S9       1.0000 0.21612  0.60200  0.46098  Biso   1.000  S
  S10      1.0000 0.78388  0.10200  0.03902  Biso   1.000  S
  S11      1.0000 0.78388  0.39800  0.53902  Biso   1.000  S
  S12      1.0000 0.21612  0.89800  0.96098  Biso   1.000  S
  S13      1.0000 0.03777  0.91310  0.42067  Biso   1.000  S
  S14      1.0000 0.96223  0.41310  0.07933  Biso   1.000  S
  S15      1.0000 0.96223  0.08690  0.57933  Biso   1.000  S
  S16      1.0000 0.03777  0.58690  0.92067  Biso   1.000  S
  N1       1.0000 0.38770  0.52570  0.23780  Biso   1.000  N
  N2       1.0000 0.61230  0.02570  0.26220  Biso   1.000  N
  N3       1.0000 0.61230  0.47430  0.76220  Biso   1.000  N
  N4       1.0000 0.38770  0.97430  0.73780  Biso   1.000  N
  N5       1.0000 0.34550  0.84790  0.90771  Biso   1.000  N
  N6       1.0000 0.65450  0.34790  0.59229  Biso   1.000  N
  N7       1.0000 0.65450  0.15210  0.09229  Biso   1.000  N
  N8       1.0000 0.34550  0.65210  0.40771  Biso   1.000  N
  N9       1.0000 0.43220  0.95610  0.32660  Biso   1.000  N
  N10      1.0000 0.56780  0.45610  0.17340  Biso   1.000  N
  N11      1.0000 0.56780  0.04390  0.67340  Biso   1.000  N
  N12      1.0000 0.43220  0.54390  0.82660  Biso   1.000  N
  N13      1.0000 0.29090  0.15360  0.31531  Biso   1.000  N
  N14      1.0000 0.70910  0.65360  0.18469  Biso   1.000  N
  N15      1.0000 0.70910  0.84640  0.68469  Biso   1.000  N
  N16      1.0000 0.29090  0.34640  0.81531  Biso   1.000  N
  N17      1.0000 0.09690  0.84060  0.33508  Biso   1.000  N
  N18      1.0000 0.90310  0.34060  0.16492  Biso   1.000  N
  N19      1.0000 0.90310  0.15940  0.66492  Biso   1.000  N
  N20      1.0000 0.09690  0.65940  0.83508  Biso   1.000  N
  N21      1.0000 0.15620  0.82460  0.04410  Biso   1.000  N
  N22      1.0000 0.84380  0.32460  0.45590  Biso   1.000  N
  N23      1.0000 0.84380  0.17540  0.95590  Biso   1.000  N
  N24      1.0000 0.15620  0.67540  0.54410  Biso   1.000  N
  N25      1.0000 0.20030  0.16150  0.49495  Biso   1.000  N
  N26      1.0000 0.79970  0.66150  0.00505  Biso   1.000  N
  N27      1.0000 0.79970  0.83850  0.50505  Biso   1.000  N
  N28      1.0000 0.20030  0.33850  0.99495  Biso   1.000  N
  N29      1.0000 0.05120  0.35870  0.38827  Biso   1.000  N
  N30      1.0000 0.94880  0.85870  0.11173  Biso   1.000  N
  N31      1.0000 0.94880  0.64130  0.61173  Biso   1.000  N
  N32      1.0000 0.05120  0.14130  0.88827  Biso   1.000  N
  C1       1.0000 0.42100  0.64100  0.22000  Biso   1.000  C
  C2       1.0000 0.57900  0.14100  0.28000  Biso   1.000  C
  C3       1.0000 0.57900  0.35900  0.78000  Biso   1.000  C
  C4       1.0000 0.42100  0.85900  0.72000  Biso   1.000  C
  H1       1.0000 0.44430  0.77860  0.23690  Biso   1.000  H
  H2       1.0000 0.55570  0.27860  0.26310  Biso   1.000  H
  H3       1.0000 0.55570  0.22140  0.76310  Biso   1.000  H
  H4       1.0000 0.44430  0.72140  0.73690  Biso   1.000  H
  C5       1.0000 0.42240  0.56510  0.17770  Biso   1.000  C
  C6       1.0000 0.57760  0.06510  0.32230  Biso   1.000  C
  C7       1.0000 0.57760  0.43490  0.82230  Biso   1.000  C
  C8       1.0000 0.42240  0.93490  0.67770  Biso   1.000  C
  H5       1.0000 0.44550  0.65320  0.16650  Biso   1.000  H
  H6       1.0000 0.55450  0.15320  0.33350  Biso   1.000  H
  H7       1.0000 0.55450  0.34680  0.83350  Biso   1.000  H
  H8       1.0000 0.44550  0.84680  0.66650  Biso   1.000  H
  C9       1.0000 0.38970  0.35940  0.15195  Biso   1.000  C
  C10      1.0000 0.61030  0.85940  0.34805  Biso   1.000  C
  C11      1.0000 0.61030  0.64060  0.84805  Biso   1.000  C
  C12      1.0000 0.38970  0.14060  0.65195  Biso   1.000  C
  C13      1.0000 0.35460  0.24280  0.16960  Biso   1.000  C
  C14      1.0000 0.64540  0.74280  0.33040  Biso   1.000  C
  C15      1.0000 0.64540  0.75720  0.83040  Biso   1.000  C
  C16      1.0000 0.35460  0.25720  0.66960  Biso   1.000  C
  H9       1.0000 0.33050  0.10610  0.15290  Biso   1.000  H
  H10      1.0000 0.66950  0.60610  0.34710  Biso   1.000  H
  H11      1.0000 0.66950  0.89390  0.84710  Biso   1.000  H
  H12      1.0000 0.33050  0.39390  0.65290  Biso   1.000  H
  C17      1.0000 0.35510  0.32800  0.21210  Biso   1.000  C
  C18      1.0000 0.64490  0.82800  0.28790  Biso   1.000  C
  C19      1.0000 0.64490  0.67200  0.78790  Biso   1.000  C
  C20      1.0000 0.35510  0.17200  0.71210  Biso   1.000  C
  H13      1.0000 0.33150  0.24380  0.22330  Biso   1.000  H
  H14      1.0000 0.66850  0.74380  0.27670  Biso   1.000  H
  H15      1.0000 0.66850  0.75620  0.77670  Biso   1.000  H
  H16      1.0000 0.33150  0.25620  0.72330  Biso   1.000  H
  C21      1.0000 0.39300  0.26210  0.10780  Biso   1.000  C
  C22      1.0000 0.60700  0.76210  0.39220  Biso   1.000  C
  C23      1.0000 0.60700  0.73790  0.89220  Biso   1.000  C
  C24      1.0000 0.39300  0.23790  0.60780  Biso   1.000  C
  H17      1.0000 0.35850  0.13970  0.09030  Biso   1.000  H
  H18      1.0000 0.64150  0.63970  0.40970  Biso   1.000  H
  H19      1.0000 0.64150  0.86030  0.90970  Biso   1.000  H
  H20      1.0000 0.35850  0.36030  0.59030  Biso   1.000  H
  H21      1.0000 0.43800  0.19040  0.12260  Biso   1.000  H
  H22      1.0000 0.56200  0.69040  0.37740  Biso   1.000  H
  H23      1.0000 0.56200  0.80960  0.87740  Biso   1.000  H
  H24      1.0000 0.43800  0.30960  0.62260  Biso   1.000  H
  C25      1.0000 0.38140  0.44210  0.06669  Biso   1.000  C
  C26      1.0000 0.61860  0.94210  0.43331  Biso   1.000  C
  C27      1.0000 0.61860  0.55790  0.93331  Biso   1.000  C
  C28      1.0000 0.38140  0.05790  0.56669  Biso   1.000  C
  H25      1.0000 0.41370  0.57070  0.08390  Biso   1.000  H
  H26      1.0000 0.58630  0.07070  0.41610  Biso   1.000  H
  H27      1.0000 0.58630  0.42930  0.91610  Biso   1.000  H
  H28      1.0000 0.41370  0.92930  0.58390  Biso   1.000  H
  H29      1.0000 0.33490  0.50490  0.04920  Biso   1.000  H
  H30      1.0000 0.66510  0.00490  0.45080  Biso   1.000  H
  H31      1.0000 0.66510  0.49510  0.95080  Biso   1.000  H
  H32      1.0000 0.33490  0.99510  0.54920  Biso   1.000  H
  C29      1.0000 0.39130  0.33110  0.02570  Biso   1.000  C
  C30      1.0000 0.60870  0.83110  0.47430  Biso   1.000  C
  C31      1.0000 0.60870  0.66890  0.97430  Biso   1.000  C
  C32      1.0000 0.39130  0.16890  0.52570  Biso   1.000  C
  H33      1.0000 0.43850  0.27510  0.04290  Biso   1.000  H
  H34      1.0000 0.56150  0.77510  0.45710  Biso   1.000  H
  H35      1.0000 0.56150  0.72490  0.95710  Biso   1.000  H
  H36      1.0000 0.43850  0.22490  0.54290  Biso   1.000  H
  H37      1.0000 0.36050  0.19770  0.00960  Biso   1.000  H
  H38      1.0000 0.63950  0.69770  0.49040  Biso   1.000  H
  H39      1.0000 0.63950  0.80230  0.99040  Biso   1.000  H
  H40      1.0000 0.36050  0.30230  0.50960  Biso   1.000  H
  C33      1.0000 0.29870  0.69210  0.90140  Biso   1.000  C
  C34      1.0000 0.70130  0.19210  0.59860  Biso   1.000  C
  C35      1.0000 0.70130  0.30790  0.09860  Biso   1.000  C
  C36      1.0000 0.29870  0.80790  0.40140  Biso   1.000  C
  H41      1.0000 0.25440  0.70100  0.87090  Biso   1.000  H
  H42      1.0000 0.74560  0.20100  0.62910  Biso   1.000  H
  H43      1.0000 0.74560  0.29900  0.12910  Biso   1.000  H
  H44      1.0000 0.25440  0.79900  0.37090  Biso   1.000  H
  C37      1.0000 0.31180  0.51870  0.93720  Biso   1.000  C
  C38      1.0000 0.68820  0.01870  0.56280  Biso   1.000  C
  C39      1.0000 0.68820  0.48130  0.06280  Biso   1.000  C
  C40      1.0000 0.31180  0.98130  0.43720  Biso   1.000  C
  H45      1.0000 0.27750  0.41150  0.92990  Biso   1.000  H
  H46      1.0000 0.72250  0.91150  0.57010  Biso   1.000  H
  H47      1.0000 0.72250  0.58850  0.07010  Biso   1.000  H
  H48      1.0000 0.27750  0.08850  0.42990  Biso   1.000  H
  C41      1.0000 0.37650  0.50500  0.98400  Biso   1.000  C
  C42      1.0000 0.62350  0.00500  0.51600  Biso   1.000  C
  C43      1.0000 0.62350  0.49500  0.01600  Biso   1.000  C
  C44      1.0000 0.37650  0.99500  0.48400  Biso   1.000  C
  C45      1.0000 0.42510  0.66830  0.99110  Biso   1.000  C
  C46      1.0000 0.57490  0.16830  0.50890  Biso   1.000  C
  C47      1.0000 0.57490  0.33170  0.00890  Biso   1.000  C
  C48      1.0000 0.42510  0.83170  0.49110  Biso   1.000  C
  H49      1.0000 0.46940  0.66630  0.02180  Biso   1.000  H
  H50      1.0000 0.53060  0.16630  0.47820  Biso   1.000  H
  H51      1.0000 0.53060  0.33370  0.97820  Biso   1.000  H
  H52      1.0000 0.46940  0.83370  0.52180  Biso   1.000  H
  C49      1.0000 0.40820  0.83270  0.95320  Biso   1.000  C
  C50      1.0000 0.59180  0.33270  0.54680  Biso   1.000  C
  C51      1.0000 0.59180  0.16730  0.04680  Biso   1.000  C
  C52      1.0000 0.40820  0.66730  0.45320  Biso   1.000  C
  H53      1.0000 0.44190  0.94000  0.95920  Biso   1.000  H
  H54      1.0000 0.55810  0.44000  0.54080  Biso   1.000  H
  H55      1.0000 0.55810  0.06000  0.04080  Biso   1.000  H
  H56      1.0000 0.44190  0.56000  0.45920  Biso   1.000  H
  C53      1.0000 0.44050  0.13930  0.34580  Biso   1.000  C
  C54      1.0000 0.55950  0.63930  0.15420  Biso   1.000  C
  C55      1.0000 0.55950  0.86070  0.65420  Biso   1.000  C
  C56      1.0000 0.44050  0.36070  0.84580  Biso   1.000  C
  C57      1.0000 0.28270  0.96840  0.29760  Biso   1.000  C
  C58      1.0000 0.71730  0.46840  0.20240  Biso   1.000  C
  C59      1.0000 0.71730  0.03160  0.70240  Biso   1.000  C
  C60      1.0000 0.28270  0.53160  0.79760  Biso   1.000  C
  C61      1.0000 0.07070  0.76220  0.28580  Biso   1.000  C
  C62      1.0000 0.92930  0.26220  0.21420  Biso   1.000  C
  C63      1.0000 0.92930  0.23780  0.71420  Biso   1.000  C
  C64      1.0000 0.07070  0.73780  0.78580  Biso   1.000  C
  H57      1.0000 0.04800  0.61840  0.27580  Biso   1.000  H
  H58      1.0000 0.95200  0.11840  0.22420  Biso   1.000  H
  H59      1.0000 0.95200  0.38160  0.72420  Biso   1.000  H
  H60      1.0000 0.04800  0.88160  0.77580  Biso   1.000  H
  C65      1.0000 0.07610  0.88670  0.24950  Biso   1.000  C
  C66      1.0000 0.92390  0.38670  0.25050  Biso   1.000  C
  C67      1.0000 0.92390  0.11330  0.75050  Biso   1.000  C
  C68      1.0000 0.07610  0.61330  0.74950  Biso   1.000  C
  H61      1.0000 0.05700  0.82550  0.21600  Biso   1.000  H
  H62      1.0000 0.94300  0.32550  0.28400  Biso   1.000  H
  H63      1.0000 0.94300  0.17450  0.78400  Biso   1.000  H
  H64      1.0000 0.05700  0.67450  0.71600  Biso   1.000  H
  C69      1.0000 0.10940  0.10120  0.26240  Biso   1.000  C
  C70      1.0000 0.89060  0.60120  0.23760  Biso   1.000  C
  C71      1.0000 0.89060  0.89880  0.73760  Biso   1.000  C
  C72      1.0000 0.10940  0.39880  0.76240  Biso   1.000  C
  C73      1.0000 0.13770  0.18030  0.31378  Biso   1.000  C
  C74      1.0000 0.86230  0.68030  0.18622  Biso   1.000  C
  C75      1.0000 0.86230  0.81970  0.68622  Biso   1.000  C
  C76      1.0000 0.13770  0.31970  0.81378  Biso   1.000  C
  H65      1.0000 0.16140  0.32210  0.32480  Biso   1.000  H
  H66      1.0000 0.83860  0.82210  0.17520  Biso   1.000  H
  H67      1.0000 0.83860  0.67790  0.67520  Biso   1.000  H
  H68      1.0000 0.16140  0.17790  0.82480  Biso   1.000  H
  C77      1.0000 0.13030  0.04680  0.34830  Biso   1.000  C
  C78      1.0000 0.86970  0.54680  0.15170  Biso   1.000  C
  C79      1.0000 0.86970  0.95320  0.65170  Biso   1.000  C
  C80      1.0000 0.13030  0.45320  0.84830  Biso   1.000  C
  H69      1.0000 0.14930  0.10320  0.38220  Biso   1.000  H
  H70      1.0000 0.85070  0.60320  0.11780  Biso   1.000  H
  H71      1.0000 0.85070  0.89680  0.61780  Biso   1.000  H
  H72      1.0000 0.14930  0.39680  0.88220  Biso   1.000  H
  C81      1.0000 0.11630  0.24710  0.22448  Biso   1.000  C
  C82      1.0000 0.88370  0.74710  0.27552  Biso   1.000  C
  C83      1.0000 0.88370  0.75290  0.77552  Biso   1.000  C
  C84      1.0000 0.11630  0.25290  0.72448  Biso   1.000  C
  H73      1.0000 0.15760  0.34270  0.24440  Biso   1.000  H
  H74      1.0000 0.84240  0.84270  0.25560  Biso   1.000  H
  H75      1.0000 0.84240  0.65730  0.75560  Biso   1.000  H
  H76      1.0000 0.15760  0.15730  0.74440  Biso   1.000  H
  H77      1.0000 0.07690  0.35210  0.20590  Biso   1.000  H
  H78      1.0000 0.92310  0.85210  0.29410  Biso   1.000  H
  H79      1.0000 0.92310  0.64790  0.79410  Biso   1.000  H
  H80      1.0000 0.07690  0.14790  0.70590  Biso   1.000  H
  C85      1.0000 0.12040  0.10210  0.18349  Biso   1.000  C
  C86      1.0000 0.87960  0.60210  0.31651  Biso   1.000  C
  C87      1.0000 0.87960  0.89790  0.81651  Biso   1.000  C
  C88      1.0000 0.12040  0.39790  0.68349  Biso   1.000  C
  H81      1.0000 0.14880  0.96440  0.20040  Biso   1.000  H
  H82      1.0000 0.85120  0.46440  0.29960  Biso   1.000  H
  H83      1.0000 0.85120  0.03560  0.79960  Biso   1.000  H
  H84      1.0000 0.14880  0.53560  0.70040  Biso   1.000  H
  H85      1.0000 0.07430  0.04950  0.15600  Biso   1.000  H
  H86      1.0000 0.92570  0.54950  0.34400  Biso   1.000  H
  H87      1.0000 0.92570  0.95050  0.84400  Biso   1.000  H
  H88      1.0000 0.07430  0.45050  0.65600  Biso   1.000  H
  C89      1.0000 0.15080  0.24430  0.15900  Biso   1.000  C
  C90      1.0000 0.84920  0.74430  0.34100  Biso   1.000  C
  C91      1.0000 0.84920  0.75570  0.84100  Biso   1.000  C
  C92      1.0000 0.15080  0.25570  0.65900  Biso   1.000  C
  H89      1.0000 0.12280  0.38320  0.14240  Biso   1.000  H
  H90      1.0000 0.87720  0.88320  0.35760  Biso   1.000  H
  H91      1.0000 0.87720  0.61680  0.85760  Biso   1.000  H
  H92      1.0000 0.12280  0.11680  0.64240  Biso   1.000  H
  H93      1.0000 0.19720  0.29460  0.18630  Biso   1.000  H
  H94      1.0000 0.80280  0.79460  0.31370  Biso   1.000  H
  H95      1.0000 0.80280  0.70540  0.81370  Biso   1.000  H
  H96      1.0000 0.19720  0.20540  0.68630  Biso   1.000  H
  C93      1.0000 0.19770  0.77800  0.09570  Biso   1.000  C
  C94      1.0000 0.80230  0.27800  0.40430  Biso   1.000  C
  C95      1.0000 0.80230  0.22200  0.90430  Biso   1.000  C
  C96      1.0000 0.19770  0.72200  0.59570  Biso   1.000  C
  H97      1.0000 0.22770  0.65100  0.10660  Biso   1.000  H
  H98      1.0000 0.77230  0.15100  0.39340  Biso   1.000  H
  H99      1.0000 0.77230  0.34900  0.89340  Biso   1.000  H
  H100     1.0000 0.22770  0.84900  0.60660  Biso   1.000  H
  C97      1.0000 0.19770  0.91090  0.13340  Biso   1.000  C
  C98      1.0000 0.80230  0.41090  0.36660  Biso   1.000  C
  C99      1.0000 0.80230  0.08910  0.86660  Biso   1.000  C
  C100     1.0000 0.19770  0.58910  0.63340  Biso   1.000  C
  H101     1.0000 0.22750  0.87220  0.16870  Biso   1.000  H
  H102     1.0000 0.77250  0.37220  0.33130  Biso   1.000  H
  H103     1.0000 0.77250  0.12780  0.83130  Biso   1.000  H
  H104     1.0000 0.22750  0.62780  0.66870  Biso   1.000  H
  C101     1.0000 0.15340  0.10270  0.11880  Biso   1.000  C
  C102     1.0000 0.84660  0.60270  0.38120  Biso   1.000  C
  C103     1.0000 0.84660  0.89730  0.88120  Biso   1.000  C
  C104     1.0000 0.15340  0.39730  0.61880  Biso   1.000  C
  C105     1.0000 0.11060  0.14870  0.06540  Biso   1.000  C
  C106     1.0000 0.88940  0.64870  0.43460  Biso   1.000  C
  C107     1.0000 0.88940  0.85130  0.93460  Biso   1.000  C
  C108     1.0000 0.11060  0.35130  0.56540  Biso   1.000  C
  H105     1.0000 0.07960  0.27330  0.05340  Biso   1.000  H
  H106     1.0000 0.92040  0.77330  0.44660  Biso   1.000  H
  H107     1.0000 0.92040  0.72670  0.94660  Biso   1.000  H
  H108     1.0000 0.07960  0.22670  0.55340  Biso   1.000  H
  C109     1.0000 0.11400  0.00910  0.03030  Biso   1.000  C
  C110     1.0000 0.88600  0.50910  0.46970  Biso   1.000  C
  C111     1.0000 0.88600  0.99090  0.96970  Biso   1.000  C
  C112     1.0000 0.11400  0.49090  0.53030  Biso   1.000  C
  H109     1.0000 0.08520  0.04560  0.99470  Biso   1.000  H
  H110     1.0000 0.91480  0.54560  0.50530  Biso   1.000  H
  H111     1.0000 0.91480  0.95440  0.00530  Biso   1.000  H
  H112     1.0000 0.08520  0.45440  0.49470  Biso   1.000  H
  C113     1.0000 0.20650  0.34280  0.48130  Biso   1.000  C
  C114     1.0000 0.79350  0.84280  0.01870  Biso   1.000  C
  C115     1.0000 0.79350  0.65720  0.51870  Biso   1.000  C
  C116     1.0000 0.20650  0.15720  0.98130  Biso   1.000  C
  C117     1.0000 0.04570  0.17730  0.40196  Biso   1.000  C
  C118     1.0000 0.95430  0.67730  0.09804  Biso   1.000  C
  C119     1.0000 0.95430  0.82270  0.59804  Biso   1.000  C
  C120     1.0000 0.04570  0.32270  0.90196  Biso   1.000  C
