data_image0
_cell_length_a       10.631
_cell_length_b       10.948
_cell_length_c       12.701
_cell_angle_alpha    99.427
_cell_angle_beta     114.082
_cell_angle_gamma    100.871

_symmetry_space_group_name_H-M    "P 1"
_symmetry_int_tables_number       1

loop_
  _symmetry_equiv_pos_as_xyz
  'x, y, z'

loop_
  _atom_site_label
  _atom_site_occupancy
  _atom_site_fract_x
  _atom_site_fract_y
  _atom_site_fract_z
  _atom_site_thermal_displace_type
  _atom_site_B_iso_or_equiv
  _atom_site_type_symbol
  O1       1.0000 0.70820  0.41660  0.03470  Biso   1.000  O
  O2       1.0000 0.29180  0.58340  0.96530  Biso   1.000  O
  O3       1.0000 0.99830  0.58343  0.92660  Biso   1.000  O
  O4       1.0000 0.00170  0.41657  0.07340  Biso   1.000  O
  O5       1.0000 0.79640  0.35321  0.85871  Biso   1.000  O
  O6       1.0000 0.20360  0.64679  0.14129  Biso   1.000  O
  O7       1.0000 0.77240  0.52242  0.71177  Biso   1.000  O
  O8       1.0000 0.22760  0.47758  0.28823  Biso   1.000  O
  O9       1.0000 0.92880  0.76300  0.74480  Biso   1.000  O
  O10      1.0000 0.07120  0.23700  0.25520  Biso   1.000  O
  O11      1.0000 0.93890  0.80487  0.96915  Biso   1.000  O
  O12      1.0000 0.06110  0.19513  0.03085  Biso   1.000  O
  O13      1.0000 0.73050  0.58341  0.90242  Biso   1.000  O
  O14      1.0000 0.26950  0.41659  0.09758  Biso   1.000  O
  O15      1.0000 0.67730  0.74630  0.75378  Biso   1.000  O
  O16      1.0000 0.32270  0.25370  0.24622  Biso   1.000  O
  O17      1.0000 0.22900  0.83730  0.02316  Biso   1.000  O
  O18      1.0000 0.77100  0.16270  0.97684  Biso   1.000  O
  O19      1.0000 0.02930  0.50910  0.70574  Biso   1.000  O
  O20      1.0000 0.97070  0.49090  0.29426  Biso   1.000  O
  O21      1.0000 0.82130  0.28870  0.63790  Biso   1.000  O
  O22      1.0000 0.17870  0.71130  0.36210  Biso   1.000  O
  O23      1.0000 0.95350  0.63480  0.12743  Biso   1.000  O
  O24      1.0000 0.04650  0.36520  0.87257  Biso   1.000  O
  O25      1.0000 0.16150  0.88700  0.20475  Biso   1.000  O
  O26      1.0000 0.83850  0.11300  0.79525  Biso   1.000  O
  N1       1.0000 0.08520  0.14250  0.68780  Biso   1.000  N
  N2       1.0000 0.91480  0.85750  0.31220  Biso   1.000  N
  N3       1.0000 0.78620  0.14230  0.39200  Biso   1.000  N
  N4       1.0000 0.21380  0.85770  0.60800  Biso   1.000  N
  N5       1.0000 0.36180  0.52500  0.61020  Biso   1.000  N
  N6       1.0000 0.63820  0.47500  0.38980  Biso   1.000  N
  N7       1.0000 0.52710  0.76940  0.48950  Biso   1.000  N
  N8       1.0000 0.47290  0.23060  0.51050  Biso   1.000  N
  C1       1.0000 0.21390  0.23370  0.75570  Biso   1.000  C
  C2       1.0000 0.78610  0.76630  0.24430  Biso   1.000  C
  C3       1.0000 0.30210  0.23020  0.87040  Biso   1.000  C
  C4       1.0000 0.69790  0.76980  0.12960  Biso   1.000  C
  H1       1.0000 0.39030  0.29240  0.91560  Biso   1.000  H
  H2       1.0000 0.60970  0.70760  0.08440  Biso   1.000  H
  C5       1.0000 0.25990  0.13500  0.91780  Biso   1.000  C
  C6       1.0000 0.74010  0.86500  0.08220  Biso   1.000  C
  H3       1.0000 0.31620  0.13560  0.99650  Biso   1.000  H
  H4       1.0000 0.68380  0.86440  0.00350  Biso   1.000  H
  C7       1.0000 0.13250  0.03870  0.84680  Biso   1.000  C
  C8       1.0000 0.86750  0.96130  0.15320  Biso   1.000  C
  H5       1.0000 0.10380  0.97080  0.87500  Biso   1.000  H
  H6       1.0000 0.89620  0.02920  0.12500  Biso   1.000  H
  C9       1.0000 0.04950  0.04590  0.73330  Biso   1.000  C
  C10      1.0000 0.95050  0.95410  0.26670  Biso   1.000  C
  H7       1.0000 0.96420  0.98080  0.68520  Biso   1.000  H
  H8       1.0000 0.03580  0.01920  0.31480  Biso   1.000  H
  C11      1.0000 0.41250  0.54020  0.72880  Biso   1.000  C
  C12      1.0000 0.58750  0.45980  0.27120  Biso   1.000  C
  H9       1.0000 0.48370  0.61550  0.78020  Biso   1.000  H
  H10      1.0000 0.51630  0.38450  0.21980  Biso   1.000  H
  C13      1.0000 0.36490  0.45080  0.77790  Biso   1.000  C
  C14      1.0000 0.63510  0.54920  0.22210  Biso   1.000  C
  H11      1.0000 0.40280  0.46680  0.86070  Biso   1.000  H
  H12      1.0000 0.59720  0.53320  0.13930  Biso   1.000  H
  C15      1.0000 0.25870  0.33500  0.70350  Biso   1.000  C
  C16      1.0000 0.74130  0.66500  0.29650  Biso   1.000  C
  C17      1.0000 0.20530  0.31970  0.58020  Biso   1.000  C
  C18      1.0000 0.79470  0.68030  0.41980  Biso   1.000  C
  H13      1.0000 0.13480  0.24480  0.52670  Biso   1.000  H
  H14      1.0000 0.86520  0.75520  0.47330  Biso   1.000  H
  C19      1.0000 0.25720  0.41530  0.53770  Biso   1.000  C
  C20      1.0000 0.74280  0.58470  0.46230  Biso   1.000  C
  H15      1.0000 0.21830  0.40370  0.45540  Biso   1.000  H
  H16      1.0000 0.78170  0.59630  0.54460  Biso   1.000  H
  C21      1.0000 0.65560  0.05290  0.32890  Biso   1.000  C
  C22      1.0000 0.34440  0.94710  0.67110  Biso   1.000  C
  C23      1.0000 0.56440  0.05100  0.21280  Biso   1.000  C
  C24      1.0000 0.43560  0.94900  0.78720  Biso   1.000  C
  H17      1.0000 0.47370  0.99190  0.17210  Biso   1.000  H
  H18      1.0000 0.52630  0.00810  0.82790  Biso   1.000  H
  C25      1.0000 0.60900  0.13750  0.15760  Biso   1.000  C
  C26      1.0000 0.39100  0.86250  0.84240  Biso   1.000  C
  H19      1.0000 0.55100  0.13350  0.07830  Biso   1.000  H
  H20      1.0000 0.44900  0.86650  0.92170  Biso   1.000  H
  C27      1.0000 0.74040  0.22910  0.22220  Biso   1.000  C
  C28      1.0000 0.25960  0.77090  0.77780  Biso   1.000  C
  H21      1.0000 0.77170  0.28930  0.18790  Biso   1.000  H
  H22      1.0000 0.22830  0.71070  0.81210  Biso   1.000  H
  C29      1.0000 0.82460  0.23010  0.33880  Biso   1.000  C
  C30      1.0000 0.17540  0.76990  0.66120  Biso   1.000  C
  H23      1.0000 0.91170  0.29400  0.38290  Biso   1.000  H
  H24      1.0000 0.08830  0.70600  0.61710  Biso   1.000  H
  C31      1.0000 0.48130  0.74460  0.37020  Biso   1.000  C
  C32      1.0000 0.51870  0.25540  0.62980  Biso   1.000  C
  H25      1.0000 0.41990  0.66360  0.32210  Biso   1.000  H
  H26      1.0000 0.58010  0.33640  0.67790  Biso   1.000  H
  C33      1.0000 0.52100  0.83340  0.31660  Biso   1.000  C
  C34      1.0000 0.47900  0.16660  0.68340  Biso   1.000  C
  H27      1.0000 0.48650  0.81200  0.23390  Biso   1.000  H
  H28      1.0000 0.51350  0.18800  0.76610  Biso   1.000  H
  C35      1.0000 0.61360  0.95630  0.38660  Biso   1.000  C
  C36      1.0000 0.38640  0.04370  0.61340  Biso   1.000  C
  C37      1.0000 0.66020  0.98180  0.51010  Biso   1.000  C
  C38      1.0000 0.33980  0.01820  0.48990  Biso   1.000  C
  H29      1.0000 0.72060  0.06240  0.56010  Biso   1.000  H
  H30      1.0000 0.27940  0.93760  0.43990  Biso   1.000  H
  C39      1.0000 0.61680  0.88760  0.55800  Biso   1.000  C
  C40      1.0000 0.38320  0.11240  0.44200  Biso   1.000  C
  H31      1.0000 0.65050  0.90610  0.64050  Biso   1.000  H
  H32      1.0000 0.34950  0.09390  0.35950  Biso   1.000  H
  Cu1      1.0000 0.92753  0.15492  0.54966  Biso   1.000  Cu
  Cu2      1.0000 0.07247  0.84508  0.45034  Biso   1.000  Cu
  Cu3      1.0000 0.44983  0.64784  0.55367  Biso   1.000  Cu
  Cu4      1.0000 0.55017  0.35216  0.44633  Biso   1.000  Cu
  Mo1      1.0000 0.82417  0.49216  0.98953  Biso   1.000  Mo
  Mo2      1.0000 0.17583  0.50784  0.01047  Biso   1.000  Mo
  Mo3      1.0000 0.82994  0.69789  0.80942  Biso   1.000  Mo
  Mo4      1.0000 0.17006  0.30211  0.19058  Biso   1.000  Mo
  Mo5      1.0000 0.11200  0.77674  0.07406  Biso   1.000  Mo
  Mo6      1.0000 0.88800  0.22326  0.92594  Biso   1.000  Mo
  Mo7      1.0000 0.91292  0.43053  0.74899  Biso   1.000  Mo
  Mo8      1.0000 0.08708  0.56947  0.25101  Biso   1.000  Mo
