data_image0
_cell_length_a       26.145
_cell_length_b       16.869
_cell_length_c       13.608
_cell_angle_alpha    90
_cell_angle_beta     90
_cell_angle_gamma    90

_symmetry_space_group_name_H-M    "P 1"
_symmetry_int_tables_number       1

loop_
  _symmetry_equiv_pos_as_xyz
  'x, y, z'

loop_
  _atom_site_label
  _atom_site_occupancy
  _atom_site_fract_x
  _atom_site_fract_y
  _atom_site_fract_z
  _atom_site_thermal_displace_type
  _atom_site_B_iso_or_equiv
  _atom_site_type_symbol
  I1       1.0000 0.28688  0.93948  0.38310  Biso   1.000  I
  I2       1.0000 0.71312  0.06052  0.88310  Biso   1.000  I
  I3       1.0000 0.21312  0.43948  0.88310  Biso   1.000  I
  I4       1.0000 0.78688  0.56052  0.38310  Biso   1.000  I
  I5       1.0000 0.33432  0.93393  0.06038  Biso   1.000  I
  I6       1.0000 0.66568  0.06607  0.56038  Biso   1.000  I
  I7       1.0000 0.16568  0.43393  0.56038  Biso   1.000  I
  I8       1.0000 0.83432  0.56607  0.06038  Biso   1.000  I
  Sr1      1.0000 0.48107  0.46703  0.34089  Biso   1.000  Sr
  Sr2      1.0000 0.51893  0.53297  0.84089  Biso   1.000  Sr
  Sr3      1.0000 0.01893  0.96703  0.84089  Biso   1.000  Sr
  Sr4      1.0000 0.98107  0.03297  0.34089  Biso   1.000  Sr
  Sr5      1.0000 0.56216  0.56175  0.56159  Biso   1.000  Sr
  Sr6      1.0000 0.43784  0.43825  0.06159  Biso   1.000  Sr
  Sr7      1.0000 0.93784  0.06175  0.06159  Biso   1.000  Sr
  Sr8      1.0000 0.06216  0.93825  0.56159  Biso   1.000  Sr
  Cu1      1.0000 0.27161  0.87410  0.20110  Biso   1.000  Cu
  Cu2      1.0000 0.72839  0.12590  0.70110  Biso   1.000  Cu
  Cu3      1.0000 0.22839  0.37410  0.70110  Biso   1.000  Cu
  Cu4      1.0000 0.77161  0.62590  0.20110  Biso   1.000  Cu
  Cu5      1.0000 0.36340  0.95172  0.24555  Biso   1.000  Cu
  Cu6      1.0000 0.63660  0.04828  0.74555  Biso   1.000  Cu
  Cu7      1.0000 0.13660  0.45172  0.74555  Biso   1.000  Cu
  Cu8      1.0000 0.86340  0.54828  0.24555  Biso   1.000  Cu
  O1       1.0000 0.50420  0.61010  0.37470  Biso   1.000  O
  O2       1.0000 0.49580  0.38990  0.87470  Biso   1.000  O
  O3       1.0000 0.99580  0.11010  0.87470  Biso   1.000  O
  O4       1.0000 0.00420  0.88990  0.37470  Biso   1.000  O
  O5       1.0000 0.55240  0.36020  0.34210  Biso   1.000  O
  O6       1.0000 0.44760  0.63980  0.84210  Biso   1.000  O
  O7       1.0000 0.94760  0.86020  0.84210  Biso   1.000  O
  O8       1.0000 0.05240  0.13980  0.34210  Biso   1.000  O
  O9       1.0000 0.41830  0.53320  0.20030  Biso   1.000  O
  O10      1.0000 0.58170  0.46680  0.70030  Biso   1.000  O
  O11      1.0000 0.08170  0.03320  0.70030  Biso   1.000  O
  O12      1.0000 0.91830  0.96680  0.20030  Biso   1.000  O
  N1       1.0000 0.29830  0.76200  0.21760  Biso   1.000  N
  N2       1.0000 0.70170  0.23800  0.71760  Biso   1.000  N
  N3       1.0000 0.20170  0.26200  0.71760  Biso   1.000  N
  N4       1.0000 0.79830  0.73800  0.21760  Biso   1.000  N
  O13      1.0000 0.47610  0.47160  0.52550  Biso   1.000  O
  O14      1.0000 0.52390  0.52840  0.02550  Biso   1.000  O
  O15      1.0000 0.02390  0.97160  0.02550  Biso   1.000  O
  O16      1.0000 0.97610  0.02840  0.52550  Biso   1.000  O
  O17      1.0000 0.47470  0.52650  0.67290  Biso   1.000  O
  O18      1.0000 0.52530  0.47350  0.17290  Biso   1.000  O
  O19      1.0000 0.02530  0.02650  0.17290  Biso   1.000  O
  O20      1.0000 0.97470  0.97350  0.67290  Biso   1.000  O
  O21      1.0000 0.58190  0.45990  0.43090  Biso   1.000  O
  O22      1.0000 0.41810  0.54010  0.93090  Biso   1.000  O
  O23      1.0000 0.91810  0.95990  0.93090  Biso   1.000  O
  O24      1.0000 0.08190  0.04010  0.43090  Biso   1.000  O
  O25      1.0000 0.49240  0.66500  0.51980  Biso   1.000  O
  O26      1.0000 0.50760  0.33500  0.01980  Biso   1.000  O
  O27      1.0000 0.00760  0.16500  0.01980  Biso   1.000  O
  O28      1.0000 0.99240  0.83500  0.51980  Biso   1.000  O
  O29      1.0000 0.54870  0.65360  0.71210  Biso   1.000  O
  O30      1.0000 0.45130  0.34640  0.21210  Biso   1.000  O
  O31      1.0000 0.95130  0.15360  0.21210  Biso   1.000  O
  O32      1.0000 0.04870  0.84640  0.71210  Biso   1.000  O
  O33      1.0000 0.57280  0.66020  0.86750  Biso   1.000  O
  O34      1.0000 0.42720  0.33980  0.36750  Biso   1.000  O
  O35      1.0000 0.92720  0.16020  0.36750  Biso   1.000  O
  O36      1.0000 0.07280  0.83980  0.86750  Biso   1.000  O
  N5       1.0000 0.61630  0.93180  0.75320  Biso   1.000  N
  N6       1.0000 0.38370  0.06820  0.25320  Biso   1.000  N
  N7       1.0000 0.88370  0.43180  0.25320  Biso   1.000  N
  N8       1.0000 0.11630  0.56820  0.75320  Biso   1.000  N
  N9       1.0000 0.41270  0.86510  0.29630  Biso   1.000  N
  N10      1.0000 0.58730  0.13490  0.79630  Biso   1.000  N
  N11      1.0000 0.08730  0.36510  0.79630  Biso   1.000  N
  N12      1.0000 0.91270  0.63490  0.29630  Biso   1.000  N
  C1       1.0000 0.30650  0.73290  0.30940  Biso   1.000  C
  C2       1.0000 0.69350  0.26710  0.80940  Biso   1.000  C
  C3       1.0000 0.19350  0.23290  0.80940  Biso   1.000  C
  C4       1.0000 0.80650  0.76710  0.30940  Biso   1.000  C
  H1       1.0000 0.29320  0.76070  0.36260  Biso   1.000  H
  H2       1.0000 0.70680  0.23930  0.86260  Biso   1.000  H
  H3       1.0000 0.20680  0.26070  0.86260  Biso   1.000  H
  H4       1.0000 0.79320  0.73930  0.36260  Biso   1.000  H
  C5       1.0000 0.39070  0.55690  0.27090  Biso   1.000  C
  C6       1.0000 0.60930  0.44310  0.77090  Biso   1.000  C
  C7       1.0000 0.10930  0.05690  0.77090  Biso   1.000  C
  C8       1.0000 0.89070  0.94310  0.27090  Biso   1.000  C
  O37      1.0000 0.39230  0.52910  0.35490  Biso   1.000  O
  O38      1.0000 0.60770  0.47090  0.85490  Biso   1.000  O
  O39      1.0000 0.10770  0.02910  0.85490  Biso   1.000  O
  O40      1.0000 0.89230  0.97090  0.35490  Biso   1.000  O
  N13      1.0000 0.30190  0.40110  0.66950  Biso   1.000  N
  N14      1.0000 0.69810  0.59890  0.16950  Biso   1.000  N
  N15      1.0000 0.19810  0.90110  0.16950  Biso   1.000  N
  N16      1.0000 0.80190  0.09890  0.66950  Biso   1.000  N
  C9       1.0000 0.35700  0.62530  0.25100  Biso   1.000  C
  C10      1.0000 0.64300  0.37470  0.75100  Biso   1.000  C
  C11      1.0000 0.14300  0.12530  0.75100  Biso   1.000  C
  C12      1.0000 0.85700  0.87470  0.25100  Biso   1.000  C
  C13      1.0000 0.46350  0.73550  0.38200  Biso   1.000  C
  C14      1.0000 0.53650  0.26450  0.88200  Biso   1.000  C
  C15      1.0000 0.03650  0.23550  0.88200  Biso   1.000  C
  C16      1.0000 0.96350  0.76450  0.38200  Biso   1.000  C
  C17      1.0000 0.45420  0.48450  0.60700  Biso   1.000  C
  C18      1.0000 0.54580  0.51550  0.10700  Biso   1.000  C
  C19      1.0000 0.04580  0.98450  0.10700  Biso   1.000  C
  C20      1.0000 0.95420  0.01550  0.60700  Biso   1.000  C
  C21      1.0000 0.64000  0.35410  0.39070  Biso   1.000  C
  C22      1.0000 0.36000  0.64590  0.89070  Biso   1.000  C
  C23      1.0000 0.86000  0.85410  0.89070  Biso   1.000  C
  C24      1.0000 0.14000  0.14590  0.39070  Biso   1.000  C
  C25      1.0000 0.36850  0.42940  0.55390  Biso   1.000  C
  C26      1.0000 0.63150  0.57060  0.05390  Biso   1.000  C
  C27      1.0000 0.13150  0.92940  0.05390  Biso   1.000  C
  C28      1.0000 0.86850  0.07060  0.55390  Biso   1.000  C
  H5       1.0000 0.37980  0.42720  0.48920  Biso   1.000  H
  H6       1.0000 0.62020  0.57280  0.98920  Biso   1.000  H
  H7       1.0000 0.12020  0.92720  0.98920  Biso   1.000  H
  H8       1.0000 0.87980  0.07280  0.48920  Biso   1.000  H
  C29      1.0000 0.40110  0.45420  0.62640  Biso   1.000  C
  C30      1.0000 0.59890  0.54580  0.12640  Biso   1.000  C
  C31      1.0000 0.09890  0.95420  0.12640  Biso   1.000  C
  C32      1.0000 0.90110  0.04580  0.62640  Biso   1.000  C
  C33      1.0000 0.33310  0.66560  0.32750  Biso   1.000  C
  C34      1.0000 0.66690  0.33440  0.82750  Biso   1.000  C
  C35      1.0000 0.16690  0.16560  0.82750  Biso   1.000  C
  C36      1.0000 0.83310  0.83440  0.32750  Biso   1.000  C
  H9       1.0000 0.33540  0.64630  0.39130  Biso   1.000  H
  H10      1.0000 0.66460  0.35370  0.89130  Biso   1.000  H
  H11      1.0000 0.16460  0.14630  0.89130  Biso   1.000  H
  H12      1.0000 0.83540  0.85370  0.39130  Biso   1.000  H
  C37      1.0000 0.58780  0.39440  0.38900  Biso   1.000  C
  C38      1.0000 0.41220  0.60560  0.88900  Biso   1.000  C
  C39      1.0000 0.91220  0.89440  0.88900  Biso   1.000  C
  C40      1.0000 0.08780  0.10560  0.38900  Biso   1.000  C
  C41      1.0000 0.31820  0.71910  0.14460  Biso   1.000  C
  C42      1.0000 0.68180  0.28090  0.64460  Biso   1.000  C
  C43      1.0000 0.18180  0.21910  0.64460  Biso   1.000  C
  C44      1.0000 0.81820  0.78090  0.14460  Biso   1.000  C
  H13      1.0000 0.31160  0.73560  0.08060  Biso   1.000  H
  H14      1.0000 0.68840  0.26440  0.58060  Biso   1.000  H
  H15      1.0000 0.18840  0.23560  0.58060  Biso   1.000  H
  H16      1.0000 0.81160  0.76440  0.08060  Biso   1.000  H
  C45      1.0000 0.64330  0.27290  0.36790  Biso   1.000  C
  C46      1.0000 0.35670  0.72710  0.86790  Biso   1.000  C
  C47      1.0000 0.85670  0.77290  0.86790  Biso   1.000  C
  C48      1.0000 0.14330  0.22710  0.36790  Biso   1.000  C
  H17      1.0000 0.61460  0.24330  0.35100  Biso   1.000  H
  H18      1.0000 0.38540  0.75670  0.85100  Biso   1.000  H
  H19      1.0000 0.88540  0.74330  0.85100  Biso   1.000  H
  H20      1.0000 0.11460  0.25670  0.35100  Biso   1.000  H
  C49      1.0000 0.34700  0.65370  0.15680  Biso   1.000  C
  C50      1.0000 0.65300  0.34630  0.65680  Biso   1.000  C
  C51      1.0000 0.15300  0.15370  0.65680  Biso   1.000  C
  C52      1.0000 0.84700  0.84630  0.15680  Biso   1.000  C
  H21      1.0000 0.36030  0.62750  0.10230  Biso   1.000  H
  H22      1.0000 0.63970  0.37250  0.60230  Biso   1.000  H
  H23      1.0000 0.13970  0.12750  0.60230  Biso   1.000  H
  H24      1.0000 0.86030  0.87250  0.10230  Biso   1.000  H
  C53      1.0000 0.44440  0.79780  0.43610  Biso   1.000  C
  C54      1.0000 0.55560  0.20220  0.93610  Biso   1.000  C
  C55      1.0000 0.05560  0.29780  0.93610  Biso   1.000  C
  C56      1.0000 0.94440  0.70220  0.43610  Biso   1.000  C
  H25      1.0000 0.44880  0.79790  0.50400  Biso   1.000  H
  H26      1.0000 0.55120  0.20210  0.00400  Biso   1.000  H
  H27      1.0000 0.05120  0.29790  0.00400  Biso   1.000  H
  H28      1.0000 0.94880  0.70210  0.50400  Biso   1.000  H
  C57      1.0000 0.33380  0.42190  0.74030  Biso   1.000  C
  C58      1.0000 0.66620  0.57810  0.24030  Biso   1.000  C
  C59      1.0000 0.16620  0.92190  0.24030  Biso   1.000  C
  C60      1.0000 0.83380  0.07810  0.74030  Biso   1.000  C
  H29      1.0000 0.32200  0.42090  0.80490  Biso   1.000  H
  H30      1.0000 0.67800  0.57910  0.30490  Biso   1.000  H
  H31      1.0000 0.17800  0.92090  0.30490  Biso   1.000  H
  H32      1.0000 0.82200  0.07910  0.80490  Biso   1.000  H
  C61      1.0000 0.56900  0.68770  0.78430  Biso   1.000  C
  C62      1.0000 0.43100  0.31230  0.28430  Biso   1.000  C
  C63      1.0000 0.93100  0.18770  0.28430  Biso   1.000  C
  C64      1.0000 0.06900  0.81230  0.78430  Biso   1.000  C
  C65      1.0000 0.31990  0.40800  0.57540  Biso   1.000  C
  C66      1.0000 0.68010  0.59200  0.07540  Biso   1.000  C
  C67      1.0000 0.18010  0.90800  0.07540  Biso   1.000  C
  C68      1.0000 0.81990  0.09200  0.57540  Biso   1.000  C
  H33      1.0000 0.29760  0.39740  0.52370  Biso   1.000  H
  H34      1.0000 0.70240  0.60260  0.02370  Biso   1.000  H
  H35      1.0000 0.20240  0.89740  0.02370  Biso   1.000  H
  H36      1.0000 0.79760  0.10260  0.52370  Biso   1.000  H
  C69      1.0000 0.58710  0.77170  0.77030  Biso   1.000  C
  C70      1.0000 0.41290  0.22830  0.27030  Biso   1.000  C
  C71      1.0000 0.91290  0.27170  0.27030  Biso   1.000  C
  C72      1.0000 0.08710  0.72830  0.77030  Biso   1.000  C
  C73      1.0000 0.60800  0.81270  0.84920  Biso   1.000  C
  C74      1.0000 0.39200  0.18730  0.34920  Biso   1.000  C
  C75      1.0000 0.89200  0.31270  0.34920  Biso   1.000  C
  C76      1.0000 0.10800  0.68730  0.84920  Biso   1.000  C
  H37      1.0000 0.61330  0.78770  0.90920  Biso   1.000  H
  H38      1.0000 0.38670  0.21230  0.40920  Biso   1.000  H
  H39      1.0000 0.88670  0.28770  0.40920  Biso   1.000  H
  H40      1.0000 0.11330  0.71230  0.90920  Biso   1.000  H
  C77      1.0000 0.62090  0.89340  0.83560  Biso   1.000  C
  C78      1.0000 0.37910  0.10660  0.33560  Biso   1.000  C
  C79      1.0000 0.87910  0.39340  0.33560  Biso   1.000  C
  C80      1.0000 0.12090  0.60660  0.83560  Biso   1.000  C
  H41      1.0000 0.63350  0.92100  0.88960  Biso   1.000  H
  H42      1.0000 0.36650  0.07900  0.38960  Biso   1.000  H
  H43      1.0000 0.86650  0.42100  0.38960  Biso   1.000  H
  H44      1.0000 0.13350  0.57900  0.88960  Biso   1.000  H
  C81      1.0000 0.38520  0.44580  0.72280  Biso   1.000  C
  C82      1.0000 0.61480  0.55420  0.22280  Biso   1.000  C
  C83      1.0000 0.11480  0.94580  0.22280  Biso   1.000  C
  C84      1.0000 0.88520  0.05420  0.72280  Biso   1.000  C
  H45      1.0000 0.40750  0.45550  0.77470  Biso   1.000  H
  H46      1.0000 0.59250  0.54450  0.27470  Biso   1.000  H
  H47      1.0000 0.09250  0.95550  0.27470  Biso   1.000  H
  H48      1.0000 0.90750  0.04450  0.77470  Biso   1.000  H
  C85      1.0000 0.48790  0.66460  0.42960  Biso   1.000  C
  C86      1.0000 0.51210  0.33540  0.92960  Biso   1.000  C
  C87      1.0000 0.01210  0.16460  0.92960  Biso   1.000  C
  C88      1.0000 0.98790  0.83540  0.42960  Biso   1.000  C
  C89      1.0000 0.45680  0.74280  0.28190  Biso   1.000  C
  C90      1.0000 0.54320  0.25720  0.78190  Biso   1.000  C
  C91      1.0000 0.04320  0.24280  0.78190  Biso   1.000  C
  C92      1.0000 0.95680  0.75720  0.28190  Biso   1.000  C
  H49      1.0000 0.46900  0.70350  0.24020  Biso   1.000  H
  H50      1.0000 0.53100  0.29650  0.74020  Biso   1.000  H
  H51      1.0000 0.03100  0.20350  0.74020  Biso   1.000  H
  H52      1.0000 0.96900  0.79650  0.24020  Biso   1.000  H
  C93      1.0000 0.59910  0.88830  0.67690  Biso   1.000  C
  C94      1.0000 0.40090  0.11170  0.17690  Biso   1.000  C
  C95      1.0000 0.90090  0.38830  0.17690  Biso   1.000  C
  C96      1.0000 0.09910  0.61170  0.67690  Biso   1.000  C
  H53      1.0000 0.59810  0.91300  0.61580  Biso   1.000  H
  H54      1.0000 0.40190  0.08700  0.11580  Biso   1.000  H
  H55      1.0000 0.90190  0.41300  0.11580  Biso   1.000  H
  H56      1.0000 0.09810  0.58700  0.61580  Biso   1.000  H
  C97      1.0000 0.41940  0.85900  0.39300  Biso   1.000  C
  C98      1.0000 0.58060  0.14100  0.89300  Biso   1.000  C
  C99      1.0000 0.08060  0.35900  0.89300  Biso   1.000  C
  C100     1.0000 0.91940  0.64100  0.39300  Biso   1.000  C
  H57      1.0000 0.40630  0.89880  0.43300  Biso   1.000  H
  H58      1.0000 0.59370  0.10120  0.93300  Biso   1.000  H
  H59      1.0000 0.09370  0.39880  0.93300  Biso   1.000  H
  H60      1.0000 0.90630  0.60120  0.43300  Biso   1.000  H
  N17      1.0000 0.28640  0.68250  0.61930  Biso   1.000  N
  N18      1.0000 0.71360  0.31750  0.11930  Biso   1.000  N
  N19      1.0000 0.21360  0.18250  0.11930  Biso   1.000  N
  N20      1.0000 0.78640  0.81750  0.61930  Biso   1.000  N
  C101     1.0000 0.43230  0.80720  0.24350  Biso   1.000  C
  C102     1.0000 0.56770  0.19280  0.74350  Biso   1.000  C
  C103     1.0000 0.06770  0.30720  0.74350  Biso   1.000  C
  C104     1.0000 0.93230  0.69280  0.24350  Biso   1.000  C
  H61      1.0000 0.42930  0.81040  0.17550  Biso   1.000  H
  H62      1.0000 0.57070  0.18960  0.67550  Biso   1.000  H
  H63      1.0000 0.07070  0.31040  0.67550  Biso   1.000  H
  H64      1.0000 0.92930  0.68960  0.17550  Biso   1.000  H
  C105     1.0000 0.58270  0.81040  0.68110  Biso   1.000  C
  C106     1.0000 0.41730  0.18960  0.18110  Biso   1.000  C
  C107     1.0000 0.91730  0.31040  0.18110  Biso   1.000  C
  C108     1.0000 0.08270  0.68960  0.68110  Biso   1.000  C
  H65      1.0000 0.56930  0.78500  0.62620  Biso   1.000  H
  H66      1.0000 0.43070  0.21500  0.12620  Biso   1.000  H
  H67      1.0000 0.93070  0.28500  0.12620  Biso   1.000  H
  H68      1.0000 0.06930  0.71500  0.62620  Biso   1.000  H
  C109     1.0000 0.69180  0.23950  0.37190  Biso   1.000  C
  C110     1.0000 0.30820  0.76050  0.87190  Biso   1.000  C
  C111     1.0000 0.80820  0.73950  0.87190  Biso   1.000  C
  C112     1.0000 0.19180  0.26050  0.37190  Biso   1.000  C
  H69      1.0000 0.69330  0.18520  0.36000  Biso   1.000  H
  H70      1.0000 0.30670  0.81480  0.86000  Biso   1.000  H
  H71      1.0000 0.80670  0.68520  0.86000  Biso   1.000  H
  H72      1.0000 0.19330  0.31480  0.36000  Biso   1.000  H
  N21      1.0000 0.73490  0.27310  0.38980  Biso   1.000  N
  N22      1.0000 0.26510  0.72690  0.88980  Biso   1.000  N
  N23      1.0000 0.76510  0.77310  0.88980  Biso   1.000  N
  N24      1.0000 0.23490  0.22690  0.38980  Biso   1.000  N
  C113     1.0000 0.72780  0.35340  0.41120  Biso   1.000  C
  C114     1.0000 0.27220  0.64660  0.91120  Biso   1.000  C
  C115     1.0000 0.77220  0.85340  0.91120  Biso   1.000  C
  C116     1.0000 0.22780  0.14660  0.41120  Biso   1.000  C
  H73      1.0000 0.75690  0.38200  0.42760  Biso   1.000  H
  H74      1.0000 0.24310  0.61800  0.92760  Biso   1.000  H
  H75      1.0000 0.74310  0.88200  0.92760  Biso   1.000  H
  H76      1.0000 0.25690  0.11800  0.42760  Biso   1.000  H
  O41      1.0000 0.37150  0.66940  0.62080  Biso   1.000  O
  O42      1.0000 0.62850  0.33060  0.12080  Biso   1.000  O
  O43      1.0000 0.12850  0.16940  0.12080  Biso   1.000  O
  O44      1.0000 0.87150  0.83060  0.62080  Biso   1.000  O
  C117     1.0000 0.33080  0.64500  0.62900  Biso   1.000  C
  C118     1.0000 0.66920  0.35500  0.12900  Biso   1.000  C
  C119     1.0000 0.16920  0.14500  0.12900  Biso   1.000  C
  C120     1.0000 0.83080  0.85500  0.62900  Biso   1.000  C
  H77      1.0000 0.32860  0.59130  0.64470  Biso   1.000  H
  H78      1.0000 0.67140  0.40870  0.14470  Biso   1.000  H
  H79      1.0000 0.17140  0.09130  0.14470  Biso   1.000  H
  H80      1.0000 0.82860  0.90870  0.64470  Biso   1.000  H
  Na1      1.0000 0.45380  0.67750  0.67350  Biso   1.000  Na
  Na2      1.0000 0.54620  0.32250  0.17350  Biso   1.000  Na
  Na3      1.0000 0.04620  0.17750  0.17350  Biso   1.000  Na
  Na4      1.0000 0.95380  0.82250  0.67350  Biso   1.000  Na
  O45      1.0000 0.45060  0.81410  0.70820  Biso   1.000  O
  O46      1.0000 0.54940  0.18590  0.20820  Biso   1.000  O
  O47      1.0000 0.04940  0.31410  0.20820  Biso   1.000  O
  O48      1.0000 0.95060  0.68590  0.70820  Biso   1.000  O
  C121     1.0000 0.23490  0.64890  0.64600  Biso   1.000  C
  C122     1.0000 0.76510  0.35110  0.14600  Biso   1.000  C
  C123     1.0000 0.26510  0.14890  0.14600  Biso   1.000  C
  C124     1.0000 0.73490  0.85110  0.64600  Biso   1.000  C
  H81      1.0000 0.21920  0.62640  0.58900  Biso   1.000  H
  H82      1.0000 0.78080  0.37360  0.08900  Biso   1.000  H
  H83      1.0000 0.28080  0.12640  0.08900  Biso   1.000  H
  H84      1.0000 0.71920  0.87360  0.58900  Biso   1.000  H
  H85      1.0000 0.21350  0.69050  0.67160  Biso   1.000  H
  H86      1.0000 0.78650  0.30950  0.17160  Biso   1.000  H
  H87      1.0000 0.28650  0.19050  0.17160  Biso   1.000  H
  H88      1.0000 0.71350  0.80950  0.67160  Biso   1.000  H
  H89      1.0000 0.23910  0.60860  0.69540  Biso   1.000  H
  H90      1.0000 0.76090  0.39140  0.19540  Biso   1.000  H
  H91      1.0000 0.26090  0.10860  0.19540  Biso   1.000  H
  H92      1.0000 0.73910  0.89140  0.69540  Biso   1.000  H
  C125     1.0000 0.28490  0.76300  0.59900  Biso   1.000  C
  C126     1.0000 0.71510  0.23700  0.09900  Biso   1.000  C
  C127     1.0000 0.21510  0.26300  0.09900  Biso   1.000  C
  C128     1.0000 0.78490  0.73700  0.59900  Biso   1.000  C
  H93      1.0000 0.30590  0.79090  0.64580  Biso   1.000  H
  H94      1.0000 0.69410  0.20910  0.14580  Biso   1.000  H
  H95      1.0000 0.19410  0.29090  0.14580  Biso   1.000  H
  H96      1.0000 0.80590  0.70910  0.64580  Biso   1.000  H
  H97      1.0000 0.25030  0.78160  0.60390  Biso   1.000  H
  H98      1.0000 0.74970  0.21840  0.10390  Biso   1.000  H
  H99      1.0000 0.24970  0.28160  0.10390  Biso   1.000  H
  H100     1.0000 0.75030  0.71840  0.60390  Biso   1.000  H
  H101     1.0000 0.29760  0.77240  0.53400  Biso   1.000  H
  H102     1.0000 0.70240  0.22760  0.03400  Biso   1.000  H
  H103     1.0000 0.20240  0.27240  0.03400  Biso   1.000  H
  H104     1.0000 0.79760  0.72760  0.53400  Biso   1.000  H
  C129     1.0000 0.68420  0.39340  0.41070  Biso   1.000  C
  C130     1.0000 0.31580  0.60660  0.91070  Biso   1.000  C
  C131     1.0000 0.81580  0.89340  0.91070  Biso   1.000  C
  C132     1.0000 0.18420  0.10660  0.41070  Biso   1.000  C
  H105     1.0000 0.68380  0.44750  0.42380  Biso   1.000  H
  H106     1.0000 0.31620  0.55250  0.92380  Biso   1.000  H
  H107     1.0000 0.81620  0.94750  0.92380  Biso   1.000  H
  H108     1.0000 0.18380  0.05250  0.42380  Biso   1.000  H
  N25      1.0000 0.72070  0.55140  0.71620  Biso   1.000  N
  N26      1.0000 0.27930  0.44860  0.21620  Biso   1.000  N
  N27      1.0000 0.77930  0.05140  0.21620  Biso   1.000  N
  N28      1.0000 0.22070  0.94860  0.71620  Biso   1.000  N
  O49      1.0000 0.66030  0.57170  0.60050  Biso   1.000  O
  O50      1.0000 0.33970  0.42830  0.10050  Biso   1.000  O
  O51      1.0000 0.83970  0.07170  0.10050  Biso   1.000  O
  O52      1.0000 0.16030  0.92830  0.60050  Biso   1.000  O
  N29      1.0000 0.63870  0.77560  0.38800  Biso   1.000  N
  N30      1.0000 0.36130  0.22440  0.88800  Biso   1.000  N
  N31      1.0000 0.86130  0.27560  0.88800  Biso   1.000  N
  N32      1.0000 0.13870  0.72440  0.38800  Biso   1.000  N
  O53      1.0000 0.60720  0.67520  0.47190  Biso   1.000  O
  O54      1.0000 0.39280  0.32480  0.97190  Biso   1.000  O
  O55      1.0000 0.89280  0.17520  0.97190  Biso   1.000  O
  O56      1.0000 0.10720  0.82480  0.47190  Biso   1.000  O
  C133     1.0000 0.69760  0.54410  0.63100  Biso   1.000  C
  C134     1.0000 0.30240  0.45590  0.13100  Biso   1.000  C
  C135     1.0000 0.80240  0.04410  0.13100  Biso   1.000  C
  C136     1.0000 0.19760  0.95590  0.63100  Biso   1.000  C
  H109     1.0000 0.71430  0.51070  0.58710  Biso   1.000  H
  H110     1.0000 0.28570  0.48930  0.08710  Biso   1.000  H
  H111     1.0000 0.78570  0.01070  0.08710  Biso   1.000  H
  H112     1.0000 0.21430  0.98930  0.58710  Biso   1.000  H
  C137     1.0000 0.63570  0.71010  0.44000  Biso   1.000  C
  C138     1.0000 0.36430  0.28990  0.94000  Biso   1.000  C
  C139     1.0000 0.86430  0.21010  0.94000  Biso   1.000  C
  C140     1.0000 0.13570  0.78990  0.44000  Biso   1.000  C
  H113     1.0000 0.66800  0.68930  0.45280  Biso   1.000  H
  H114     1.0000 0.33200  0.31070  0.95280  Biso   1.000  H
  H115     1.0000 0.83200  0.18930  0.95280  Biso   1.000  H
  H116     1.0000 0.16800  0.81070  0.45280  Biso   1.000  H
  C141     1.0000 0.69390  0.61670  0.77900  Biso   1.000  C
  C142     1.0000 0.30610  0.38330  0.27900  Biso   1.000  C
  C143     1.0000 0.80610  0.11670  0.27900  Biso   1.000  C
  C144     1.0000 0.19390  0.88330  0.77900  Biso   1.000  C
  H117     1.0000 0.70850  0.66750  0.76440  Biso   1.000  H
  H118     1.0000 0.29150  0.33250  0.26440  Biso   1.000  H
  H119     1.0000 0.79150  0.16750  0.26440  Biso   1.000  H
  H120     1.0000 0.20850  0.83250  0.76440  Biso   1.000  H
  H121     1.0000 0.69880  0.60520  0.84790  Biso   1.000  H
  H122     1.0000 0.30120  0.39480  0.34790  Biso   1.000  H
  H123     1.0000 0.80120  0.10520  0.34790  Biso   1.000  H
  H124     1.0000 0.19880  0.89480  0.84790  Biso   1.000  H
  H125     1.0000 0.65800  0.61730  0.76490  Biso   1.000  H
  H126     1.0000 0.34200  0.38270  0.26490  Biso   1.000  H
  H127     1.0000 0.84200  0.11730  0.26490  Biso   1.000  H
  H128     1.0000 0.15800  0.88270  0.76490  Biso   1.000  H
  C145     1.0000 0.68120  0.82030  0.35400  Biso   1.000  C
  C146     1.0000 0.31880  0.17970  0.85400  Biso   1.000  C
  C147     1.0000 0.81880  0.32030  0.85400  Biso   1.000  C
  C148     1.0000 0.18120  0.67970  0.35400  Biso   1.000  C
  H129     1.0000 0.71010  0.81050  0.39580  Biso   1.000  H
  H130     1.0000 0.28990  0.18950  0.89580  Biso   1.000  H
  H131     1.0000 0.78990  0.31050  0.89580  Biso   1.000  H
  H132     1.0000 0.21010  0.68950  0.39580  Biso   1.000  H
  H133     1.0000 0.67290  0.87570  0.35540  Biso   1.000  H
  H134     1.0000 0.32710  0.12430  0.85540  Biso   1.000  H
  H135     1.0000 0.82710  0.37570  0.85540  Biso   1.000  H
  H136     1.0000 0.17290  0.62430  0.35540  Biso   1.000  H
  H137     1.0000 0.68940  0.80490  0.28790  Biso   1.000  H
  H138     1.0000 0.31060  0.19510  0.78790  Biso   1.000  H
  H139     1.0000 0.81060  0.30490  0.78790  Biso   1.000  H
  H140     1.0000 0.18940  0.69510  0.28790  Biso   1.000  H
  C149     1.0000 0.59390  0.82510  0.38700  Biso   1.000  C
  C150     1.0000 0.40610  0.17490  0.88700  Biso   1.000  C
  C151     1.0000 0.90610  0.32510  0.88700  Biso   1.000  C
  C152     1.0000 0.09390  0.67490  0.38700  Biso   1.000  C
  H141     1.0000 0.56930  0.80510  0.43280  Biso   1.000  H
  H142     1.0000 0.43070  0.19490  0.93280  Biso   1.000  H
  H143     1.0000 0.93070  0.30510  0.93280  Biso   1.000  H
  H144     1.0000 0.06930  0.69490  0.43280  Biso   1.000  H
  H145     1.0000 0.57920  0.82490  0.32190  Biso   1.000  H
  H146     1.0000 0.42080  0.17510  0.82190  Biso   1.000  H
  H147     1.0000 0.92080  0.32490  0.82190  Biso   1.000  H
  H148     1.0000 0.07920  0.67510  0.32190  Biso   1.000  H
  H149     1.0000 0.60320  0.87830  0.40420  Biso   1.000  H
  H150     1.0000 0.39680  0.12170  0.90420  Biso   1.000  H
  H151     1.0000 0.89680  0.37830  0.90420  Biso   1.000  H
  H152     1.0000 0.10320  0.62170  0.40420  Biso   1.000  H
  C153     1.0000 0.75530  0.51530  0.78000  Biso   1.000  C
  C154     1.0000 0.24470  0.48470  0.28000  Biso   1.000  C
  C155     1.0000 0.74470  0.01530  0.28000  Biso   1.000  C
  C156     1.0000 0.25530  0.98470  0.78000  Biso   1.000  C
  H153     1.0000 0.74710  0.46000  0.78600  Biso   1.000  H
  H154     1.0000 0.25290  0.54000  0.28600  Biso   1.000  H
  H155     1.0000 0.75290  0.96000  0.28600  Biso   1.000  H
  H156     1.0000 0.24710  0.04000  0.78600  Biso   1.000  H
  H157     1.0000 0.75330  0.54010  0.84330  Biso   1.000  H
  H158     1.0000 0.24670  0.45990  0.34330  Biso   1.000  H
  H159     1.0000 0.74670  0.04010  0.34330  Biso   1.000  H
  H160     1.0000 0.25330  0.95990  0.84330  Biso   1.000  H
  H161     1.0000 0.78930  0.52090  0.75440  Biso   1.000  H
  H162     1.0000 0.21070  0.47910  0.25440  Biso   1.000  H
  H163     1.0000 0.71070  0.02090  0.25440  Biso   1.000  H
  H164     1.0000 0.28930  0.97910  0.75440  Biso   1.000  H
  C157     1.0000 0.46830  0.86930  0.76400  Biso   1.000  C
  C158     1.0000 0.53170  0.13070  0.26400  Biso   1.000  C
  C159     1.0000 0.03170  0.36930  0.26400  Biso   1.000  C
  C160     1.0000 0.96830  0.63070  0.76400  Biso   1.000  C
  N33      1.0000 0.44290  0.94940  0.75700  Biso   1.000  N
  N34      1.0000 0.55710  0.05060  0.25700  Biso   1.000  N
  N35      1.0000 0.05710  0.44940  0.25700  Biso   1.000  N
  N36      1.0000 0.94290  0.55060  0.75700  Biso   1.000  N
  C161     1.0000 0.48060  0.00400  0.80700  Biso   1.000  C
  C162     1.0000 0.51940  0.99600  0.30700  Biso   1.000  C
  C163     1.0000 0.01940  0.50400  0.30700  Biso   1.000  C
  C164     1.0000 0.98060  0.49600  0.80700  Biso   1.000  C
  H165     1.0000 0.50310  0.97390  0.84810  Biso   1.000  H
  H166     1.0000 0.49690  0.02610  0.34810  Biso   1.000  H
  H167     1.0000 0.99690  0.47390  0.34810  Biso   1.000  H
  H168     1.0000 0.00310  0.52610  0.84810  Biso   1.000  H
  H169     1.0000 0.46230  0.04200  0.84670  Biso   1.000  H
  H170     1.0000 0.53770  0.95800  0.34670  Biso   1.000  H
  H171     1.0000 0.03770  0.54200  0.34670  Biso   1.000  H
  H172     1.0000 0.96230  0.45800  0.84670  Biso   1.000  H
  H173     1.0000 0.50030  0.03210  0.75840  Biso   1.000  H
  H174     1.0000 0.49970  0.96790  0.25840  Biso   1.000  H
  H175     1.0000 0.99970  0.53210  0.25840  Biso   1.000  H
  H176     1.0000 0.00030  0.46790  0.75840  Biso   1.000  H
  C165     1.0000 0.38620  0.93750  0.78100  Biso   1.000  C
  C166     1.0000 0.61380  0.06250  0.28100  Biso   1.000  C
  C167     1.0000 0.11380  0.43750  0.28100  Biso   1.000  C
  C168     1.0000 0.88620  0.56250  0.78100  Biso   1.000  C
  H177     1.0000 0.37050  0.90540  0.73130  Biso   1.000  H
  H178     1.0000 0.62950  0.09460  0.23130  Biso   1.000  H
  H179     1.0000 0.12950  0.40540  0.23130  Biso   1.000  H
  H180     1.0000 0.87050  0.59460  0.73130  Biso   1.000  H
  H181     1.0000 0.36940  0.98810  0.78370  Biso   1.000  H
  H182     1.0000 0.63060  0.01190  0.28370  Biso   1.000  H
  H183     1.0000 0.13060  0.48810  0.28370  Biso   1.000  H
  H184     1.0000 0.86940  0.51190  0.78370  Biso   1.000  H
  H185     1.0000 0.38310  0.91170  0.84370  Biso   1.000  H
  H186     1.0000 0.61690  0.08830  0.34370  Biso   1.000  H
  H187     1.0000 0.11690  0.41170  0.34370  Biso   1.000  H
  H188     1.0000 0.88310  0.58830  0.84370  Biso   1.000  H
