data_image0
_cell_length_a       12.305
_cell_length_b       14.283
_cell_length_c       17.104
_cell_angle_alpha    101.054
_cell_angle_beta     92.084
_cell_angle_gamma    96.198

_symmetry_space_group_name_H-M    "P 1"
_symmetry_int_tables_number       1

loop_
  _symmetry_equiv_pos_as_xyz
  'x, y, z'

loop_
  _atom_site_label
  _atom_site_occupancy
  _atom_site_fract_x
  _atom_site_fract_y
  _atom_site_fract_z
  _atom_site_thermal_displace_type
  _atom_site_B_iso_or_equiv
  _atom_site_type_symbol
  I1       1.0000 0.58557  0.05700  0.39972  Biso   1.000  I
  I2       1.0000 0.41443  0.94300  0.60028  Biso   1.000  I
  Sr1      1.0000 0.07258  0.50120  0.36660  Biso   1.000  Sr
  Sr2      1.0000 0.92742  0.49880  0.63340  Biso   1.000  Sr
  Sr3      1.0000 0.02997  0.49168  0.12110  Biso   1.000  Sr
  Sr4      1.0000 0.97003  0.50832  0.87890  Biso   1.000  Sr
  I3       1.0000 0.47500  0.90870  0.09523  Biso   1.000  I
  I4       1.0000 0.52500  0.09130  0.90477  Biso   1.000  I
  Cu1      1.0000 0.40329  0.01766  0.46761  Biso   1.000  Cu
  Cu2      1.0000 0.59671  0.98234  0.53239  Biso   1.000  Cu
  Cu3      1.0000 0.50202  0.07809  0.05585  Biso   1.000  Cu
  Cu4      1.0000 0.49798  0.92191  0.94415  Biso   1.000  Cu
  O1       1.0000 0.05820  0.61790  0.26190  Biso   1.000  O
  O2       1.0000 0.94180  0.38210  0.73810  Biso   1.000  O
  O3       1.0000 0.92120  0.43790  0.23870  Biso   1.000  O
  O4       1.0000 0.07880  0.56210  0.76130  Biso   1.000  O
  O5       1.0000 0.10490  0.41640  0.47700  Biso   1.000  O
  O6       1.0000 0.89510  0.58360  0.52300  Biso   1.000  O
  O7       1.0000 0.89140  0.36920  0.34270  Biso   1.000  O
  O8       1.0000 0.10860  0.63080  0.65730  Biso   1.000  O
  C1       1.0000 0.78440  0.30520  0.22190  Biso   1.000  C
  C2       1.0000 0.21560  0.69480  0.77810  Biso   1.000  C
  C3       1.0000 0.11900  0.37060  0.53220  Biso   1.000  C
  C4       1.0000 0.88100  0.62940  0.46780  Biso   1.000  C
  C5       1.0000 0.18790  0.28790  0.51600  Biso   1.000  C
  C6       1.0000 0.81210  0.71210  0.48400  Biso   1.000  C
  C7       1.0000 0.17650  0.76540  0.28400  Biso   1.000  C
  C8       1.0000 0.82350  0.23460  0.71600  Biso   1.000  C
  O9       1.0000 0.12600  0.66660  0.15630  Biso   1.000  O
  O10      1.0000 0.87400  0.33340  0.84370  Biso   1.000  O
  O11      1.0000 0.15380  0.35110  0.29160  Biso   1.000  O
  O12      1.0000 0.84620  0.64890  0.70840  Biso   1.000  O
  C9       1.0000 0.15840  0.78480  0.36540  Biso   1.000  C
  C10      1.0000 0.84160  0.21520  0.63460  Biso   1.000  C
  H1       1.0000 0.10430  0.74770  0.38620  Biso   1.000  H
  H2       1.0000 0.89570  0.25230  0.61380  Biso   1.000  H
  C11      1.0000 0.25800  0.82200  0.25640  Biso   1.000  C
  C12      1.0000 0.74200  0.17800  0.74360  Biso   1.000  C
  H3       1.0000 0.27300  0.80900  0.20270  Biso   1.000  H
  H4       1.0000 0.72700  0.19100  0.79730  Biso   1.000  H
  C13      1.0000 0.24700  0.27090  0.44900  Biso   1.000  C
  C14      1.0000 0.75300  0.72910  0.55100  Biso   1.000  C
  H5       1.0000 0.24470  0.31010  0.41150  Biso   1.000  H
  H6       1.0000 0.75530  0.68990  0.58850  Biso   1.000  H
  C15      1.0000 0.87160  0.37610  0.27130  Biso   1.000  C
  C16      1.0000 0.12840  0.62390  0.72870  Biso   1.000  C
  C17      1.0000 0.22170  0.85920  0.41340  Biso   1.000  C
  C18      1.0000 0.77830  0.14080  0.58660  Biso   1.000  C
  H7       1.0000 0.20770  0.87300  0.46730  Biso   1.000  H
  H8       1.0000 0.79230  0.12700  0.53270  Biso   1.000  H
  C19      1.0000 0.18680  0.36400  0.22630  Biso   1.000  C
  C20      1.0000 0.81320  0.63600  0.77370  Biso   1.000  C
  O13      1.0000 0.28140  0.57250  0.36820  Biso   1.000  O
  O14      1.0000 0.71860  0.42750  0.63180  Biso   1.000  O
  C21      1.0000 0.31720  0.89730  0.30730  Biso   1.000  C
  C22      1.0000 0.68280  0.10270  0.69270  Biso   1.000  C
  H9       1.0000 0.36790  0.93790  0.28680  Biso   1.000  H
  H10      1.0000 0.63210  0.06210  0.71320  Biso   1.000  H
  C23      1.0000 0.11520  0.67760  0.23050  Biso   1.000  C
  C24      1.0000 0.88480  0.32240  0.76950  Biso   1.000  C
  C25      1.0000 0.73210  0.22650  0.24880  Biso   1.000  C
  C26      1.0000 0.26790  0.77350  0.75120  Biso   1.000  C
  H11      1.0000 0.74740  0.21900  0.30080  Biso   1.000  H
  H12      1.0000 0.25260  0.78100  0.69920  Biso   1.000  H
  O15      1.0000 0.17500  0.43590  0.19730  Biso   1.000  O
  O16      1.0000 0.82500  0.56410  0.80270  Biso   1.000  O
  C27      1.0000 0.65860  0.16020  0.19950  Biso   1.000  C
  C28      1.0000 0.34140  0.83980  0.80050  Biso   1.000  C
  H13      1.0000 0.62830  0.10700  0.21850  Biso   1.000  H
  H14      1.0000 0.37170  0.89300  0.78150  Biso   1.000  H
  C29      1.0000 0.19150  0.22510  0.56760  Biso   1.000  C
  C30      1.0000 0.80850  0.77490  0.43240  Biso   1.000  C
  H15      1.0000 0.15050  0.23220  0.61260  Biso   1.000  H
  H16      1.0000 0.84950  0.76780  0.38740  Biso   1.000  H
  N1       1.0000 0.42400  0.66060  0.33180  Biso   1.000  N
  N2       1.0000 0.57600  0.33940  0.66820  Biso   1.000  N
  C31      1.0000 0.24850  0.28830  0.17910  Biso   1.000  C
  C32      1.0000 0.75150  0.71170  0.82090  Biso   1.000  C
  C33      1.0000 0.33750  0.60180  0.32190  Biso   1.000  C
  C34      1.0000 0.66250  0.39820  0.67810  Biso   1.000  C
  H17      1.0000 0.31440  0.57770  0.26880  Biso   1.000  H
  H18      1.0000 0.68560  0.42230  0.73120  Biso   1.000  H
  C35      1.0000 0.75040  0.31340  0.14560  Biso   1.000  C
  C36      1.0000 0.24960  0.68660  0.85440  Biso   1.000  C
  H19      1.0000 0.77980  0.36550  0.12480  Biso   1.000  H
  H20      1.0000 0.22020  0.63450  0.87520  Biso   1.000  H
  C37      1.0000 0.67470  0.24640  0.10100  Biso   1.000  C
  C38      1.0000 0.32530  0.75360  0.89900  Biso   1.000  C
  H21      1.0000 0.65340  0.25490  0.05030  Biso   1.000  H
  H22      1.0000 0.34660  0.74510  0.94970  Biso   1.000  H
  C39      1.0000 0.46700  0.70310  0.41260  Biso   1.000  C
  C40      1.0000 0.53300  0.29690  0.58740  Biso   1.000  C
  H23      1.0000 0.40950  0.69960  0.44880  Biso   1.000  H
  H24      1.0000 0.59050  0.30040  0.55120  Biso   1.000  H
  H25      1.0000 0.49500  0.76910  0.41520  Biso   1.000  H
  H26      1.0000 0.50500  0.23090  0.58480  Biso   1.000  H
  H27      1.0000 0.52480  0.66860  0.42720  Biso   1.000  H
  H28      1.0000 0.47520  0.33140  0.57280  Biso   1.000  H
  N3       1.0000 0.62850  0.16800  0.12620  Biso   1.000  N
  N4       1.0000 0.37150  0.83200  0.87380  Biso   1.000  N
  O17      1.0000 0.08210  0.38940  0.59990  Biso   1.000  O
  O18      1.0000 0.91790  0.61060  0.40010  Biso   1.000  O
  N5       1.0000 0.30360  0.91420  0.38760  Biso   1.000  N
  N6       1.0000 0.69640  0.08580  0.61240  Biso   1.000  N
  N7       1.0000 0.31540  0.13440  0.48880  Biso   1.000  N
  N8       1.0000 0.68460  0.86560  0.51120  Biso   1.000  N
  C41      1.0000 0.31010  0.19520  0.43770  Biso   1.000  C
  C42      1.0000 0.68990  0.80480  0.56230  Biso   1.000  C
  H29      1.0000 0.35080  0.18580  0.39270  Biso   1.000  H
  H30      1.0000 0.64920  0.81420  0.60730  Biso   1.000  H
  C43      1.0000 0.25710  0.15090  0.55190  Biso   1.000  C
  C44      1.0000 0.74290  0.84910  0.44810  Biso   1.000  C
  H31      1.0000 0.25990  0.11030  0.58830  Biso   1.000  H
  H32      1.0000 0.74010  0.88970  0.41170  Biso   1.000  H
  C45      1.0000 0.26370  0.20790  0.20600  Biso   1.000  C
  C46      1.0000 0.73630  0.79210  0.79400  Biso   1.000  C
  H33      1.0000 0.23290  0.19570  0.25240  Biso   1.000  H
  H34      1.0000 0.76710  0.80430  0.74760  Biso   1.000  H
  C47      1.0000 0.29960  0.30420  0.10940  Biso   1.000  C
  C48      1.0000 0.70040  0.69580  0.89060  Biso   1.000  C
  H35      1.0000 0.29410  0.35980  0.08940  Biso   1.000  H
  H36      1.0000 0.70590  0.64020  0.91060  Biso   1.000  H
  C49      1.0000 0.35770  0.23310  0.07280  Biso   1.000  C
  C50      1.0000 0.64230  0.76690  0.92720  Biso   1.000  C
  H37      1.0000 0.38910  0.24180  0.02570  Biso   1.000  H
  H38      1.0000 0.61090  0.75820  0.97430  Biso   1.000  H
  N9       1.0000 0.37330  0.15440  0.09780  Biso   1.000  N
  N10      1.0000 0.62670  0.84560  0.90220  Biso   1.000  N
  C51      1.0000 0.32750  0.14270  0.16210  Biso   1.000  C
  C52      1.0000 0.67250  0.85730  0.83790  Biso   1.000  C
  H39      1.0000 0.33710  0.08720  0.18100  Biso   1.000  H
  H40      1.0000 0.66290  0.91280  0.81900  Biso   1.000  H
  O19      1.0000 0.84310  0.56370  0.12700  Biso   1.000  O
  O20      1.0000 0.15690  0.43630  0.87300  Biso   1.000  O
  O21      1.0000 0.87640  0.49910  0.00520  Biso   1.000  O
  O22      1.0000 0.12360  0.50090  0.99480  Biso   1.000  O
  N11      1.0000 0.81400  0.53680  0.05620  Biso   1.000  N
  N12      1.0000 0.18600  0.46320  0.94380  Biso   1.000  N
  O23      1.0000 0.99660  0.31910  0.05710  Biso   1.000  O
  O24      1.0000 0.00340  0.68090  0.94290  Biso   1.000  O
  N13      1.0000 0.91920  0.16960  0.01010  Biso   1.000  N
  N14      1.0000 0.08080  0.83040  0.98990  Biso   1.000  N
  C53      1.0000 0.93980  0.26170  0.00690  Biso   1.000  C
  C54      1.0000 0.06020  0.73830  0.99310  Biso   1.000  C
  H41      1.0000 0.90920  0.28320  0.96400  Biso   1.000  H
  H42      1.0000 0.09080  0.71680  0.03600  Biso   1.000  H
  C55      1.0000 0.84860  0.09940  0.95100  Biso   1.000  C
  C56      1.0000 0.15140  0.90060  0.04900  Biso   1.000  C
  H43      1.0000 0.78500  0.12750  0.93700  Biso   1.000  H
  H44      1.0000 0.21500  0.87250  0.06300  Biso   1.000  H
  H45      1.0000 0.82650  0.04380  0.97300  Biso   1.000  H
  H46      1.0000 0.17350  0.95620  0.02700  Biso   1.000  H
  H47      1.0000 0.88800  0.08090  0.90420  Biso   1.000  H
  H48      1.0000 0.11200  0.91910  0.09580  Biso   1.000  H
  C57      1.0000 0.97020  0.14060  0.08070  Biso   1.000  C
  C58      1.0000 0.02980  0.85940  0.91930  Biso   1.000  C
  H49      1.0000 0.04840  0.14730  0.07790  Biso   1.000  H
  H50      1.0000 0.95160  0.85270  0.92210  Biso   1.000  H
  H51      1.0000 0.94410  0.07490  0.08110  Biso   1.000  H
  H52      1.0000 0.05590  0.92510  0.91890  Biso   1.000  H
  H53      1.0000 0.95110  0.18100  0.12860  Biso   1.000  H
  H54      1.0000 0.04890  0.81900  0.87140  Biso   1.000  H
  Na1      1.0000 0.85500  0.60320  0.26614  Biso   1.000  Na
  Na2      1.0000 0.14500  0.39680  0.73386  Biso   1.000  Na
  O25      1.0000 0.68120  0.53740  0.28910  Biso   1.000  O
  O26      1.0000 0.31880  0.46260  0.71090  Biso   1.000  O
  C59      1.0000 0.48190  0.68880  0.26680  Biso   1.000  C
  C60      1.0000 0.51810  0.31120  0.73320  Biso   1.000  C
  H55      1.0000 0.45790  0.64450  0.21810  Biso   1.000  H
  H56      1.0000 0.54210  0.35550  0.78190  Biso   1.000  H
  H57      1.0000 0.55910  0.68850  0.27700  Biso   1.000  H
  H58      1.0000 0.44090  0.31150  0.72300  Biso   1.000  H
  H59      1.0000 0.46740  0.75220  0.26200  Biso   1.000  H
  H60      1.0000 0.53260  0.24780  0.73800  Biso   1.000  H
  O27      1.0000 0.14630  0.64020  0.49440  Biso   1.000  O
  O28      1.0000 0.85370  0.35980  0.50560  Biso   1.000  O
  H61      1.0000 0.21620  0.64060  0.50350  Biso   1.000  H
  H62      1.0000 0.78380  0.35940  0.49650  Biso   1.000  H
  H63      1.0000 0.11330  0.62940  0.53630  Biso   1.000  H
  H64      1.0000 0.88670  0.37060  0.46370  Biso   1.000  H
  N15      1.0000 0.81230  0.85210  0.17170  Biso   1.000  N
  N16      1.0000 0.18770  0.14790  0.82830  Biso   1.000  N
  O29      1.0000 0.86860  0.76240  0.25020  Biso   1.000  O
  O30      1.0000 0.13140  0.23760  0.74980  Biso   1.000  O
  C61      1.0000 0.88080  0.79650  0.18780  Biso   1.000  C
  C62      1.0000 0.11920  0.20350  0.81220  Biso   1.000  C
  H65      1.0000 0.93750  0.78160  0.15490  Biso   1.000  H
  H66      1.0000 0.06250  0.21840  0.84510  Biso   1.000  H
  C63      1.0000 0.82080  0.88960  0.09650  Biso   1.000  C
  C64      1.0000 0.17920  0.11040  0.90350  Biso   1.000  C
  H67      1.0000 0.85120  0.95580  0.10860  Biso   1.000  H
  H68      1.0000 0.14880  0.04420  0.89140  Biso   1.000  H
  H69      1.0000 0.74940  0.88390  0.07050  Biso   1.000  H
  H70      1.0000 0.25060  0.11610  0.92950  Biso   1.000  H
  H71      1.0000 0.86750  0.85310  0.06200  Biso   1.000  H
  H72      1.0000 0.13250  0.14690  0.93800  Biso   1.000  H
  C65      1.0000 0.75660  0.91730  0.22880  Biso   1.000  C
  C66      1.0000 0.24340  0.08270  0.77120  Biso   1.000  C
  H73      1.0000 0.73330  0.88600  0.27120  Biso   1.000  H
  H74      1.0000 0.26670  0.11400  0.72880  Biso   1.000  H
  H75      1.0000 0.69400  0.93490  0.20230  Biso   1.000  H
  H76      1.0000 0.30600  0.06510  0.79770  Biso   1.000  H
  H77      1.0000 0.80590  0.97400  0.25030  Biso   1.000  H
  H78      1.0000 0.19410  0.02600  0.74970  Biso   1.000  H
  N17      1.0000 0.57570  0.43180  0.33930  Biso   1.000  N
  N18      1.0000 0.42430  0.56820  0.66070  Biso   1.000  N
  C67      1.0000 0.66140  0.49400  0.35020  Biso   1.000  C
  C68      1.0000 0.33860  0.50600  0.64980  Biso   1.000  C
  H79      1.0000 0.70590  0.50750  0.39700  Biso   1.000  H
  H80      1.0000 0.29410  0.49250  0.60300  Biso   1.000  H
  C69      1.0000 0.50150  0.38850  0.27830  Biso   1.000  C
  C70      1.0000 0.49850  0.61150  0.72170  Biso   1.000  C
  H81      1.0000 0.50310  0.42610  0.23740  Biso   1.000  H
  H82      1.0000 0.49690  0.57390  0.76260  Biso   1.000  H
  H83      1.0000 0.42950  0.38340  0.29800  Biso   1.000  H
  H84      1.0000 0.57050  0.61660  0.70200  Biso   1.000  H
  H85      1.0000 0.51990  0.32540  0.25650  Biso   1.000  H
  H86      1.0000 0.48010  0.67460  0.74350  Biso   1.000  H
  C71      1.0000 0.55730  0.38090  0.41260  Biso   1.000  C
  C72      1.0000 0.44270  0.61910  0.58740  Biso   1.000  C
  H87      1.0000 0.60890  0.33520  0.41300  Biso   1.000  H
  H88      1.0000 0.39110  0.66480  0.58700  Biso   1.000  H
  H89      1.0000 0.48420  0.34840  0.40810  Biso   1.000  H
  H90      1.0000 0.51580  0.65160  0.59190  Biso   1.000  H
  H91      1.0000 0.56760  0.42810  0.46120  Biso   1.000  H
  H92      1.0000 0.43240  0.57190  0.53880  Biso   1.000  H
  O31      1.0000 0.69480  0.50120  0.03690  Biso   1.000  O
  O32      1.0000 0.30520  0.49880  0.96310  Biso   1.000  O
  N19      1.0000 0.99730  0.08880  0.34470  Biso   1.000  N
  N20      1.0000 0.00270  0.91120  0.65530  Biso   1.000  N
  O33      1.0000 0.06520  0.02750  0.21850  Biso   1.000  O
  O34      1.0000 0.93480  0.97250  0.78150  Biso   1.000  O
  C73      1.0000 0.94750  0.16140  0.40470  Biso   1.000  C
  C74      1.0000 0.05250  0.83860  0.59530  Biso   1.000  C
  H93      1.0000 0.87050  0.14190  0.40570  Biso   1.000  H
  H94      1.0000 0.12950  0.85810  0.59430  Biso   1.000  H
  H95      1.0000 0.95830  0.22310  0.38980  Biso   1.000  H
  H96      1.0000 0.04170  0.77690  0.61020  Biso   1.000  H
  H97      1.0000 0.98200  0.16550  0.45660  Biso   1.000  H
  H98      1.0000 0.01800  0.83450  0.54340  Biso   1.000  H
  C75      1.0000 0.01720  0.00360  0.37900  Biso   1.000  C
  C76      1.0000 0.98280  0.99640  0.62100  Biso   1.000  C
  H99      1.0000 0.08780  0.01500  0.40700  Biso   1.000  H
  H100     1.0000 0.91220  0.98500  0.59300  Biso   1.000  H
  H101     1.0000 0.01470  0.94820  0.33680  Biso   1.000  H
  H102     1.0000 0.98530  0.05180  0.66320  Biso   1.000  H
  H103     1.0000 0.96170  0.99250  0.41530  Biso   1.000  H
  H104     1.0000 0.03830  0.00750  0.58470  Biso   1.000  H
  C77      1.0000 0.03300  0.10380  0.25680  Biso   1.000  C
  C78      1.0000 0.96700  0.89620  0.74320  Biso   1.000  C
  H105     1.0000 0.03020  0.16010  0.23750  Biso   1.000  H
  H106     1.0000 0.96980  0.83990  0.76250  Biso   1.000  H
  O35      1.0000 0.71080  0.57110  0.02810  Biso   1.000  O
  O36      1.0000 0.28920  0.42890  0.97190  Biso   1.000  O
  O37      1.0000 0.49600  0.55000  0.03600  Biso   1.000  O
  O38      1.0000 0.50400  0.45000  0.96400  Biso   1.000  O
