data_image0
_cell_length_a       11.212
_cell_length_b       15.161
_cell_length_c       15.356
_cell_angle_alpha    107.554
_cell_angle_beta     90.383
_cell_angle_gamma    101.987

_symmetry_space_group_name_H-M    "P 1"
_symmetry_int_tables_number       1

loop_
  _symmetry_equiv_pos_as_xyz
  'x, y, z'

loop_
  _atom_site_label
  _atom_site_occupancy
  _atom_site_fract_x
  _atom_site_fract_y
  _atom_site_fract_z
  _atom_site_thermal_displace_type
  _atom_site_B_iso_or_equiv
  _atom_site_type_symbol
  I1       1.0000 0.86721  0.38540  0.04434  Biso   1.000  I
  I2       1.0000 0.13279  0.61460  0.95566  Biso   1.000  I
  I3       1.0000 0.09487  0.15387  0.05184  Biso   1.000  I
  I4       1.0000 0.90513  0.84613  0.94816  Biso   1.000  I
  Sr1      1.0000 0.49713  0.36544  0.40582  Biso   1.000  Sr
  Sr2      1.0000 0.50287  0.63456  0.59418  Biso   1.000  Sr
  Cu1      1.0000 0.90920  0.54031  0.98771  Biso   1.000  Cu
  Cu2      1.0000 0.09080  0.45969  0.01229  Biso   1.000  Cu
  Cu3      1.0000 0.10942  0.97345  0.01783  Biso   1.000  Cu
  Cu4      1.0000 0.89058  0.02655  0.98217  Biso   1.000  Cu
  O1       1.0000 0.59360  0.07540  0.38490  Biso   1.000  O
  O2       1.0000 0.40640  0.92460  0.61510  Biso   1.000  O
  O3       1.0000 0.33330  0.00900  0.46040  Biso   1.000  O
  O4       1.0000 0.66670  0.99100  0.53960  Biso   1.000  O
  O5       1.0000 0.35850  0.86340  0.38450  Biso   1.000  O
  O6       1.0000 0.64150  0.13660  0.61550  Biso   1.000  O
  O7       1.0000 0.59800  0.33430  0.54930  Biso   1.000  O
  O8       1.0000 0.40200  0.66570  0.45070  Biso   1.000  O
  N1       1.0000 0.80620  0.50060  0.86530  Biso   1.000  N
  N2       1.0000 0.19380  0.49940  0.13470  Biso   1.000  N
  O9       1.0000 0.54280  0.19970  0.35790  Biso   1.000  O
  O10      1.0000 0.45720  0.80030  0.64210  Biso   1.000  O
  N3       1.0000 0.18090  0.96120  0.13680  Biso   1.000  N
  N4       1.0000 0.81910  0.03880  0.86320  Biso   1.000  N
  C1       1.0000 0.58920  0.12880  0.33540  Biso   1.000  C
  C2       1.0000 0.41080  0.87120  0.66460  Biso   1.000  C
  O11      1.0000 0.55970  0.47890  0.58040  Biso   1.000  O
  O12      1.0000 0.44030  0.52110  0.41960  Biso   1.000  O
  O13      1.0000 0.33130  0.25180  0.47910  Biso   1.000  O
  O14      1.0000 0.66870  0.74820  0.52090  Biso   1.000  O
  C3       1.0000 0.32800  0.93780  0.38840  Biso   1.000  C
  C4       1.0000 0.67200  0.06220  0.61160  Biso   1.000  C
  N5       1.0000 0.77810  0.05820  0.08970  Biso   1.000  N
  N6       1.0000 0.22190  0.94180  0.91030  Biso   1.000  N
  N7       1.0000 0.15460  0.36110  0.91070  Biso   1.000  N
  N8       1.0000 0.84540  0.63890  0.08930  Biso   1.000  N
  C5       1.0000 0.27180  0.87750  0.21840  Biso   1.000  C
  C6       1.0000 0.72820  0.12250  0.78160  Biso   1.000  C
  H1       1.0000 0.30400  0.82490  0.21560  Biso   1.000  H
  H2       1.0000 0.69600  0.17510  0.78440  Biso   1.000  H
  C7       1.0000 0.60760  0.42010  0.60370  Biso   1.000  C
  C8       1.0000 0.39240  0.57990  0.39630  Biso   1.000  C
  C9       1.0000 0.64750  0.10410  0.24650  Biso   1.000  C
  C10      1.0000 0.35250  0.89590  0.75350  Biso   1.000  C
  C11      1.0000 0.66010  0.01030  0.20120  Biso   1.000  C
  C12      1.0000 0.33990  0.98970  0.79880  Biso   1.000  C
  H3       1.0000 0.62280  0.96080  0.22260  Biso   1.000  H
  H4       1.0000 0.37720  0.03920  0.77740  Biso   1.000  H
  C13      1.0000 0.69360  0.38180  0.73480  Biso   1.000  C
  C14      1.0000 0.30640  0.61820  0.26520  Biso   1.000  C
  H5       1.0000 0.66540  0.31760  0.70370  Biso   1.000  H
  H6       1.0000 0.33460  0.68240  0.29630  Biso   1.000  H
  C15      1.0000 0.79190  0.56250  0.82220  Biso   1.000  C
  C16      1.0000 0.20810  0.43750  0.17780  Biso   1.000  C
  H7       1.0000 0.82840  0.62590  0.85110  Biso   1.000  H
  H8       1.0000 0.17160  0.37410  0.14890  Biso   1.000  H
  C17      1.0000 0.27540  0.94680  0.30050  Biso   1.000  C
  C18      1.0000 0.72460  0.05320  0.69950  Biso   1.000  C
  C19      1.0000 0.67470  0.44750  0.69460  Biso   1.000  C
  C20      1.0000 0.32530  0.55250  0.30540  Biso   1.000  C
  O15      1.0000 0.23870  0.08800  0.65490  Biso   1.000  O
  O16      1.0000 0.76130  0.91200  0.34510  Biso   1.000  O
  C21      1.0000 0.72930  0.54140  0.74030  Biso   1.000  C
  C22      1.0000 0.27070  0.45860  0.25970  Biso   1.000  C
  H9       1.0000 0.72300  0.58890  0.71500  Biso   1.000  H
  H10      1.0000 0.27700  0.41110  0.28500  Biso   1.000  H
  C23      1.0000 0.08710  0.16560  0.50250  Biso   1.000  C
  C24      1.0000 0.91290  0.83440  0.49750  Biso   1.000  C
  H11      1.0000 0.14780  0.16090  0.54140  Biso   1.000  H
  H12      1.0000 0.85220  0.83910  0.45860  Biso   1.000  H
  C25      1.0000 0.23270  0.02360  0.29840  Biso   1.000  C
  C26      1.0000 0.76730  0.97640  0.70160  Biso   1.000  C
  H13      1.0000 0.23420  0.07320  0.35210  Biso   1.000  H
  H14      1.0000 0.76580  0.92680  0.64790  Biso   1.000  H
  C27      1.0000 0.13650  0.20770  0.79860  Biso   1.000  C
  C28      1.0000 0.86350  0.79230  0.20140  Biso   1.000  C
  H15      1.0000 0.09070  0.14630  0.77230  Biso   1.000  H
  H16      1.0000 0.90930  0.85370  0.22770  Biso   1.000  H
  C29      1.0000 0.18730  0.02830  0.21720  Biso   1.000  C
  C30      1.0000 0.81270  0.97170  0.78280  Biso   1.000  C
  H17      1.0000 0.15900  0.08210  0.21830  Biso   1.000  H
  H18      1.0000 0.84100  0.91790  0.78170  Biso   1.000  H
  C31      1.0000 0.24600  0.26840  0.44330  Biso   1.000  C
  C32      1.0000 0.75400  0.73160  0.55670  Biso   1.000  C
  C33      1.0000 0.76240  0.14680  0.12720  Biso   1.000  C
  C34      1.0000 0.23760  0.85320  0.87280  Biso   1.000  C
  H19      1.0000 0.79430  0.19230  0.09940  Biso   1.000  H
  H20      1.0000 0.20570  0.80770  0.90060  Biso   1.000  H
  C35      1.0000 0.09410  0.27460  0.86910  Biso   1.000  C
  C36      1.0000 0.90590  0.72540  0.13090  Biso   1.000  C
  H21      1.0000 0.01680  0.25580  0.88780  Biso   1.000  H
  H22      1.0000 0.98320  0.74420  0.11220  Biso   1.000  H
  C37      1.0000 0.11710  0.21630  0.44690  Biso   1.000  C
  C38      1.0000 0.88290  0.78370  0.55310  Biso   1.000  C
  O17      1.0000 0.71030  0.43320  0.38030  Biso   1.000  O
  O18      1.0000 0.28970  0.56680  0.61970  Biso   1.000  O
  C39      1.0000 0.72720  0.99240  0.12570  Biso   1.000  C
  C40      1.0000 0.27280  0.00760  0.87430  Biso   1.000  C
  H23      1.0000 0.73710  0.93090  0.09890  Biso   1.000  H
  H24      1.0000 0.26290  0.06910  0.90110  Biso   1.000  H
  Li1      1.0000 0.28690  0.98410  0.57510  Biso   1.000  Li
  Li2      1.0000 0.71310  0.01590  0.42490  Biso   1.000  Li
  C41      1.0000 0.75330  0.40910  0.82010  Biso   1.000  C
  C42      1.0000 0.24670  0.59090  0.17990  Biso   1.000  C
  H25      1.0000 0.75750  0.36300  0.84790  Biso   1.000  H
  H26      1.0000 0.24250  0.63700  0.15210  Biso   1.000  H
  C43      1.0000 0.70010  0.17380  0.20610  Biso   1.000  C
  C44      1.0000 0.29990  0.82620  0.79390  Biso   1.000  C
  H27      1.0000 0.69360  0.23640  0.23150  Biso   1.000  H
  H28      1.0000 0.30640  0.76360  0.76850  Biso   1.000  H
  C45      1.0000 0.22070  0.88540  0.14020  Biso   1.000  C
  C46      1.0000 0.77930  0.11460  0.85980  Biso   1.000  C
  H29      1.0000 0.21360  0.83490  0.08650  Biso   1.000  H
  H30      1.0000 0.78640  0.16510  0.91350  Biso   1.000  H
  N9       1.0000 0.88060  0.11960  0.45180  Biso   1.000  N
  N10      1.0000 0.11940  0.88040  0.54820  Biso   1.000  N
  N11      1.0000 0.88000  0.51720  0.34390  Biso   1.000  N
  N12      1.0000 0.12000  0.48280  0.65610  Biso   1.000  N
  C47      1.0000 0.31510  0.32750  0.81190  Biso   1.000  C
  C48      1.0000 0.68490  0.67250  0.18810  Biso   1.000  C
  H31      1.0000 0.38950  0.34980  0.79100  Biso   1.000  H
  H32      1.0000 0.61050  0.65020  0.20900  Biso   1.000  H
  C49      1.0000 0.26830  0.38700  0.88800  Biso   1.000  C
  C50      1.0000 0.73170  0.61300  0.11200  Biso   1.000  C
  H33      1.0000 0.31760  0.44470  0.92240  Biso   1.000  H
  H34      1.0000 0.68240  0.55530  0.07760  Biso   1.000  H
  C51      1.0000 0.25080  0.23830  0.77030  Biso   1.000  C
  C52      1.0000 0.74920  0.76170  0.22970  Biso   1.000  C
  C53      1.0000 0.76750  0.50160  0.35720  Biso   1.000  C
  C54      1.0000 0.23250  0.49840  0.64280  Biso   1.000  C
  H35      1.0000 0.72360  0.54460  0.34910  Biso   1.000  H
  H36      1.0000 0.27640  0.45540  0.65090  Biso   1.000  H
  C55      1.0000 0.96730  0.11880  0.50470  Biso   1.000  C
  C56      1.0000 0.03270  0.88120  0.49530  Biso   1.000  C
  H37      1.0000 0.95000  0.08550  0.54670  Biso   1.000  H
  H38      1.0000 0.05000  0.91450  0.45330  Biso   1.000  H
  O19      1.0000 0.40200  0.20230  0.67200  Biso   1.000  O
  O20      1.0000 0.59800  0.79770  0.32800  Biso   1.000  O
  C57      1.0000 0.30440  0.17310  0.69300  Biso   1.000  C
  C58      1.0000 0.69560  0.82690  0.30700  Biso   1.000  C
  Sr3      1.0000 0.48261  0.16775  0.52116  Biso   1.000  Sr
  Sr4      1.0000 0.51739  0.83225  0.47884  Biso   1.000  Sr
  C59      1.0000 0.95330  0.58870  0.31460  Biso   1.000  C
  C60      1.0000 0.04670  0.41130  0.68540  Biso   1.000  C
  H39      1.0000 0.90500  0.60640  0.27360  Biso   1.000  H
  H40      1.0000 0.09500  0.39360  0.72640  Biso   1.000  H
  H41      1.0000 0.01980  0.56530  0.28350  Biso   1.000  H
  H42      1.0000 0.98020  0.43470  0.71650  Biso   1.000  H
  H43      1.0000 0.98510  0.64290  0.36670  Biso   1.000  H
  H44      1.0000 0.01490  0.35710  0.63330  Biso   1.000  H
  C61      1.0000 0.93950  0.44260  0.34850  Biso   1.000  C
  C62      1.0000 0.06050  0.55740  0.65150  Biso   1.000  C
  H45      1.0000 0.89870  0.41080  0.38900  Biso   1.000  H
  H46      1.0000 0.10130  0.58920  0.61100  Biso   1.000  H
  H47      1.0000 0.02340  0.46940  0.37110  Biso   1.000  H
  H48      1.0000 0.97660  0.53060  0.62890  Biso   1.000  H
  H49      1.0000 0.93600  0.39790  0.28840  Biso   1.000  H
  H50      1.0000 0.06400  0.60210  0.71160  Biso   1.000  H
  N13      1.0000 0.48700  0.29800  0.11080  Biso   1.000  N
  N14      1.0000 0.51300  0.70200  0.88920  Biso   1.000  N
  O21      1.0000 0.47990  0.33180  0.23960  Biso   1.000  O
  O22      1.0000 0.52010  0.66820  0.76040  Biso   1.000  O
  C63      1.0000 0.43500  0.23000  0.14800  Biso   1.000  C
  C64      1.0000 0.56500  0.77000  0.85200  Biso   1.000  C
  C65      1.0000 0.48600  0.22600  0.01770  Biso   1.000  C
  C66      1.0000 0.51400  0.77400  0.98230  Biso   1.000  C
  H51      1.0000 0.47820  0.16440  0.02410  Biso   1.000  H
  H52      1.0000 0.52180  0.83560  0.97590  Biso   1.000  H
  H53      1.0000 0.56040  0.24280  0.99030  Biso   1.000  H
  H54      1.0000 0.43960  0.75720  0.00970  Biso   1.000  H
  H55      1.0000 0.41770  0.22620  0.97930  Biso   1.000  H
  H56      1.0000 0.58230  0.77380  0.02070  Biso   1.000  H
  C67      1.0000 0.49900  0.38150  0.07900  Biso   1.000  C
  C68      1.0000 0.50100  0.61850  0.92100  Biso   1.000  C
  H57      1.0000 0.42420  0.37770  0.04580  Biso   1.000  H
  H58      1.0000 0.57580  0.62230  0.95420  Biso   1.000  H
  H59      1.0000 0.56500  0.38330  0.03960  Biso   1.000  H
  H60      1.0000 0.43500  0.61670  0.96040  Biso   1.000  H
  H61      1.0000 0.51540  0.43800  0.13080  Biso   1.000  H
  H62      1.0000 0.48460  0.56200  0.86920  Biso   1.000  H
  O23      1.0000 0.25820  0.33980  0.41700  Biso   1.000  O
  O24      1.0000 0.74180  0.66020  0.58300  Biso   1.000  O
  C69      1.0000 0.03300  0.19900  0.36400  Biso   1.000  C
  C70      1.0000 0.96700  0.80100  0.63600  Biso   1.000  C
  C71      1.0000 0.91700  0.14250  0.37200  Biso   1.000  C
  C72      1.0000 0.08300  0.85750  0.62800  Biso   1.000  C
  O25      1.0000 0.26870  0.29550  0.36200  Biso   1.000  O
  O26      1.0000 0.73130  0.70450  0.63800  Biso   1.000  O
  C73      1.0000 0.89900  0.20710  0.43000  Biso   1.000  C
  C74      1.0000 0.10100  0.79290  0.57000  Biso   1.000  C
  C75      1.0000 0.01400  0.25500  0.42600  Biso   1.000  C
  C76      1.0000 0.98600  0.74500  0.57400  Biso   1.000  C
