data_image0
_cell_length_a       16.729
_cell_length_b       18.275
_cell_length_c       17.963
_cell_angle_alpha    90
_cell_angle_beta     102.033
_cell_angle_gamma    90

_symmetry_space_group_name_H-M    "P 1"
_symmetry_int_tables_number       1

loop_
  _symmetry_equiv_pos_as_xyz
  'x, y, z'

loop_
  _atom_site_label
  _atom_site_occupancy
  _atom_site_fract_x
  _atom_site_fract_y
  _atom_site_fract_z
  _atom_site_thermal_displace_type
  _atom_site_B_iso_or_equiv
  _atom_site_type_symbol
  I1       1.0000 0.57707  0.52756  0.61552  Biso   1.000  I
  I2       1.0000 0.42293  0.52756  0.88448  Biso   1.000  I
  I3       1.0000 0.07707  0.02756  0.61552  Biso   1.000  I
  I4       1.0000 0.92293  0.02756  0.88448  Biso   1.000  I
  I5       1.0000 0.42293  0.47244  0.38448  Biso   1.000  I
  I6       1.0000 0.57707  0.47244  0.11552  Biso   1.000  I
  I7       1.0000 0.92293  0.97244  0.38448  Biso   1.000  I
  I8       1.0000 0.07707  0.97244  0.11552  Biso   1.000  I
  Sr1      1.0000 0.50000  0.97797  0.75000  Biso   1.000  Sr
  Sr2      1.0000 0.00000  0.47797  0.75000  Biso   1.000  Sr
  Sr3      1.0000 0.50000  0.02203  0.25000  Biso   1.000  Sr
  Sr4      1.0000 0.00000  0.52203  0.25000  Biso   1.000  Sr
  Cu1      1.0000 0.53855  0.55103  0.46836  Biso   1.000  Cu
  Cu2      1.0000 0.46145  0.55103  0.03164  Biso   1.000  Cu
  Cu3      1.0000 0.03855  0.05103  0.46836  Biso   1.000  Cu
  Cu4      1.0000 0.96145  0.05103  0.03164  Biso   1.000  Cu
  Cu5      1.0000 0.46145  0.44897  0.53164  Biso   1.000  Cu
  Cu6      1.0000 0.53855  0.44897  0.96836  Biso   1.000  Cu
  Cu7      1.0000 0.96145  0.94897  0.53164  Biso   1.000  Cu
  Cu8      1.0000 0.03855  0.94897  0.96836  Biso   1.000  Cu
  O1       1.0000 0.50690  0.93680  0.45910  Biso   1.000  O
  O2       1.0000 0.49310  0.93680  0.04090  Biso   1.000  O
  O3       1.0000 0.00690  0.43680  0.45910  Biso   1.000  O
  O4       1.0000 0.99310  0.43680  0.04090  Biso   1.000  O
  O5       1.0000 0.49310  0.06320  0.54090  Biso   1.000  O
  O6       1.0000 0.50690  0.06320  0.95910  Biso   1.000  O
  O7       1.0000 0.99310  0.56320  0.54090  Biso   1.000  O
  O8       1.0000 0.00690  0.56320  0.95910  Biso   1.000  O
  N1       1.0000 0.51430  0.66280  0.45070  Biso   1.000  N
  N2       1.0000 0.48570  0.66280  0.04930  Biso   1.000  N
  N3       1.0000 0.01430  0.16280  0.45070  Biso   1.000  N
  N4       1.0000 0.98570  0.16280  0.04930  Biso   1.000  N
  N5       1.0000 0.48570  0.33720  0.54930  Biso   1.000  N
  N6       1.0000 0.51430  0.33720  0.95070  Biso   1.000  N
  N7       1.0000 0.98570  0.83720  0.54930  Biso   1.000  N
  N8       1.0000 0.01430  0.83720  0.95070  Biso   1.000  N
  O9       1.0000 0.57940  0.93480  0.63720  Biso   1.000  O
  O10      1.0000 0.42060  0.93480  0.86280  Biso   1.000  O
  O11      1.0000 0.07940  0.43480  0.63720  Biso   1.000  O
  O12      1.0000 0.92060  0.43480  0.86280  Biso   1.000  O
  O13      1.0000 0.42060  0.06520  0.36280  Biso   1.000  O
  O14      1.0000 0.57940  0.06520  0.13720  Biso   1.000  O
  O15      1.0000 0.92060  0.56520  0.36280  Biso   1.000  O
  O16      1.0000 0.07940  0.56520  0.13720  Biso   1.000  O
  O17      1.0000 0.50770  0.91210  0.33810  Biso   1.000  O
  O18      1.0000 0.49230  0.91210  0.16190  Biso   1.000  O
  O19      1.0000 0.00770  0.41210  0.33810  Biso   1.000  O
  O20      1.0000 0.99230  0.41210  0.16190  Biso   1.000  O
  O21      1.0000 0.49230  0.08790  0.66190  Biso   1.000  O
  O22      1.0000 0.50770  0.08790  0.83810  Biso   1.000  O
  O23      1.0000 0.99230  0.58790  0.66190  Biso   1.000  O
  O24      1.0000 0.00770  0.58790  0.83810  Biso   1.000  O
  N9       1.0000 0.85800  0.96060  0.57660  Biso   1.000  N
  N10      1.0000 0.14200  0.96060  0.92340  Biso   1.000  N
  N11      1.0000 0.35800  0.46060  0.57660  Biso   1.000  N
  N12      1.0000 0.64200  0.46060  0.92340  Biso   1.000  N
  N13      1.0000 0.14200  0.03940  0.42340  Biso   1.000  N
  N14      1.0000 0.85800  0.03940  0.07660  Biso   1.000  N
  N15      1.0000 0.64200  0.53940  0.42340  Biso   1.000  N
  N16      1.0000 0.35800  0.53940  0.07660  Biso   1.000  N
  C1       1.0000 0.71920  0.96010  0.63980  Biso   1.000  C
  C2       1.0000 0.28080  0.96010  0.86020  Biso   1.000  C
  C3       1.0000 0.21920  0.46010  0.63980  Biso   1.000  C
  C4       1.0000 0.78080  0.46010  0.86020  Biso   1.000  C
  C5       1.0000 0.28080  0.03990  0.36020  Biso   1.000  C
  C6       1.0000 0.71920  0.03990  0.13980  Biso   1.000  C
  C7       1.0000 0.78080  0.53990  0.36020  Biso   1.000  C
  C8       1.0000 0.21920  0.53990  0.13980  Biso   1.000  C
  O25      1.0000 0.50000  0.84270  0.75000  Biso   1.000  O
  O26      1.0000 0.00000  0.34270  0.75000  Biso   1.000  O
  O27      1.0000 0.50000  0.15730  0.25000  Biso   1.000  O
  O28      1.0000 0.00000  0.65730  0.25000  Biso   1.000  O
  O29      1.0000 0.65460  0.98270  0.74200  Biso   1.000  O
  O30      1.0000 0.34540  0.98270  0.75800  Biso   1.000  O
  O31      1.0000 0.15460  0.48270  0.74200  Biso   1.000  O
  O32      1.0000 0.84540  0.48270  0.75800  Biso   1.000  O
  O33      1.0000 0.34540  0.01730  0.25800  Biso   1.000  O
  O34      1.0000 0.65460  0.01730  0.24200  Biso   1.000  O
  O35      1.0000 0.84540  0.51730  0.25800  Biso   1.000  O
  O36      1.0000 0.15460  0.51730  0.24200  Biso   1.000  O
  O37      1.0000 0.40000  0.93500  0.60610  Biso   1.000  O
  O38      1.0000 0.60000  0.93500  0.89390  Biso   1.000  O
  O39      1.0000 0.90000  0.43500  0.60610  Biso   1.000  O
  O40      1.0000 0.10000  0.43500  0.89390  Biso   1.000  O
  O41      1.0000 0.60000  0.06500  0.39390  Biso   1.000  O
  O42      1.0000 0.40000  0.06500  0.10610  Biso   1.000  O
  O43      1.0000 0.10000  0.56500  0.39390  Biso   1.000  O
  O44      1.0000 0.90000  0.56500  0.10610  Biso   1.000  O
  C9       1.0000 0.64560  0.95940  0.67570  Biso   1.000  C
  C10      1.0000 0.35440  0.95940  0.82430  Biso   1.000  C
  C11      1.0000 0.14560  0.45940  0.67570  Biso   1.000  C
  C12      1.0000 0.85440  0.45940  0.82430  Biso   1.000  C
  C13      1.0000 0.35440  0.04060  0.32430  Biso   1.000  C
  C14      1.0000 0.64560  0.04060  0.17570  Biso   1.000  C
  C15      1.0000 0.85440  0.54060  0.32430  Biso   1.000  C
  C16      1.0000 0.14560  0.54060  0.17570  Biso   1.000  C
  C17      1.0000 0.79590  0.97580  0.68330  Biso   1.000  C
  C18      1.0000 0.20410  0.97580  0.81670  Biso   1.000  C
  C19      1.0000 0.29590  0.47580  0.68330  Biso   1.000  C
  C20      1.0000 0.70410  0.47580  0.81670  Biso   1.000  C
  C21      1.0000 0.20410  0.02420  0.31670  Biso   1.000  C
  C22      1.0000 0.79590  0.02420  0.18330  Biso   1.000  C
  C23      1.0000 0.70410  0.52420  0.31670  Biso   1.000  C
  C24      1.0000 0.29590  0.52420  0.18330  Biso   1.000  C
  H1       1.0000 0.80210  0.98680  0.73470  Biso   1.000  H
  H2       1.0000 0.19790  0.98680  0.76530  Biso   1.000  H
  H3       1.0000 0.30210  0.48680  0.73470  Biso   1.000  H
  H4       1.0000 0.69790  0.48680  0.76530  Biso   1.000  H
  H5       1.0000 0.19790  0.01320  0.26530  Biso   1.000  H
  H6       1.0000 0.80210  0.01320  0.23470  Biso   1.000  H
  H7       1.0000 0.69790  0.51320  0.26530  Biso   1.000  H
  H8       1.0000 0.30210  0.51320  0.23470  Biso   1.000  H
  C25      1.0000 0.50810  0.89320  0.40510  Biso   1.000  C
  C26      1.0000 0.49190  0.89320  0.09490  Biso   1.000  C
  C27      1.0000 0.00810  0.39320  0.40510  Biso   1.000  C
  C28      1.0000 0.99190  0.39320  0.09490  Biso   1.000  C
  C29      1.0000 0.49190  0.10680  0.59490  Biso   1.000  C
  C30      1.0000 0.50810  0.10680  0.90510  Biso   1.000  C
  C31      1.0000 0.99190  0.60680  0.59490  Biso   1.000  C
  C32      1.0000 0.00810  0.60680  0.90510  Biso   1.000  C
  C33      1.0000 0.71330  0.94390  0.56410  Biso   1.000  C
  C34      1.0000 0.28670  0.94390  0.93590  Biso   1.000  C
  C35      1.0000 0.21330  0.44390  0.56410  Biso   1.000  C
  C36      1.0000 0.78670  0.44390  0.93590  Biso   1.000  C
  C37      1.0000 0.28670  0.05610  0.43590  Biso   1.000  C
  C38      1.0000 0.71330  0.05610  0.06410  Biso   1.000  C
  C39      1.0000 0.78670  0.55610  0.43590  Biso   1.000  C
  C40      1.0000 0.21330  0.55610  0.06410  Biso   1.000  C
  H9       1.0000 0.66320  0.93220  0.53300  Biso   1.000  H
  H10      1.0000 0.33680  0.93220  0.96700  Biso   1.000  H
  H11      1.0000 0.16320  0.43220  0.53300  Biso   1.000  H
  H12      1.0000 0.83680  0.43220  0.96700  Biso   1.000  H
  H13      1.0000 0.33680  0.06780  0.46700  Biso   1.000  H
  H14      1.0000 0.66320  0.06780  0.03300  Biso   1.000  H
  H15      1.0000 0.83680  0.56780  0.46700  Biso   1.000  H
  H16      1.0000 0.16320  0.56780  0.03300  Biso   1.000  H
  C41      1.0000 0.53450  0.71060  0.50690  Biso   1.000  C
  C42      1.0000 0.46550  0.71060  0.99310  Biso   1.000  C
  C43      1.0000 0.03450  0.21060  0.50690  Biso   1.000  C
  C44      1.0000 0.96550  0.21060  0.99310  Biso   1.000  C
  C45      1.0000 0.46550  0.28940  0.49310  Biso   1.000  C
  C46      1.0000 0.53450  0.28940  0.00690  Biso   1.000  C
  C47      1.0000 0.96550  0.78940  0.49310  Biso   1.000  C
  C48      1.0000 0.03450  0.78940  0.00690  Biso   1.000  C
  H17      1.0000 0.55160  0.69310  0.55630  Biso   1.000  H
  H18      1.0000 0.44840  0.69310  0.94370  Biso   1.000  H
  H19      1.0000 0.05160  0.19310  0.55630  Biso   1.000  H
  H20      1.0000 0.94840  0.19310  0.94370  Biso   1.000  H
  H21      1.0000 0.44840  0.30690  0.44370  Biso   1.000  H
  H22      1.0000 0.55160  0.30690  0.05630  Biso   1.000  H
  H23      1.0000 0.94840  0.80690  0.44370  Biso   1.000  H
  H24      1.0000 0.05160  0.80690  0.05630  Biso   1.000  H
  C49      1.0000 0.50990  0.81300  0.42160  Biso   1.000  C
  C50      1.0000 0.49010  0.81300  0.07840  Biso   1.000  C
  C51      1.0000 0.00990  0.31300  0.42160  Biso   1.000  C
  C52      1.0000 0.99010  0.31300  0.07840  Biso   1.000  C
  C53      1.0000 0.49010  0.18700  0.57840  Biso   1.000  C
  C54      1.0000 0.50990  0.18700  0.92160  Biso   1.000  C
  C55      1.0000 0.99010  0.68700  0.57840  Biso   1.000  C
  C56      1.0000 0.00990  0.68700  0.92160  Biso   1.000  C
  C57      1.0000 0.78320  0.94550  0.53550  Biso   1.000  C
  C58      1.0000 0.21680  0.94550  0.96450  Biso   1.000  C
  C59      1.0000 0.28320  0.44550  0.53550  Biso   1.000  C
  C60      1.0000 0.71680  0.44550  0.96450  Biso   1.000  C
  C61      1.0000 0.21680  0.05450  0.46450  Biso   1.000  C
  C62      1.0000 0.78320  0.05450  0.03550  Biso   1.000  C
  C63      1.0000 0.71680  0.55450  0.46450  Biso   1.000  C
  C64      1.0000 0.28320  0.55450  0.03550  Biso   1.000  C
  H25      1.0000 0.77850  0.93540  0.48400  Biso   1.000  H
  H26      1.0000 0.22150  0.93540  0.01600  Biso   1.000  H
  H27      1.0000 0.27850  0.43540  0.48400  Biso   1.000  H
  H28      1.0000 0.72150  0.43540  0.01600  Biso   1.000  H
  H29      1.0000 0.22150  0.06460  0.51600  Biso   1.000  H
  H30      1.0000 0.77850  0.06460  0.98400  Biso   1.000  H
  H31      1.0000 0.72150  0.56460  0.51600  Biso   1.000  H
  H32      1.0000 0.27850  0.56460  0.98400  Biso   1.000  H
  N17      1.0000 0.28120  0.88260  0.54270  Biso   1.000  N
  N18      1.0000 0.71880  0.88260  0.95730  Biso   1.000  N
  N19      1.0000 0.78120  0.38260  0.54270  Biso   1.000  N
  N20      1.0000 0.21880  0.38260  0.95730  Biso   1.000  N
  N21      1.0000 0.71880  0.11740  0.45730  Biso   1.000  N
  N22      1.0000 0.28120  0.11740  0.04270  Biso   1.000  N
  N23      1.0000 0.21880  0.61740  0.45730  Biso   1.000  N
  N24      1.0000 0.78120  0.61740  0.04270  Biso   1.000  N
  C65      1.0000 0.49080  0.68870  0.38060  Biso   1.000  C
  C66      1.0000 0.50920  0.68870  0.11940  Biso   1.000  C
  C67      1.0000 0.99080  0.18870  0.38060  Biso   1.000  C
  C68      1.0000 0.00920  0.18870  0.11940  Biso   1.000  C
  C69      1.0000 0.50920  0.31130  0.61940  Biso   1.000  C
  C70      1.0000 0.49080  0.31130  0.88060  Biso   1.000  C
  C71      1.0000 0.00920  0.81130  0.61940  Biso   1.000  C
  C72      1.0000 0.99080  0.81130  0.88060  Biso   1.000  C
  H33      1.0000 0.47520  0.65550  0.34090  Biso   1.000  H
  H34      1.0000 0.52480  0.65550  0.15910  Biso   1.000  H
  H35      1.0000 0.97520  0.15550  0.34090  Biso   1.000  H
  H36      1.0000 0.02480  0.15550  0.15910  Biso   1.000  H
  H37      1.0000 0.52480  0.34450  0.65910  Biso   1.000  H
  H38      1.0000 0.47520  0.34450  0.84090  Biso   1.000  H
  H39      1.0000 0.02480  0.84450  0.65910  Biso   1.000  H
  H40      1.0000 0.97520  0.84450  0.84090  Biso   1.000  H
  C73      1.0000 0.53120  0.78660  0.49520  Biso   1.000  C
  C74      1.0000 0.46880  0.78660  0.00480  Biso   1.000  C
  C75      1.0000 0.03120  0.28660  0.49520  Biso   1.000  C
  C76      1.0000 0.96880  0.28660  0.00480  Biso   1.000  C
  C77      1.0000 0.46880  0.21340  0.50480  Biso   1.000  C
  C78      1.0000 0.53120  0.21340  0.99520  Biso   1.000  C
  C79      1.0000 0.96880  0.71340  0.50480  Biso   1.000  C
  C80      1.0000 0.03120  0.71340  0.99520  Biso   1.000  C
  H41      1.0000 0.54320  0.81870  0.53620  Biso   1.000  H
  H42      1.0000 0.45680  0.81870  0.96380  Biso   1.000  H
  H43      1.0000 0.04320  0.31870  0.53620  Biso   1.000  H
  H44      1.0000 0.95680  0.31870  0.96380  Biso   1.000  H
  H45      1.0000 0.45680  0.18130  0.46380  Biso   1.000  H
  H46      1.0000 0.54320  0.18130  0.03620  Biso   1.000  H
  H47      1.0000 0.95680  0.68130  0.46380  Biso   1.000  H
  H48      1.0000 0.04320  0.68130  0.03620  Biso   1.000  H
  C81      1.0000 0.48840  0.76170  0.36380  Biso   1.000  C
  C82      1.0000 0.51160  0.76170  0.13620  Biso   1.000  C
  C83      1.0000 0.98840  0.26170  0.36380  Biso   1.000  C
  C84      1.0000 0.01160  0.26170  0.13620  Biso   1.000  C
  C85      1.0000 0.51160  0.23830  0.63620  Biso   1.000  C
  C86      1.0000 0.48840  0.23830  0.86380  Biso   1.000  C
  C87      1.0000 0.01160  0.73830  0.63620  Biso   1.000  C
  C88      1.0000 0.98840  0.73830  0.86380  Biso   1.000  C
  H49      1.0000 0.47230  0.77720  0.31350  Biso   1.000  H
  H50      1.0000 0.52770  0.77720  0.18650  Biso   1.000  H
  H51      1.0000 0.97230  0.27720  0.31350  Biso   1.000  H
  H52      1.0000 0.02770  0.27720  0.18650  Biso   1.000  H
  H53      1.0000 0.52770  0.22280  0.68650  Biso   1.000  H
  H54      1.0000 0.47230  0.22280  0.81350  Biso   1.000  H
  H55      1.0000 0.02770  0.72280  0.68650  Biso   1.000  H
  H56      1.0000 0.97230  0.72280  0.81350  Biso   1.000  H
  C89      1.0000 0.86250  0.97500  0.64980  Biso   1.000  C
  C90      1.0000 0.13750  0.97500  0.85020  Biso   1.000  C
  C91      1.0000 0.36250  0.47500  0.64980  Biso   1.000  C
  C92      1.0000 0.63750  0.47500  0.85020  Biso   1.000  C
  C93      1.0000 0.13750  0.02500  0.35020  Biso   1.000  C
  C94      1.0000 0.86250  0.02500  0.14980  Biso   1.000  C
  C95      1.0000 0.63750  0.52500  0.35020  Biso   1.000  C
  C96      1.0000 0.36250  0.52500  0.14980  Biso   1.000  C
  H57      1.0000 0.91360  0.98510  0.68010  Biso   1.000  H
  H58      1.0000 0.08640  0.98510  0.81990  Biso   1.000  H
  H59      1.0000 0.41360  0.48510  0.68010  Biso   1.000  H
  H60      1.0000 0.58640  0.48510  0.81990  Biso   1.000  H
  H61      1.0000 0.08640  0.01490  0.31990  Biso   1.000  H
  H62      1.0000 0.91360  0.01490  0.18010  Biso   1.000  H
  H63      1.0000 0.58640  0.51490  0.31990  Biso   1.000  H
  H64      1.0000 0.41360  0.51490  0.18010  Biso   1.000  H
  C97      1.0000 0.19700  0.86290  0.54120  Biso   1.000  C
  C98      1.0000 0.80300  0.86290  0.95880  Biso   1.000  C
  C99      1.0000 0.69700  0.36290  0.54120  Biso   1.000  C
  C100     1.0000 0.30300  0.36290  0.95880  Biso   1.000  C
  C101     1.0000 0.80300  0.13710  0.45880  Biso   1.000  C
  C102     1.0000 0.19700  0.13710  0.04120  Biso   1.000  C
  C103     1.0000 0.30300  0.63710  0.45880  Biso   1.000  C
  C104     1.0000 0.69700  0.63710  0.04120  Biso   1.000  C
  H65      1.0000 0.18310  0.87670  0.58850  Biso   1.000  H
  H66      1.0000 0.81690  0.87670  0.91150  Biso   1.000  H
  H67      1.0000 0.68310  0.37670  0.58850  Biso   1.000  H
  H68      1.0000 0.31690  0.37670  0.91150  Biso   1.000  H
  H69      1.0000 0.81690  0.12330  0.41150  Biso   1.000  H
  H70      1.0000 0.18310  0.12330  0.08850  Biso   1.000  H
  H71      1.0000 0.31690  0.62330  0.41150  Biso   1.000  H
  H72      1.0000 0.68310  0.62330  0.08850  Biso   1.000  H
  H73      1.0000 0.19040  0.81110  0.53410  Biso   1.000  H
  H74      1.0000 0.80960  0.81110  0.96590  Biso   1.000  H
  H75      1.0000 0.69040  0.31110  0.53410  Biso   1.000  H
  H76      1.0000 0.30960  0.31110  0.96590  Biso   1.000  H
  H77      1.0000 0.80960  0.18890  0.46590  Biso   1.000  H
  H78      1.0000 0.19040  0.18890  0.03410  Biso   1.000  H
  H79      1.0000 0.30960  0.68890  0.46590  Biso   1.000  H
  H80      1.0000 0.69040  0.68890  0.03410  Biso   1.000  H
  H81      1.0000 0.16180  0.88800  0.50010  Biso   1.000  H
  H82      1.0000 0.83820  0.88800  0.99990  Biso   1.000  H
  H83      1.0000 0.66180  0.38800  0.50010  Biso   1.000  H
  H84      1.0000 0.33820  0.38800  0.99990  Biso   1.000  H
  H85      1.0000 0.83820  0.11200  0.49990  Biso   1.000  H
  H86      1.0000 0.16180  0.11200  0.00010  Biso   1.000  H
  H87      1.0000 0.33820  0.61200  0.49990  Biso   1.000  H
  H88      1.0000 0.66180  0.61200  0.00010  Biso   1.000  H
  C105     1.0000 0.32740  0.91970  0.59940  Biso   1.000  C
  C106     1.0000 0.67260  0.91970  0.90060  Biso   1.000  C
  C107     1.0000 0.82740  0.41970  0.59940  Biso   1.000  C
  C108     1.0000 0.17260  0.41970  0.90060  Biso   1.000  C
  C109     1.0000 0.67260  0.08030  0.40060  Biso   1.000  C
  C110     1.0000 0.32740  0.08030  0.09940  Biso   1.000  C
  C111     1.0000 0.17260  0.58030  0.40060  Biso   1.000  C
  C112     1.0000 0.82740  0.58030  0.09940  Biso   1.000  C
  H89      1.0000 0.30220  0.93560  0.63800  Biso   1.000  H
  H90      1.0000 0.69780  0.93560  0.86200  Biso   1.000  H
  H91      1.0000 0.80220  0.43560  0.63800  Biso   1.000  H
  H92      1.0000 0.19780  0.43560  0.86200  Biso   1.000  H
  H93      1.0000 0.69780  0.06440  0.36200  Biso   1.000  H
  H94      1.0000 0.30220  0.06440  0.13800  Biso   1.000  H
  H95      1.0000 0.19780  0.56440  0.36200  Biso   1.000  H
  H96      1.0000 0.80220  0.56440  0.13800  Biso   1.000  H
  Li1      1.0000 0.49030  0.95800  0.55940  Biso   1.000  Li
  Li2      1.0000 0.50970  0.95800  0.94060  Biso   1.000  Li
  Li3      1.0000 0.99030  0.45800  0.55940  Biso   1.000  Li
  Li4      1.0000 0.00970  0.45800  0.94060  Biso   1.000  Li
  Li5      1.0000 0.50970  0.04200  0.44060  Biso   1.000  Li
  Li6      1.0000 0.49030  0.04200  0.05940  Biso   1.000  Li
  Li7      1.0000 0.00970  0.54200  0.44060  Biso   1.000  Li
  Li8      1.0000 0.99030  0.54200  0.05940  Biso   1.000  Li
  C113     1.0000 0.31640  0.86020  0.47880  Biso   1.000  C
  C114     1.0000 0.68360  0.86020  0.02120  Biso   1.000  C
  C115     1.0000 0.81640  0.36020  0.47880  Biso   1.000  C
  C116     1.0000 0.18360  0.36020  0.02120  Biso   1.000  C
  C117     1.0000 0.68360  0.13980  0.52120  Biso   1.000  C
  C118     1.0000 0.31640  0.13980  0.97880  Biso   1.000  C
  C119     1.0000 0.18360  0.63980  0.52120  Biso   1.000  C
  C120     1.0000 0.81640  0.63980  0.97880  Biso   1.000  C
  H97      1.0000 0.35550  0.82190  0.49480  Biso   1.000  H
  H98      1.0000 0.64450  0.82190  0.00520  Biso   1.000  H
  H99      1.0000 0.85550  0.32190  0.49480  Biso   1.000  H
  H100     1.0000 0.14450  0.32190  0.00520  Biso   1.000  H
  H101     1.0000 0.64450  0.17810  0.50520  Biso   1.000  H
  H102     1.0000 0.35550  0.17810  0.99480  Biso   1.000  H
  H103     1.0000 0.14450  0.67810  0.50520  Biso   1.000  H
  H104     1.0000 0.85550  0.67810  0.99480  Biso   1.000  H
  H105     1.0000 0.34310  0.90130  0.46120  Biso   1.000  H
  H106     1.0000 0.65690  0.90130  0.03880  Biso   1.000  H
  H107     1.0000 0.84310  0.40130  0.46120  Biso   1.000  H
  H108     1.0000 0.15690  0.40130  0.03880  Biso   1.000  H
  H109     1.0000 0.65690  0.09870  0.53880  Biso   1.000  H
  H110     1.0000 0.34310  0.09870  0.96120  Biso   1.000  H
  H111     1.0000 0.15690  0.59870  0.53880  Biso   1.000  H
  H112     1.0000 0.84310  0.59870  0.96120  Biso   1.000  H
  H113     1.0000 0.27390  0.84270  0.43830  Biso   1.000  H
  H114     1.0000 0.72610  0.84270  0.06170  Biso   1.000  H
  H115     1.0000 0.77390  0.34270  0.43830  Biso   1.000  H
  H116     1.0000 0.22610  0.34270  0.06170  Biso   1.000  H
  H117     1.0000 0.72610  0.15730  0.56170  Biso   1.000  H
  H118     1.0000 0.27390  0.15730  0.93830  Biso   1.000  H
  H119     1.0000 0.22610  0.65730  0.56170  Biso   1.000  H
  H120     1.0000 0.77390  0.65730  0.93830  Biso   1.000  H
  N25      1.0000 0.50000  0.71850  0.75000  Biso   1.000  N
  N26      1.0000 0.00000  0.21850  0.75000  Biso   1.000  N
  N27      1.0000 0.50000  0.28150  0.25000  Biso   1.000  N
  N28      1.0000 0.00000  0.78150  0.25000  Biso   1.000  N
  C121     1.0000 0.54820  0.79250  0.77700  Biso   1.000  C
  C122     1.0000 0.45180  0.79250  0.72300  Biso   1.000  C
  C123     1.0000 0.04820  0.29250  0.77700  Biso   1.000  C
  C124     1.0000 0.95180  0.29250  0.72300  Biso   1.000  C
  C125     1.0000 0.45180  0.20750  0.22300  Biso   1.000  C
  C126     1.0000 0.54820  0.20750  0.27700  Biso   1.000  C
  C127     1.0000 0.95180  0.70750  0.22300  Biso   1.000  C
  C128     1.0000 0.04820  0.70750  0.27700  Biso   1.000  C
  C129     1.0000 0.56070  0.65970  0.79750  Biso   1.000  C
  C130     1.0000 0.43930  0.65970  0.70250  Biso   1.000  C
  C131     1.0000 0.06070  0.15970  0.79750  Biso   1.000  C
  C132     1.0000 0.93930  0.15970  0.70250  Biso   1.000  C
  C133     1.0000 0.43930  0.34030  0.20250  Biso   1.000  C
  C134     1.0000 0.56070  0.34030  0.29750  Biso   1.000  C
  C135     1.0000 0.93930  0.84030  0.20250  Biso   1.000  C
  C136     1.0000 0.06070  0.84030  0.29750  Biso   1.000  C
  H121     1.0000 0.58300  0.62940  0.76310  Biso   1.000  H
  H122     1.0000 0.41700  0.62940  0.73690  Biso   1.000  H
  H123     1.0000 0.08300  0.12940  0.76310  Biso   1.000  H
  H124     1.0000 0.91700  0.12940  0.73690  Biso   1.000  H
  H125     1.0000 0.41700  0.37060  0.23690  Biso   1.000  H
  H126     1.0000 0.58300  0.37060  0.26310  Biso   1.000  H
  H127     1.0000 0.91700  0.87060  0.23690  Biso   1.000  H
  H128     1.0000 0.08300  0.87060  0.26310  Biso   1.000  H
  H129     1.0000 0.53140  0.62990  0.82670  Biso   1.000  H
  H130     1.0000 0.46860  0.62990  0.67330  Biso   1.000  H
  H131     1.0000 0.03140  0.12990  0.82670  Biso   1.000  H
  H132     1.0000 0.96860  0.12990  0.67330  Biso   1.000  H
  H133     1.0000 0.46860  0.37010  0.17330  Biso   1.000  H
  H134     1.0000 0.53140  0.37010  0.32670  Biso   1.000  H
  H135     1.0000 0.96860  0.87010  0.17330  Biso   1.000  H
  H136     1.0000 0.03140  0.87010  0.32670  Biso   1.000  H
  H137     1.0000 0.60440  0.68460  0.83120  Biso   1.000  H
  H138     1.0000 0.39560  0.68460  0.66880  Biso   1.000  H
  H139     1.0000 0.10440  0.18460  0.83120  Biso   1.000  H
  H140     1.0000 0.89560  0.18460  0.66880  Biso   1.000  H
  H141     1.0000 0.39560  0.31540  0.16880  Biso   1.000  H
  H142     1.0000 0.60440  0.31540  0.33120  Biso   1.000  H
  H143     1.0000 0.89560  0.81540  0.16880  Biso   1.000  H
  H144     1.0000 0.10440  0.81540  0.33120  Biso   1.000  H
  N29      1.0000 0.77600  0.71200  0.70400  Biso   1.000  N
  N30      1.0000 0.22400  0.71200  0.79600  Biso   1.000  N
  N31      1.0000 0.27600  0.21200  0.70400  Biso   1.000  N
  N32      1.0000 0.72400  0.21200  0.79600  Biso   1.000  N
  N33      1.0000 0.22400  0.28800  0.29600  Biso   1.000  N
  N34      1.0000 0.77600  0.28800  0.20400  Biso   1.000  N
  N35      1.0000 0.72400  0.78800  0.29600  Biso   1.000  N
  N36      1.0000 0.27600  0.78800  0.20400  Biso   1.000  N
  O45      1.0000 0.76100  0.74300  0.82470  Biso   1.000  O
  O46      1.0000 0.23900  0.74300  0.67530  Biso   1.000  O
  O47      1.0000 0.26100  0.24300  0.82470  Biso   1.000  O
  O48      1.0000 0.73900  0.24300  0.67530  Biso   1.000  O
  O49      1.0000 0.23900  0.25700  0.17530  Biso   1.000  O
  O50      1.0000 0.76100  0.25700  0.32470  Biso   1.000  O
  O51      1.0000 0.73900  0.75700  0.17530  Biso   1.000  O
  O52      1.0000 0.26100  0.75700  0.32470  Biso   1.000  O
  C137     1.0000 0.79700  0.64010  0.73200  Biso   1.000  C
  C138     1.0000 0.20300  0.64010  0.76800  Biso   1.000  C
  C139     1.0000 0.29700  0.14010  0.73200  Biso   1.000  C
  C140     1.0000 0.70300  0.14010  0.76800  Biso   1.000  C
  C141     1.0000 0.20300  0.35990  0.26800  Biso   1.000  C
  C142     1.0000 0.79700  0.35990  0.23200  Biso   1.000  C
  C143     1.0000 0.70300  0.85990  0.26800  Biso   1.000  C
  C144     1.0000 0.29700  0.85990  0.23200  Biso   1.000  C
  H145     1.0000 0.77470  0.60470  0.69430  Biso   1.000  H
  H146     1.0000 0.22530  0.60470  0.80570  Biso   1.000  H
  H147     1.0000 0.27470  0.10470  0.69430  Biso   1.000  H
  H148     1.0000 0.72530  0.10470  0.80570  Biso   1.000  H
  H149     1.0000 0.22530  0.39530  0.30570  Biso   1.000  H
  H150     1.0000 0.77470  0.39530  0.19430  Biso   1.000  H
  H151     1.0000 0.72530  0.89530  0.30570  Biso   1.000  H
  H152     1.0000 0.27470  0.89530  0.19430  Biso   1.000  H
  H153     1.0000 0.77590  0.63210  0.77730  Biso   1.000  H
  H154     1.0000 0.22410  0.63210  0.72270  Biso   1.000  H
  H155     1.0000 0.27590  0.13210  0.77730  Biso   1.000  H
  H156     1.0000 0.72410  0.13210  0.72270  Biso   1.000  H
  H157     1.0000 0.22410  0.36790  0.22270  Biso   1.000  H
  H158     1.0000 0.77590  0.36790  0.27730  Biso   1.000  H
  H159     1.0000 0.72410  0.86790  0.22270  Biso   1.000  H
  H160     1.0000 0.27590  0.86790  0.27730  Biso   1.000  H
  H161     1.0000 0.85580  0.63520  0.74470  Biso   1.000  H
  H162     1.0000 0.14420  0.63520  0.75530  Biso   1.000  H
  H163     1.0000 0.35580  0.13520  0.74470  Biso   1.000  H
  H164     1.0000 0.64420  0.13520  0.75530  Biso   1.000  H
  H165     1.0000 0.14420  0.36480  0.25530  Biso   1.000  H
  H166     1.0000 0.85580  0.36480  0.24470  Biso   1.000  H
  H167     1.0000 0.64420  0.86480  0.25530  Biso   1.000  H
  H168     1.0000 0.35580  0.86480  0.24470  Biso   1.000  H
  C145     1.0000 0.76500  0.74900  0.62100  Biso   1.000  C
  C146     1.0000 0.23500  0.74900  0.87900  Biso   1.000  C
  C147     1.0000 0.26500  0.24900  0.62100  Biso   1.000  C
  C148     1.0000 0.73500  0.24900  0.87900  Biso   1.000  C
  C149     1.0000 0.23500  0.25100  0.37900  Biso   1.000  C
  C150     1.0000 0.76500  0.25100  0.12100  Biso   1.000  C
  C151     1.0000 0.73500  0.75100  0.37900  Biso   1.000  C
  C152     1.0000 0.26500  0.75100  0.12100  Biso   1.000  C
  H169     1.0000 0.76280  0.71120  0.58310  Biso   1.000  H
  H170     1.0000 0.23720  0.71120  0.91690  Biso   1.000  H
  H171     1.0000 0.26280  0.21120  0.58310  Biso   1.000  H
  H172     1.0000 0.73720  0.21120  0.91690  Biso   1.000  H
  H173     1.0000 0.23720  0.28880  0.41690  Biso   1.000  H
  H174     1.0000 0.76280  0.28880  0.08310  Biso   1.000  H
  H175     1.0000 0.73720  0.78880  0.41690  Biso   1.000  H
  H176     1.0000 0.26280  0.78880  0.08310  Biso   1.000  H
  H177     1.0000 0.81130  0.78010  0.62000  Biso   1.000  H
  H178     1.0000 0.18870  0.78010  0.88000  Biso   1.000  H
  H179     1.0000 0.31130  0.28010  0.62000  Biso   1.000  H
  H180     1.0000 0.68870  0.28010  0.88000  Biso   1.000  H
  H181     1.0000 0.18870  0.21990  0.38000  Biso   1.000  H
  H182     1.0000 0.81130  0.21990  0.12000  Biso   1.000  H
  H183     1.0000 0.68870  0.71990  0.38000  Biso   1.000  H
  H184     1.0000 0.31130  0.71990  0.12000  Biso   1.000  H
  H185     1.0000 0.71600  0.77700  0.61050  Biso   1.000  H
  H186     1.0000 0.28400  0.77700  0.88950  Biso   1.000  H
  H187     1.0000 0.21600  0.27700  0.61050  Biso   1.000  H
  H188     1.0000 0.78400  0.27700  0.88950  Biso   1.000  H
  H189     1.0000 0.28400  0.22300  0.38950  Biso   1.000  H
  H190     1.0000 0.71600  0.22300  0.11050  Biso   1.000  H
  H191     1.0000 0.78400  0.72300  0.38950  Biso   1.000  H
  H192     1.0000 0.21600  0.72300  0.11050  Biso   1.000  H
  C153     1.0000 0.75240  0.76680  0.75580  Biso   1.000  C
  C154     1.0000 0.24760  0.76680  0.74420  Biso   1.000  C
  C155     1.0000 0.25240  0.26680  0.75580  Biso   1.000  C
  C156     1.0000 0.74760  0.26680  0.74420  Biso   1.000  C
  C157     1.0000 0.24760  0.23320  0.24420  Biso   1.000  C
  C158     1.0000 0.75240  0.23320  0.25580  Biso   1.000  C
  C159     1.0000 0.74760  0.73320  0.24420  Biso   1.000  C
  C160     1.0000 0.25240  0.73320  0.25580  Biso   1.000  C
  H193     1.0000 0.73350  0.81340  0.74040  Biso   1.000  H
  H194     1.0000 0.26650  0.81340  0.75960  Biso   1.000  H
  H195     1.0000 0.23350  0.31340  0.74040  Biso   1.000  H
  H196     1.0000 0.76650  0.31340  0.75960  Biso   1.000  H
  H197     1.0000 0.26650  0.18660  0.25960  Biso   1.000  H
  H198     1.0000 0.73350  0.18660  0.24040  Biso   1.000  H
  H199     1.0000 0.76650  0.68660  0.25960  Biso   1.000  H
  H200     1.0000 0.23350  0.68660  0.24040  Biso   1.000  H
