data_image0
_cell_length_a       16.652
_cell_length_b       18.311
_cell_length_c       18.392
_cell_angle_alpha    90
_cell_angle_beta     103.741
_cell_angle_gamma    90

_symmetry_space_group_name_H-M    "P 1"
_symmetry_int_tables_number       1

loop_
  _symmetry_equiv_pos_as_xyz
  'x, y, z'

loop_
  _atom_site_label
  _atom_site_occupancy
  _atom_site_fract_x
  _atom_site_fract_y
  _atom_site_fract_z
  _atom_site_thermal_displace_type
  _atom_site_B_iso_or_equiv
  _atom_site_type_symbol
  Ba1      1.0000 0.50000  0.47219  0.25000  Biso   1.000  Ba
  Ba2      1.0000 0.00000  0.97219  0.25000  Biso   1.000  Ba
  Ba3      1.0000 0.50000  0.52781  0.75000  Biso   1.000  Ba
  Ba4      1.0000 0.00000  0.02781  0.75000  Biso   1.000  Ba
  I1       1.0000 0.41800  0.02600  0.38632  Biso   1.000  I
  I2       1.0000 0.58200  0.02600  0.11368  Biso   1.000  I
  I3       1.0000 0.91800  0.52600  0.38632  Biso   1.000  I
  I4       1.0000 0.08200  0.52600  0.11368  Biso   1.000  I
  I5       1.0000 0.58200  0.97400  0.61368  Biso   1.000  I
  I6       1.0000 0.41800  0.97400  0.88632  Biso   1.000  I
  I7       1.0000 0.08200  0.47400  0.61368  Biso   1.000  I
  I8       1.0000 0.91800  0.47400  0.88632  Biso   1.000  I
  Cu1      1.0000 0.53732  0.94860  0.46985  Biso   1.000  Cu
  Cu2      1.0000 0.46268  0.94860  0.03015  Biso   1.000  Cu
  Cu3      1.0000 0.03732  0.44860  0.46985  Biso   1.000  Cu
  Cu4      1.0000 0.96268  0.44860  0.03015  Biso   1.000  Cu
  Cu5      1.0000 0.46268  0.05140  0.53015  Biso   1.000  Cu
  Cu6      1.0000 0.53732  0.05140  0.96985  Biso   1.000  Cu
  Cu7      1.0000 0.96268  0.55140  0.53015  Biso   1.000  Cu
  Cu8      1.0000 0.03732  0.55140  0.96985  Biso   1.000  Cu
  O1       1.0000 0.50510  0.56360  0.45990  Biso   1.000  O
  O2       1.0000 0.49490  0.56360  0.04010  Biso   1.000  O
  O3       1.0000 0.00510  0.06360  0.45990  Biso   1.000  O
  O4       1.0000 0.99490  0.06360  0.04010  Biso   1.000  O
  O5       1.0000 0.49490  0.43640  0.54010  Biso   1.000  O
  O6       1.0000 0.50510  0.43640  0.95990  Biso   1.000  O
  O7       1.0000 0.99490  0.93640  0.54010  Biso   1.000  O
  O8       1.0000 0.00510  0.93640  0.95990  Biso   1.000  O
  O9       1.0000 0.83580  0.96480  0.25840  Biso   1.000  O
  O10      1.0000 0.16420  0.96480  0.24160  Biso   1.000  O
  O11      1.0000 0.33580  0.46480  0.25840  Biso   1.000  O
  O12      1.0000 0.66420  0.46480  0.24160  Biso   1.000  O
  O13      1.0000 0.16420  0.03520  0.74160  Biso   1.000  O
  O14      1.0000 0.83580  0.03520  0.75840  Biso   1.000  O
  O15      1.0000 0.66420  0.53520  0.74160  Biso   1.000  O
  O16      1.0000 0.33580  0.53520  0.75840  Biso   1.000  O
  O17      1.0000 0.50300  0.58880  0.34160  Biso   1.000  O
  O18      1.0000 0.49700  0.58880  0.15840  Biso   1.000  O
  O19      1.0000 0.00300  0.08880  0.34160  Biso   1.000  O
  O20      1.0000 0.99700  0.08880  0.15840  Biso   1.000  O
  O21      1.0000 0.49700  0.41120  0.65840  Biso   1.000  O
  O22      1.0000 0.50300  0.41120  0.84160  Biso   1.000  O
  O23      1.0000 0.99700  0.91120  0.65840  Biso   1.000  O
  O24      1.0000 0.00300  0.91120  0.84160  Biso   1.000  O
  C1       1.0000 0.69840  0.96630  0.31900  Biso   1.000  C
  C2       1.0000 0.30160  0.96630  0.18100  Biso   1.000  C
  C3       1.0000 0.19840  0.46630  0.31900  Biso   1.000  C
  C4       1.0000 0.80160  0.46630  0.18100  Biso   1.000  C
  C5       1.0000 0.30160  0.03370  0.68100  Biso   1.000  C
  C6       1.0000 0.69840  0.03370  0.81900  Biso   1.000  C
  C7       1.0000 0.80160  0.53370  0.68100  Biso   1.000  C
  C8       1.0000 0.19840  0.53370  0.81900  Biso   1.000  C
  H1       1.0000 0.69000  0.97500  0.26800  Biso   1.000  H
  H2       1.0000 0.31000  0.97500  0.23200  Biso   1.000  H
  H3       1.0000 0.19000  0.47500  0.26800  Biso   1.000  H
  H4       1.0000 0.81000  0.47500  0.23200  Biso   1.000  H
  H5       1.0000 0.31000  0.02500  0.73200  Biso   1.000  H
  H6       1.0000 0.69000  0.02500  0.76800  Biso   1.000  H
  H7       1.0000 0.81000  0.52500  0.73200  Biso   1.000  H
  H8       1.0000 0.19000  0.52500  0.76800  Biso   1.000  H
  N1       1.0000 0.27840  0.38080  0.03750  Biso   1.000  N
  N2       1.0000 0.72160  0.38080  0.46250  Biso   1.000  N
  N3       1.0000 0.77840  0.88080  0.03750  Biso   1.000  N
  N4       1.0000 0.22160  0.88080  0.46250  Biso   1.000  N
  N5       1.0000 0.72160  0.61920  0.96250  Biso   1.000  N
  N6       1.0000 0.27840  0.61920  0.53750  Biso   1.000  N
  N7       1.0000 0.22160  0.11920  0.96250  Biso   1.000  N
  N8       1.0000 0.77840  0.11920  0.53750  Biso   1.000  N
  O25      1.0000 0.91730  0.92970  0.36560  Biso   1.000  O
  O26      1.0000 0.08270  0.92970  0.13440  Biso   1.000  O
  O27      1.0000 0.41730  0.42970  0.36560  Biso   1.000  O
  O28      1.0000 0.58270  0.42970  0.13440  Biso   1.000  O
  O29      1.0000 0.08270  0.07030  0.63440  Biso   1.000  O
  O30      1.0000 0.91730  0.07030  0.86560  Biso   1.000  O
  O31      1.0000 0.58270  0.57030  0.63440  Biso   1.000  O
  O32      1.0000 0.41730  0.57030  0.86560  Biso   1.000  O
  C9       1.0000 0.31010  0.36640  0.97030  Biso   1.000  C
  C10      1.0000 0.68990  0.36640  0.52970  Biso   1.000  C
  C11      1.0000 0.81010  0.86640  0.97030  Biso   1.000  C
  C12      1.0000 0.18990  0.86640  0.52970  Biso   1.000  C
  C13      1.0000 0.68990  0.63360  0.02970  Biso   1.000  C
  C14      1.0000 0.31010  0.63360  0.47030  Biso   1.000  C
  C15      1.0000 0.18990  0.13360  0.02970  Biso   1.000  C
  C16      1.0000 0.81010  0.13360  0.47030  Biso   1.000  C
  H9       1.0000 0.35300  0.40070  0.96830  Biso   1.000  H
  H10      1.0000 0.64700  0.40070  0.53170  Biso   1.000  H
  H11      1.0000 0.85300  0.90070  0.96830  Biso   1.000  H
  H12      1.0000 0.14700  0.90070  0.53170  Biso   1.000  H
  H13      1.0000 0.64700  0.59930  0.03170  Biso   1.000  H
  H14      1.0000 0.35300  0.59930  0.46830  Biso   1.000  H
  H15      1.0000 0.14700  0.09930  0.03170  Biso   1.000  H
  H16      1.0000 0.85300  0.09930  0.46830  Biso   1.000  H
  H17      1.0000 0.26590  0.37130  0.92630  Biso   1.000  H
  H18      1.0000 0.73410  0.37130  0.57370  Biso   1.000  H
  H19      1.0000 0.76590  0.87130  0.92630  Biso   1.000  H
  H20      1.0000 0.23410  0.87130  0.57370  Biso   1.000  H
  H21      1.0000 0.73410  0.62870  0.07370  Biso   1.000  H
  H22      1.0000 0.26590  0.62870  0.42630  Biso   1.000  H
  H23      1.0000 0.23410  0.12870  0.07370  Biso   1.000  H
  H24      1.0000 0.76590  0.12870  0.42630  Biso   1.000  H
  H25      1.0000 0.33190  0.31770  0.97280  Biso   1.000  H
  H26      1.0000 0.66810  0.31770  0.52720  Biso   1.000  H
  H27      1.0000 0.83190  0.81770  0.97280  Biso   1.000  H
  H28      1.0000 0.16810  0.81770  0.52720  Biso   1.000  H
  H29      1.0000 0.66810  0.68230  0.02720  Biso   1.000  H
  H30      1.0000 0.33190  0.68230  0.47280  Biso   1.000  H
  H31      1.0000 0.16810  0.18230  0.02720  Biso   1.000  H
  H32      1.0000 0.83190  0.18230  0.47280  Biso   1.000  H
  C17      1.0000 0.78480  0.93840  0.43670  Biso   1.000  C
  C18      1.0000 0.21520  0.93840  0.06330  Biso   1.000  C
  C19      1.0000 0.28480  0.43840  0.43670  Biso   1.000  C
  C20      1.0000 0.71520  0.43840  0.06330  Biso   1.000  C
  C21      1.0000 0.21520  0.06160  0.56330  Biso   1.000  C
  C22      1.0000 0.78480  0.06160  0.93670  Biso   1.000  C
  C23      1.0000 0.71520  0.56160  0.56330  Biso   1.000  C
  C24      1.0000 0.28480  0.56160  0.93670  Biso   1.000  C
  H33      1.0000 0.83640  0.92780  0.46760  Biso   1.000  H
  H34      1.0000 0.16360  0.92780  0.03240  Biso   1.000  H
  H35      1.0000 0.33640  0.42780  0.46760  Biso   1.000  H
  H36      1.0000 0.66360  0.42780  0.03240  Biso   1.000  H
  H37      1.0000 0.16360  0.07220  0.53240  Biso   1.000  H
  H38      1.0000 0.83640  0.07220  0.96760  Biso   1.000  H
  H39      1.0000 0.66360  0.57220  0.53240  Biso   1.000  H
  H40      1.0000 0.33640  0.57220  0.96760  Biso   1.000  H
  C25      1.0000 0.77600  0.95080  0.36050  Biso   1.000  C
  C26      1.0000 0.22400  0.95080  0.13950  Biso   1.000  C
  C27      1.0000 0.27600  0.45080  0.36050  Biso   1.000  C
  C28      1.0000 0.72400  0.45080  0.13950  Biso   1.000  C
  C29      1.0000 0.22400  0.04920  0.63950  Biso   1.000  C
  C30      1.0000 0.77600  0.04920  0.86050  Biso   1.000  C
  C31      1.0000 0.72400  0.54920  0.63950  Biso   1.000  C
  C32      1.0000 0.27600  0.54920  0.86050  Biso   1.000  C
  C33      1.0000 0.50300  0.60670  0.40650  Biso   1.000  C
  C34      1.0000 0.49700  0.60670  0.09350  Biso   1.000  C
  C35      1.0000 0.00300  0.10670  0.40650  Biso   1.000  C
  C36      1.0000 0.99700  0.10670  0.09350  Biso   1.000  C
  C37      1.0000 0.49700  0.39330  0.59350  Biso   1.000  C
  C38      1.0000 0.50300  0.39330  0.90650  Biso   1.000  C
  C39      1.0000 0.99700  0.89330  0.59350  Biso   1.000  C
  C40      1.0000 0.00300  0.89330  0.90650  Biso   1.000  C
  O33      1.0000 0.50000  0.32520  0.25000  Biso   1.000  O
  O34      1.0000 0.00000  0.82520  0.25000  Biso   1.000  O
  O35      1.0000 0.50000  0.67480  0.75000  Biso   1.000  O
  O36      1.0000 0.00000  0.17480  0.75000  Biso   1.000  O
  O37      1.0000 0.39830  0.43230  0.09890  Biso   1.000  O
  O38      1.0000 0.60170  0.43230  0.40110  Biso   1.000  O
  O39      1.0000 0.89830  0.93230  0.09890  Biso   1.000  O
  O40      1.0000 0.10170  0.93230  0.40110  Biso   1.000  O
  O41      1.0000 0.60170  0.56770  0.90110  Biso   1.000  O
  O42      1.0000 0.39830  0.56770  0.59890  Biso   1.000  O
  O43      1.0000 0.10170  0.06770  0.90110  Biso   1.000  O
  O44      1.0000 0.89830  0.06770  0.59890  Biso   1.000  O
  N9       1.0000 0.64080  0.95740  0.42500  Biso   1.000  N
  N10      1.0000 0.35920  0.95740  0.07500  Biso   1.000  N
  N11      1.0000 0.14080  0.45740  0.42500  Biso   1.000  N
  N12      1.0000 0.85920  0.45740  0.07500  Biso   1.000  N
  N13      1.0000 0.35920  0.04260  0.57500  Biso   1.000  N
  N14      1.0000 0.64080  0.04260  0.92500  Biso   1.000  N
  N15      1.0000 0.85920  0.54260  0.57500  Biso   1.000  N
  N16      1.0000 0.14080  0.54260  0.92500  Biso   1.000  N
  C41      1.0000 0.71530  0.94220  0.46570  Biso   1.000  C
  C42      1.0000 0.28470  0.94220  0.03430  Biso   1.000  C
  C43      1.0000 0.21530  0.44220  0.46570  Biso   1.000  C
  C44      1.0000 0.78470  0.44220  0.03430  Biso   1.000  C
  C45      1.0000 0.28470  0.05780  0.53430  Biso   1.000  C
  C46      1.0000 0.71530  0.05780  0.96570  Biso   1.000  C
  C47      1.0000 0.78470  0.55780  0.53430  Biso   1.000  C
  C48      1.0000 0.21530  0.55780  0.96570  Biso   1.000  C
  H41      1.0000 0.72160  0.93360  0.51660  Biso   1.000  H
  H42      1.0000 0.27840  0.93360  0.98340  Biso   1.000  H
  H43      1.0000 0.22160  0.43360  0.51660  Biso   1.000  H
  H44      1.0000 0.77840  0.43360  0.98340  Biso   1.000  H
  H45      1.0000 0.27840  0.06640  0.48340  Biso   1.000  H
  H46      1.0000 0.72160  0.06640  0.01660  Biso   1.000  H
  H47      1.0000 0.77840  0.56640  0.48340  Biso   1.000  H
  H48      1.0000 0.22160  0.56640  0.01660  Biso   1.000  H
  N17      1.0000 0.51220  0.83740  0.45280  Biso   1.000  N
  N18      1.0000 0.48780  0.83740  0.04720  Biso   1.000  N
  N19      1.0000 0.01220  0.33740  0.45280  Biso   1.000  N
  N20      1.0000 0.98780  0.33740  0.04720  Biso   1.000  N
  N21      1.0000 0.48780  0.16260  0.54720  Biso   1.000  N
  N22      1.0000 0.51220  0.16260  0.95280  Biso   1.000  N
  N23      1.0000 0.98780  0.66260  0.54720  Biso   1.000  N
  N24      1.0000 0.01220  0.66260  0.95280  Biso   1.000  N
  C49      1.0000 0.52890  0.71430  0.49630  Biso   1.000  C
  C50      1.0000 0.47110  0.71430  0.00370  Biso   1.000  C
  C51      1.0000 0.02890  0.21430  0.49630  Biso   1.000  C
  C52      1.0000 0.97110  0.21430  0.00370  Biso   1.000  C
  C53      1.0000 0.47110  0.28570  0.50370  Biso   1.000  C
  C54      1.0000 0.52890  0.28570  0.99630  Biso   1.000  C
  C55      1.0000 0.97110  0.78570  0.50370  Biso   1.000  C
  C56      1.0000 0.02890  0.78570  0.99630  Biso   1.000  C
  H49      1.0000 0.54180  0.68230  0.53670  Biso   1.000  H
  H50      1.0000 0.45820  0.68230  0.96330  Biso   1.000  H
  H51      1.0000 0.04180  0.18230  0.53670  Biso   1.000  H
  H52      1.0000 0.95820  0.18230  0.96330  Biso   1.000  H
  H53      1.0000 0.45820  0.31770  0.46330  Biso   1.000  H
  H54      1.0000 0.54180  0.31770  0.03670  Biso   1.000  H
  H55      1.0000 0.95820  0.81770  0.46330  Biso   1.000  H
  H56      1.0000 0.04180  0.81770  0.03670  Biso   1.000  H
  C57      1.0000 0.50640  0.68790  0.42320  Biso   1.000  C
  C58      1.0000 0.49360  0.68790  0.07680  Biso   1.000  C
  C59      1.0000 0.00640  0.18790  0.42320  Biso   1.000  C
  C60      1.0000 0.99360  0.18790  0.07680  Biso   1.000  C
  C61      1.0000 0.49360  0.31210  0.57680  Biso   1.000  C
  C62      1.0000 0.50640  0.31210  0.92320  Biso   1.000  C
  C63      1.0000 0.99360  0.81210  0.57680  Biso   1.000  C
  C64      1.0000 0.00640  0.81210  0.92320  Biso   1.000  C
  C65      1.0000 0.84850  0.94850  0.32560  Biso   1.000  C
  C66      1.0000 0.15150  0.94850  0.17440  Biso   1.000  C
  C67      1.0000 0.34850  0.44850  0.32560  Biso   1.000  C
  C68      1.0000 0.65150  0.44850  0.17440  Biso   1.000  C
  C69      1.0000 0.15150  0.05150  0.67440  Biso   1.000  C
  C70      1.0000 0.84850  0.05150  0.82560  Biso   1.000  C
  C71      1.0000 0.65150  0.55150  0.67440  Biso   1.000  C
  C72      1.0000 0.34850  0.55150  0.82560  Biso   1.000  C
  C73      1.0000 0.53150  0.78830  0.50740  Biso   1.000  C
  C74      1.0000 0.46850  0.78830  0.99260  Biso   1.000  C
  C75      1.0000 0.03150  0.28830  0.50740  Biso   1.000  C
  C76      1.0000 0.96850  0.28830  0.99260  Biso   1.000  C
  C77      1.0000 0.46850  0.21170  0.49260  Biso   1.000  C
  C78      1.0000 0.53150  0.21170  0.00740  Biso   1.000  C
  C79      1.0000 0.96850  0.71170  0.49260  Biso   1.000  C
  C80      1.0000 0.03150  0.71170  0.00740  Biso   1.000  C
  H57      1.0000 0.54800  0.80530  0.55630  Biso   1.000  H
  H58      1.0000 0.45200  0.80530  0.94370  Biso   1.000  H
  H59      1.0000 0.04800  0.30530  0.55630  Biso   1.000  H
  H60      1.0000 0.95200  0.30530  0.94370  Biso   1.000  H
  H61      1.0000 0.45200  0.19470  0.44370  Biso   1.000  H
  H62      1.0000 0.54800  0.19470  0.05630  Biso   1.000  H
  H63      1.0000 0.95200  0.69470  0.44370  Biso   1.000  H
  H64      1.0000 0.04800  0.69470  0.05630  Biso   1.000  H
  C81      1.0000 0.63240  0.96910  0.35220  Biso   1.000  C
  C82      1.0000 0.36760  0.96910  0.14780  Biso   1.000  C
  C83      1.0000 0.13240  0.46910  0.35220  Biso   1.000  C
  C84      1.0000 0.86760  0.46910  0.14780  Biso   1.000  C
  C85      1.0000 0.36760  0.03090  0.64780  Biso   1.000  C
  C86      1.0000 0.63240  0.03090  0.85220  Biso   1.000  C
  C87      1.0000 0.86760  0.53090  0.64780  Biso   1.000  C
  C88      1.0000 0.13240  0.53090  0.85220  Biso   1.000  C
  H65      1.0000 0.58010  0.97950  0.32270  Biso   1.000  H
  H66      1.0000 0.41990  0.97950  0.17730  Biso   1.000  H
  H67      1.0000 0.08010  0.47950  0.32270  Biso   1.000  H
  H68      1.0000 0.91990  0.47950  0.17730  Biso   1.000  H
  H69      1.0000 0.41990  0.02050  0.67730  Biso   1.000  H
  H70      1.0000 0.58010  0.02050  0.82270  Biso   1.000  H
  H71      1.0000 0.91990  0.52050  0.67730  Biso   1.000  H
  H72      1.0000 0.08010  0.52050  0.82270  Biso   1.000  H
  C89      1.0000 0.32570  0.41360  0.09310  Biso   1.000  C
  C90      1.0000 0.67430  0.41360  0.40690  Biso   1.000  C
  C91      1.0000 0.82570  0.91360  0.09310  Biso   1.000  C
  C92      1.0000 0.17430  0.91360  0.40690  Biso   1.000  C
  C93      1.0000 0.67430  0.58640  0.90690  Biso   1.000  C
  C94      1.0000 0.32570  0.58640  0.59310  Biso   1.000  C
  C95      1.0000 0.17430  0.08640  0.90690  Biso   1.000  C
  C96      1.0000 0.82570  0.08640  0.59310  Biso   1.000  C
  H73      1.0000 0.30290  0.42460  0.13340  Biso   1.000  H
  H74      1.0000 0.69710  0.42460  0.36660  Biso   1.000  H
  H75      1.0000 0.80290  0.92460  0.13340  Biso   1.000  H
  H76      1.0000 0.19710  0.92460  0.36660  Biso   1.000  H
  H77      1.0000 0.69710  0.57540  0.86660  Biso   1.000  H
  H78      1.0000 0.30290  0.57540  0.63340  Biso   1.000  H
  H79      1.0000 0.19710  0.07540  0.86660  Biso   1.000  H
  H80      1.0000 0.80290  0.07540  0.63340  Biso   1.000  H
  C97      1.0000 0.48560  0.73820  0.36660  Biso   1.000  C
  C98      1.0000 0.51440  0.73820  0.13340  Biso   1.000  C
  C99      1.0000 0.98560  0.23820  0.36660  Biso   1.000  C
  C100     1.0000 0.01440  0.23820  0.13340  Biso   1.000  C
  C101     1.0000 0.51440  0.26180  0.63340  Biso   1.000  C
  C102     1.0000 0.48560  0.26180  0.86660  Biso   1.000  C
  C103     1.0000 0.01440  0.76180  0.63340  Biso   1.000  C
  C104     1.0000 0.98560  0.76180  0.86660  Biso   1.000  C
  H81      1.0000 0.46930  0.72270  0.31710  Biso   1.000  H
  H82      1.0000 0.53070  0.72270  0.18290  Biso   1.000  H
  H83      1.0000 0.96930  0.22270  0.31710  Biso   1.000  H
  H84      1.0000 0.03070  0.22270  0.18290  Biso   1.000  H
  H85      1.0000 0.53070  0.27730  0.68290  Biso   1.000  H
  H86      1.0000 0.46930  0.27730  0.81710  Biso   1.000  H
  H87      1.0000 0.03070  0.77730  0.68290  Biso   1.000  H
  H88      1.0000 0.96930  0.77730  0.81710  Biso   1.000  H
  C105     1.0000 0.48890  0.81160  0.38320  Biso   1.000  C
  C106     1.0000 0.51110  0.81160  0.11680  Biso   1.000  C
  C107     1.0000 0.98890  0.31160  0.38320  Biso   1.000  C
  C108     1.0000 0.01110  0.31160  0.11680  Biso   1.000  C
  C109     1.0000 0.51110  0.18840  0.61680  Biso   1.000  C
  C110     1.0000 0.48890  0.18840  0.88320  Biso   1.000  C
  C111     1.0000 0.01110  0.68840  0.61680  Biso   1.000  C
  C112     1.0000 0.98890  0.68840  0.88320  Biso   1.000  C
  H89      1.0000 0.47420  0.84470  0.34400  Biso   1.000  H
  H90      1.0000 0.52580  0.84470  0.15600  Biso   1.000  H
  H91      1.0000 0.97420  0.34470  0.34400  Biso   1.000  H
  H92      1.0000 0.02580  0.34470  0.15600  Biso   1.000  H
  H93      1.0000 0.52580  0.15530  0.65600  Biso   1.000  H
  H94      1.0000 0.47420  0.15530  0.84400  Biso   1.000  H
  H95      1.0000 0.02580  0.65530  0.65600  Biso   1.000  H
  H96      1.0000 0.97420  0.65530  0.84400  Biso   1.000  H
  C113     1.0000 0.19440  0.35880  0.03260  Biso   1.000  C
  C114     1.0000 0.80560  0.35880  0.46740  Biso   1.000  C
  C115     1.0000 0.69440  0.85880  0.03260  Biso   1.000  C
  C116     1.0000 0.30560  0.85880  0.46740  Biso   1.000  C
  C117     1.0000 0.80560  0.64120  0.96740  Biso   1.000  C
  C118     1.0000 0.19440  0.64120  0.53260  Biso   1.000  C
  C119     1.0000 0.30560  0.14120  0.96740  Biso   1.000  C
  C120     1.0000 0.69440  0.14120  0.53260  Biso   1.000  C
  H97      1.0000 0.16030  0.37380  0.98530  Biso   1.000  H
  H98      1.0000 0.83970  0.37380  0.51470  Biso   1.000  H
  H99      1.0000 0.66030  0.87380  0.98530  Biso   1.000  H
  H100     1.0000 0.33970  0.87380  0.51470  Biso   1.000  H
  H101     1.0000 0.83970  0.62620  0.01470  Biso   1.000  H
  H102     1.0000 0.16030  0.62620  0.48530  Biso   1.000  H
  H103     1.0000 0.33970  0.12620  0.01470  Biso   1.000  H
  H104     1.0000 0.66030  0.12620  0.48530  Biso   1.000  H
  H105     1.0000 0.17490  0.38110  0.07240  Biso   1.000  H
  H106     1.0000 0.82510  0.38110  0.42760  Biso   1.000  H
  H107     1.0000 0.67490  0.88110  0.07240  Biso   1.000  H
  H108     1.0000 0.32510  0.88110  0.42760  Biso   1.000  H
  H109     1.0000 0.82510  0.61890  0.92760  Biso   1.000  H
  H110     1.0000 0.17490  0.61890  0.57240  Biso   1.000  H
  H111     1.0000 0.32510  0.11890  0.92760  Biso   1.000  H
  H112     1.0000 0.67490  0.11890  0.57240  Biso   1.000  H
  H113     1.0000 0.19200  0.30660  0.03690  Biso   1.000  H
  H114     1.0000 0.80800  0.30660  0.46310  Biso   1.000  H
  H115     1.0000 0.69200  0.80660  0.03690  Biso   1.000  H
  H116     1.0000 0.30800  0.80660  0.46310  Biso   1.000  H
  H117     1.0000 0.80800  0.69340  0.96310  Biso   1.000  H
  H118     1.0000 0.19200  0.69340  0.53690  Biso   1.000  H
  H119     1.0000 0.30800  0.19340  0.96310  Biso   1.000  H
  H120     1.0000 0.69200  0.19340  0.53690  Biso   1.000  H
  Li1      1.0000 0.50950  0.45830  0.44230  Biso   1.000  Li
  Li2      1.0000 0.49050  0.45830  0.05770  Biso   1.000  Li
  Li3      1.0000 0.00950  0.95830  0.44230  Biso   1.000  Li
  Li4      1.0000 0.99050  0.95830  0.05770  Biso   1.000  Li
  Li5      1.0000 0.49050  0.54170  0.55770  Biso   1.000  Li
  Li6      1.0000 0.50950  0.54170  0.94230  Biso   1.000  Li
  Li7      1.0000 0.99050  0.04170  0.55770  Biso   1.000  Li
  Li8      1.0000 0.00950  0.04170  0.94230  Biso   1.000  Li
  N25      1.0000 0.51400  0.20780  0.26100  Biso   1.000  N
  N26      1.0000 0.48600  0.20780  0.23900  Biso   1.000  N
  N27      1.0000 0.01400  0.70780  0.26100  Biso   1.000  N
  N28      1.0000 0.98600  0.70780  0.23900  Biso   1.000  N
  N29      1.0000 0.48600  0.79220  0.73900  Biso   1.000  N
  N30      1.0000 0.51400  0.79220  0.76100  Biso   1.000  N
  N31      1.0000 0.98600  0.29220  0.73900  Biso   1.000  N
  N32      1.0000 0.01400  0.29220  0.76100  Biso   1.000  N
  C121     1.0000 0.43860  0.17030  0.20550  Biso   1.000  C
  C122     1.0000 0.56140  0.17030  0.29450  Biso   1.000  C
  C123     1.0000 0.93860  0.67030  0.20550  Biso   1.000  C
  C124     1.0000 0.06140  0.67030  0.29450  Biso   1.000  C
  C125     1.0000 0.56140  0.82970  0.79450  Biso   1.000  C
  C126     1.0000 0.43860  0.82970  0.70550  Biso   1.000  C
  C127     1.0000 0.06140  0.32970  0.79450  Biso   1.000  C
  C128     1.0000 0.93860  0.32970  0.70550  Biso   1.000  C
  C129     1.0000 0.54600  0.27350  0.28370  Biso   1.000  C
  C130     1.0000 0.45400  0.27350  0.21630  Biso   1.000  C
  C131     1.0000 0.04600  0.77350  0.28370  Biso   1.000  C
  C132     1.0000 0.95400  0.77350  0.21630  Biso   1.000  C
  C133     1.0000 0.45400  0.72650  0.71630  Biso   1.000  C
  C134     1.0000 0.54600  0.72650  0.78370  Biso   1.000  C
  C135     1.0000 0.95400  0.22650  0.71630  Biso   1.000  C
  C136     1.0000 0.04600  0.22650  0.78370  Biso   1.000  C
  N33      1.0000 0.27630  0.70800  0.20730  Biso   1.000  N
  N34      1.0000 0.72370  0.70800  0.29270  Biso   1.000  N
  N35      1.0000 0.77630  0.20800  0.20730  Biso   1.000  N
  N36      1.0000 0.22370  0.20800  0.29270  Biso   1.000  N
  N37      1.0000 0.72370  0.29200  0.79270  Biso   1.000  N
  N38      1.0000 0.27630  0.29200  0.70730  Biso   1.000  N
  N39      1.0000 0.22370  0.79200  0.79270  Biso   1.000  N
  N40      1.0000 0.77630  0.79200  0.70730  Biso   1.000  N
  O45      1.0000 0.25860  0.74160  0.32160  Biso   1.000  O
  O46      1.0000 0.74140  0.74160  0.17840  Biso   1.000  O
  O47      1.0000 0.75860  0.24160  0.32160  Biso   1.000  O
  O48      1.0000 0.24140  0.24160  0.17840  Biso   1.000  O
  O49      1.0000 0.74140  0.25840  0.67840  Biso   1.000  O
  O50      1.0000 0.25860  0.25840  0.82160  Biso   1.000  O
  O51      1.0000 0.24140  0.75840  0.67840  Biso   1.000  O
  O52      1.0000 0.75860  0.75840  0.82160  Biso   1.000  O
  C137     1.0000 0.29360  0.64150  0.23500  Biso   1.000  C
  C138     1.0000 0.70640  0.64150  0.26500  Biso   1.000  C
  C139     1.0000 0.79360  0.14150  0.23500  Biso   1.000  C
  C140     1.0000 0.20640  0.14150  0.26500  Biso   1.000  C
  C141     1.0000 0.70640  0.35850  0.76500  Biso   1.000  C
  C142     1.0000 0.29360  0.35850  0.73500  Biso   1.000  C
  C143     1.0000 0.20640  0.85850  0.76500  Biso   1.000  C
  C144     1.0000 0.79360  0.85850  0.73500  Biso   1.000  C
  H121     1.0000 0.29770  0.64230  0.28790  Biso   1.000  H
  H122     1.0000 0.70230  0.64230  0.21210  Biso   1.000  H
  H123     1.0000 0.79770  0.14230  0.28790  Biso   1.000  H
  H124     1.0000 0.20230  0.14230  0.21210  Biso   1.000  H
  H125     1.0000 0.70230  0.35770  0.71210  Biso   1.000  H
  H126     1.0000 0.29770  0.35770  0.78790  Biso   1.000  H
  H127     1.0000 0.20230  0.85770  0.71210  Biso   1.000  H
  H128     1.0000 0.79770  0.85770  0.78790  Biso   1.000  H
  H129     1.0000 0.34520  0.62560  0.22570  Biso   1.000  H
  H130     1.0000 0.65480  0.62560  0.27430  Biso   1.000  H
  H131     1.0000 0.84520  0.12560  0.22570  Biso   1.000  H
  H132     1.0000 0.15480  0.12560  0.27430  Biso   1.000  H
  H133     1.0000 0.65480  0.37440  0.77430  Biso   1.000  H
  H134     1.0000 0.34520  0.37440  0.72570  Biso   1.000  H
  H135     1.0000 0.15480  0.87440  0.77430  Biso   1.000  H
  H136     1.0000 0.84520  0.87440  0.72570  Biso   1.000  H
  H137     1.0000 0.25050  0.60850  0.21140  Biso   1.000  H
  H138     1.0000 0.74950  0.60850  0.28860  Biso   1.000  H
  H139     1.0000 0.75050  0.10850  0.21140  Biso   1.000  H
  H140     1.0000 0.24950  0.10850  0.28860  Biso   1.000  H
  H141     1.0000 0.74950  0.39150  0.78860  Biso   1.000  H
  H142     1.0000 0.25050  0.39150  0.71140  Biso   1.000  H
  H143     1.0000 0.24950  0.89150  0.78860  Biso   1.000  H
  H144     1.0000 0.75050  0.89150  0.71140  Biso   1.000  H
  C145     1.0000 0.25580  0.76200  0.25130  Biso   1.000  C
  C146     1.0000 0.74420  0.76200  0.24870  Biso   1.000  C
  C147     1.0000 0.75580  0.26200  0.25130  Biso   1.000  C
  C148     1.0000 0.24420  0.26200  0.24870  Biso   1.000  C
  C149     1.0000 0.74420  0.23800  0.74870  Biso   1.000  C
  C150     1.0000 0.25580  0.23800  0.75130  Biso   1.000  C
  C151     1.0000 0.24420  0.73800  0.74870  Biso   1.000  C
  C152     1.0000 0.75580  0.73800  0.75130  Biso   1.000  C
  H145     1.0000 0.24100  0.80870  0.23370  Biso   1.000  H
  H146     1.0000 0.75900  0.80870  0.26630  Biso   1.000  H
  H147     1.0000 0.74100  0.30870  0.23370  Biso   1.000  H
  H148     1.0000 0.25900  0.30870  0.26630  Biso   1.000  H
  H149     1.0000 0.75900  0.19130  0.76630  Biso   1.000  H
  H150     1.0000 0.24100  0.19130  0.73370  Biso   1.000  H
  H151     1.0000 0.25900  0.69130  0.76630  Biso   1.000  H
  H152     1.0000 0.74100  0.69130  0.73370  Biso   1.000  H
  C153     1.0000 0.26700  0.73900  0.11520  Biso   1.000  C
  C154     1.0000 0.73300  0.73900  0.38480  Biso   1.000  C
  C155     1.0000 0.76700  0.23900  0.11520  Biso   1.000  C
  C156     1.0000 0.23300  0.23900  0.38480  Biso   1.000  C
  C157     1.0000 0.73300  0.26100  0.88480  Biso   1.000  C
  C158     1.0000 0.26700  0.26100  0.61520  Biso   1.000  C
  C159     1.0000 0.23300  0.76100  0.88480  Biso   1.000  C
  C160     1.0000 0.76700  0.76100  0.61520  Biso   1.000  C
  H153     1.0000 0.31780  0.76220  0.11160  Biso   1.000  H
  H154     1.0000 0.68220  0.76220  0.38840  Biso   1.000  H
  H155     1.0000 0.81780  0.26220  0.11160  Biso   1.000  H
  H156     1.0000 0.18220  0.26220  0.38840  Biso   1.000  H
  H157     1.0000 0.68220  0.23780  0.88840  Biso   1.000  H
  H158     1.0000 0.31780  0.23780  0.61160  Biso   1.000  H
  H159     1.0000 0.18220  0.73780  0.88840  Biso   1.000  H
  H160     1.0000 0.81780  0.73780  0.61160  Biso   1.000  H
  H161     1.0000 0.22260  0.77340  0.10240  Biso   1.000  H
  H162     1.0000 0.77740  0.77340  0.39760  Biso   1.000  H
  H163     1.0000 0.72260  0.27340  0.10240  Biso   1.000  H
  H164     1.0000 0.27740  0.27340  0.39760  Biso   1.000  H
  H165     1.0000 0.77740  0.22660  0.89760  Biso   1.000  H
  H166     1.0000 0.22260  0.22660  0.60240  Biso   1.000  H
  H167     1.0000 0.27740  0.72660  0.89760  Biso   1.000  H
  H168     1.0000 0.72260  0.72660  0.60240  Biso   1.000  H
  H169     1.0000 0.25630  0.69830  0.08140  Biso   1.000  H
  H170     1.0000 0.74370  0.69830  0.41860  Biso   1.000  H
  H171     1.0000 0.75630  0.19830  0.08140  Biso   1.000  H
  H172     1.0000 0.24370  0.19830  0.41860  Biso   1.000  H
  H173     1.0000 0.74370  0.30170  0.91860  Biso   1.000  H
  H174     1.0000 0.25630  0.30170  0.58140  Biso   1.000  H
  H175     1.0000 0.24370  0.80170  0.91860  Biso   1.000  H
  H176     1.0000 0.75630  0.80170  0.58140  Biso   1.000  H
