data_image0
_cell_length_a       12.64
_cell_length_b       17.343
_cell_length_c       7.839
_cell_angle_alpha    90
_cell_angle_beta     94.946
_cell_angle_gamma    90

_symmetry_space_group_name_H-M    "P 1"
_symmetry_int_tables_number       1

loop_
  _symmetry_equiv_pos_as_xyz
  'x, y, z'

loop_
  _atom_site_label
  _atom_site_occupancy
  _atom_site_fract_x
  _atom_site_fract_y
  _atom_site_fract_z
  _atom_site_thermal_displace_type
  _atom_site_B_iso_or_equiv
  _atom_site_type_symbol
  Cu1      1.0000 0.41525  0.06513  0.08120  Biso   1.000  Cu
  Cu2      1.0000 0.58475  0.06513  0.41880  Biso   1.000  Cu
  Cu3      1.0000 0.91525  0.56513  0.08120  Biso   1.000  Cu
  Cu4      1.0000 0.08475  0.56513  0.41880  Biso   1.000  Cu
  Cu5      1.0000 0.58475  0.93487  0.91880  Biso   1.000  Cu
  Cu6      1.0000 0.41525  0.93487  0.58120  Biso   1.000  Cu
  Cu7      1.0000 0.08475  0.43487  0.91880  Biso   1.000  Cu
  Cu8      1.0000 0.91525  0.43487  0.58120  Biso   1.000  Cu
  C1       1.0000 0.15990  0.34250  0.34380  Biso   1.000  C
  C2       1.0000 0.84010  0.34250  0.15620  Biso   1.000  C
  C3       1.0000 0.65990  0.84250  0.34380  Biso   1.000  C
  C4       1.0000 0.34010  0.84250  0.15620  Biso   1.000  C
  C5       1.0000 0.84010  0.65750  0.65620  Biso   1.000  C
  C6       1.0000 0.15990  0.65750  0.84380  Biso   1.000  C
  C7       1.0000 0.34010  0.15750  0.65620  Biso   1.000  C
  C8       1.0000 0.65990  0.15750  0.84380  Biso   1.000  C
  C9       1.0000 0.18220  0.20250  0.29140  Biso   1.000  C
  C10      1.0000 0.81780  0.20250  0.20860  Biso   1.000  C
  C11      1.0000 0.68220  0.70250  0.29140  Biso   1.000  C
  C12      1.0000 0.31780  0.70250  0.20860  Biso   1.000  C
  C13      1.0000 0.81780  0.79750  0.70860  Biso   1.000  C
  C14      1.0000 0.18220  0.79750  0.79140  Biso   1.000  C
  C15      1.0000 0.31780  0.29750  0.70860  Biso   1.000  C
  C16      1.0000 0.68220  0.29750  0.79140  Biso   1.000  C
  H1       1.0000 0.11870  0.19300  0.33930  Biso   1.000  H
  H2       1.0000 0.88130  0.19300  0.16070  Biso   1.000  H
  H3       1.0000 0.61870  0.69300  0.33930  Biso   1.000  H
  H4       1.0000 0.38130  0.69300  0.16070  Biso   1.000  H
  H5       1.0000 0.88130  0.80700  0.66070  Biso   1.000  H
  H6       1.0000 0.11870  0.80700  0.83930  Biso   1.000  H
  H7       1.0000 0.38130  0.30700  0.66070  Biso   1.000  H
  H8       1.0000 0.61870  0.30700  0.83930  Biso   1.000  H
  C17      1.0000 0.24080  0.14210  0.23100  Biso   1.000  C
  C18      1.0000 0.75920  0.14210  0.26900  Biso   1.000  C
  C19      1.0000 0.74080  0.64210  0.23100  Biso   1.000  C
  C20      1.0000 0.25920  0.64210  0.26900  Biso   1.000  C
  C21      1.0000 0.75920  0.85790  0.76900  Biso   1.000  C
  C22      1.0000 0.24080  0.85790  0.73100  Biso   1.000  C
  C23      1.0000 0.25920  0.35790  0.76900  Biso   1.000  C
  C24      1.0000 0.74080  0.35790  0.73100  Biso   1.000  C
  H9       1.0000 0.21530  0.09210  0.24070  Biso   1.000  H
  H10      1.0000 0.78470  0.09210  0.25930  Biso   1.000  H
  H11      1.0000 0.71530  0.59210  0.24070  Biso   1.000  H
  H12      1.0000 0.28470  0.59210  0.25930  Biso   1.000  H
  H13      1.0000 0.78470  0.90790  0.75930  Biso   1.000  H
  H14      1.0000 0.21530  0.90790  0.74070  Biso   1.000  H
  H15      1.0000 0.28470  0.40790  0.75930  Biso   1.000  H
  H16      1.0000 0.71530  0.40790  0.74070  Biso   1.000  H
  C25      1.0000 0.31470  0.28790  0.20630  Biso   1.000  C
  C26      1.0000 0.68530  0.28790  0.29370  Biso   1.000  C
  C27      1.0000 0.81470  0.78790  0.20630  Biso   1.000  C
  C28      1.0000 0.18530  0.78790  0.29370  Biso   1.000  C
  C29      1.0000 0.68530  0.71210  0.79370  Biso   1.000  C
  C30      1.0000 0.31470  0.71210  0.70630  Biso   1.000  C
  C31      1.0000 0.18530  0.21210  0.79370  Biso   1.000  C
  C32      1.0000 0.81470  0.21210  0.70630  Biso   1.000  C
  H17      1.0000 0.34260  0.33720  0.19770  Biso   1.000  H
  H18      1.0000 0.65740  0.33720  0.30230  Biso   1.000  H
  H19      1.0000 0.84260  0.83720  0.19770  Biso   1.000  H
  H20      1.0000 0.15740  0.83720  0.30230  Biso   1.000  H
  H21      1.0000 0.65740  0.66280  0.80230  Biso   1.000  H
  H22      1.0000 0.34260  0.66280  0.69770  Biso   1.000  H
  H23      1.0000 0.15740  0.16280  0.80230  Biso   1.000  H
  H24      1.0000 0.84260  0.16280  0.69770  Biso   1.000  H
  C33      1.0000 0.36740  0.22560  0.14710  Biso   1.000  C
  C34      1.0000 0.63260  0.22560  0.35290  Biso   1.000  C
  C35      1.0000 0.86740  0.72560  0.14710  Biso   1.000  C
  C36      1.0000 0.13260  0.72560  0.35290  Biso   1.000  C
  C37      1.0000 0.63260  0.77440  0.85290  Biso   1.000  C
  C38      1.0000 0.36740  0.77440  0.64710  Biso   1.000  C
  C39      1.0000 0.13260  0.27440  0.85290  Biso   1.000  C
  C40      1.0000 0.86740  0.27440  0.64710  Biso   1.000  C
  H25      1.0000 0.43010  0.23430  0.09620  Biso   1.000  H
  H26      1.0000 0.56990  0.23430  0.40380  Biso   1.000  H
  H27      1.0000 0.93010  0.73430  0.09620  Biso   1.000  H
  H28      1.0000 0.06990  0.73430  0.40380  Biso   1.000  H
  H29      1.0000 0.56990  0.76570  0.90380  Biso   1.000  H
  H30      1.0000 0.43010  0.76570  0.59620  Biso   1.000  H
  H31      1.0000 0.06990  0.26570  0.90380  Biso   1.000  H
  H32      1.0000 0.93010  0.26570  0.59620  Biso   1.000  H
  C41      1.0000 0.21970  0.27700  0.27920  Biso   1.000  C
  C42      1.0000 0.78030  0.27700  0.22080  Biso   1.000  C
  C43      1.0000 0.71970  0.77700  0.27920  Biso   1.000  C
  C44      1.0000 0.28030  0.77700  0.22080  Biso   1.000  C
  C45      1.0000 0.78030  0.72300  0.72080  Biso   1.000  C
  C46      1.0000 0.21970  0.72300  0.77920  Biso   1.000  C
  C47      1.0000 0.28030  0.22300  0.72080  Biso   1.000  C
  C48      1.0000 0.71970  0.22300  0.77920  Biso   1.000  C
  N1       1.0000 0.10970  0.45480  0.40000  Biso   1.000  N
  N2       1.0000 0.89030  0.45480  0.10000  Biso   1.000  N
  N3       1.0000 0.60970  0.95480  0.40000  Biso   1.000  N
  N4       1.0000 0.39030  0.95480  0.10000  Biso   1.000  N
  N5       1.0000 0.89030  0.54520  0.60000  Biso   1.000  N
  N6       1.0000 0.10970  0.54520  0.90000  Biso   1.000  N
  N7       1.0000 0.39030  0.04520  0.60000  Biso   1.000  N
  N8       1.0000 0.60970  0.04520  0.90000  Biso   1.000  N
  N9       1.0000 0.04310  0.40470  0.46290  Biso   1.000  N
  N10      1.0000 0.95690  0.40470  0.03710  Biso   1.000  N
  N11      1.0000 0.54310  0.90470  0.46290  Biso   1.000  N
  N12      1.0000 0.45690  0.90470  0.03710  Biso   1.000  N
  N13      1.0000 0.95690  0.59530  0.53710  Biso   1.000  N
  N14      1.0000 0.04310  0.59530  0.96290  Biso   1.000  N
  N15      1.0000 0.45690  0.09530  0.53710  Biso   1.000  N
  N16      1.0000 0.54310  0.09530  0.96290  Biso   1.000  N
  N17      1.0000 0.18540  0.41660  0.32400  Biso   1.000  N
  N18      1.0000 0.81460  0.41660  0.17600  Biso   1.000  N
  N19      1.0000 0.68540  0.91660  0.32400  Biso   1.000  N
  N20      1.0000 0.31460  0.91660  0.17600  Biso   1.000  N
  N21      1.0000 0.81460  0.58340  0.67600  Biso   1.000  N
  N22      1.0000 0.18540  0.58340  0.82400  Biso   1.000  N
  N23      1.0000 0.31460  0.08340  0.67600  Biso   1.000  N
  N24      1.0000 0.68540  0.08340  0.82400  Biso   1.000  N
  N25      1.0000 0.07330  0.33260  0.42740  Biso   1.000  N
  N26      1.0000 0.92670  0.33260  0.07260  Biso   1.000  N
  N27      1.0000 0.57330  0.83260  0.42740  Biso   1.000  N
  N28      1.0000 0.42670  0.83260  0.07260  Biso   1.000  N
  N29      1.0000 0.92670  0.66740  0.57260  Biso   1.000  N
  N30      1.0000 0.07330  0.66740  0.92740  Biso   1.000  N
  N31      1.0000 0.42670  0.16740  0.57260  Biso   1.000  N
  N32      1.0000 0.57330  0.16740  0.92740  Biso   1.000  N
  N33      1.0000 0.33260  0.15250  0.15910  Biso   1.000  N
  N34      1.0000 0.66740  0.15250  0.34090  Biso   1.000  N
  N35      1.0000 0.83260  0.65250  0.15910  Biso   1.000  N
  N36      1.0000 0.16740  0.65250  0.34090  Biso   1.000  N
  N37      1.0000 0.66740  0.84750  0.84090  Biso   1.000  N
  N38      1.0000 0.33260  0.84750  0.65910  Biso   1.000  N
  N39      1.0000 0.16740  0.34750  0.84090  Biso   1.000  N
  N40      1.0000 0.83260  0.34750  0.65910  Biso   1.000  N
  O1       1.0000 0.07800  0.01800  0.49300  Biso   1.000  O
  O2       1.0000 0.92200  0.01800  0.00700  Biso   1.000  O
  O3       1.0000 0.57800  0.51800  0.49300  Biso   1.000  O
  O4       1.0000 0.42200  0.51800  0.00700  Biso   1.000  O
  O5       1.0000 0.92200  0.98200  0.50700  Biso   1.000  O
  O6       1.0000 0.07800  0.98200  0.99300  Biso   1.000  O
  O7       1.0000 0.42200  0.48200  0.50700  Biso   1.000  O
  O8       1.0000 0.57800  0.48200  0.99300  Biso   1.000  O
  H33      1.0000 0.02610  0.98750  0.50060  Biso   1.000  H
  H34      1.0000 0.97390  0.98750  0.99940  Biso   1.000  H
  H35      1.0000 0.52610  0.48750  0.50060  Biso   1.000  H
  H36      1.0000 0.47390  0.48750  0.99940  Biso   1.000  H
  H37      1.0000 0.97390  0.01250  0.49940  Biso   1.000  H
  H38      1.0000 0.02610  0.01250  0.00060  Biso   1.000  H
  H39      1.0000 0.47390  0.51250  0.49940  Biso   1.000  H
  H40      1.0000 0.52610  0.51250  0.00060  Biso   1.000  H
  H41      1.0000 0.05540  0.05070  0.51910  Biso   1.000  H
  H42      1.0000 0.94460  0.05070  0.98090  Biso   1.000  H
  H43      1.0000 0.55540  0.55070  0.51910  Biso   1.000  H
  H44      1.0000 0.44460  0.55070  0.98090  Biso   1.000  H
  H45      1.0000 0.94460  0.94930  0.48090  Biso   1.000  H
  H46      1.0000 0.05540  0.94930  0.01910  Biso   1.000  H
  H47      1.0000 0.44460  0.44930  0.48090  Biso   1.000  H
  H48      1.0000 0.55540  0.44930  0.01910  Biso   1.000  H
