data_image0
_cell_length_a       7.631
_cell_length_b       8.91
_cell_length_c       14.946
_cell_angle_alpha    90
_cell_angle_beta     90
_cell_angle_gamma    90

_symmetry_space_group_name_H-M    "P 1"
_symmetry_int_tables_number       1

loop_
  _symmetry_equiv_pos_as_xyz
  'x, y, z'

loop_
  _atom_site_label
  _atom_site_occupancy
  _atom_site_fract_x
  _atom_site_fract_y
  _atom_site_fract_z
  _atom_site_thermal_displace_type
  _atom_site_B_iso_or_equiv
  _atom_site_type_symbol
  Cu1      1.0000 0.97448  0.84058  0.54654  Biso   1.000  Cu
  Cu2      1.0000 0.52552  0.15942  0.04654  Biso   1.000  Cu
  Cu3      1.0000 0.02552  0.34058  0.95346  Biso   1.000  Cu
  Cu4      1.0000 0.47448  0.65942  0.45346  Biso   1.000  Cu
  Cl1      1.0000 0.94160  0.59943  0.50946  Biso   1.000  Cl
  Cl2      1.0000 0.55840  0.40057  0.00946  Biso   1.000  Cl
  Cl3      1.0000 0.05840  0.09943  0.99054  Biso   1.000  Cl
  Cl4      1.0000 0.44160  0.90057  0.49054  Biso   1.000  Cl
  N1       1.0000 0.93140  0.17940  0.65240  Biso   1.000  N
  N2       1.0000 0.56860  0.82060  0.15240  Biso   1.000  N
  N3       1.0000 0.06860  0.67940  0.84760  Biso   1.000  N
  N4       1.0000 0.43140  0.32060  0.34760  Biso   1.000  N
  C1       1.0000 0.95580  0.97090  0.43800  Biso   1.000  C
  C2       1.0000 0.54420  0.02910  0.93800  Biso   1.000  C
  C3       1.0000 0.04420  0.47090  0.06200  Biso   1.000  C
  C4       1.0000 0.45580  0.52910  0.56200  Biso   1.000  C
  H1       1.0000 0.04130  0.95370  0.39110  Biso   1.000  H
  H2       1.0000 0.45870  0.04630  0.89110  Biso   1.000  H
  H3       1.0000 0.95870  0.45370  0.10890  Biso   1.000  H
  H4       1.0000 0.54130  0.54630  0.60890  Biso   1.000  H
  H5       1.0000 0.83860  0.98980  0.41560  Biso   1.000  H
  H6       1.0000 0.66140  0.01020  0.91560  Biso   1.000  H
  H7       1.0000 0.16140  0.48980  0.08440  Biso   1.000  H
  H8       1.0000 0.33860  0.51020  0.58440  Biso   1.000  H
  C5       1.0000 0.00950  0.05650  0.50890  Biso   1.000  C
  C6       1.0000 0.49050  0.94350  0.00890  Biso   1.000  C
  C7       1.0000 0.99050  0.55650  0.99110  Biso   1.000  C
  C8       1.0000 0.50950  0.44350  0.49110  Biso   1.000  C
  H9       1.0000 0.13260  0.08730  0.50570  Biso   1.000  H
  H10      1.0000 0.36740  0.91270  0.00570  Biso   1.000  H
  H11      1.0000 0.86740  0.58730  0.99430  Biso   1.000  H
  H12      1.0000 0.63260  0.41270  0.49430  Biso   1.000  H
  C9       1.0000 0.89400  0.16560  0.55690  Biso   1.000  C
  C10      1.0000 0.60600  0.83440  0.05690  Biso   1.000  C
  C11      1.0000 0.10600  0.66560  0.94310  Biso   1.000  C
  C12      1.0000 0.39400  0.33440  0.44310  Biso   1.000  C
  H13      1.0000 0.90670  0.26350  0.52930  Biso   1.000  H
  H14      1.0000 0.59330  0.73650  0.02930  Biso   1.000  H
  H15      1.0000 0.09330  0.76350  0.97070  Biso   1.000  H
  H16      1.0000 0.40670  0.23650  0.47070  Biso   1.000  H
  H17      1.0000 0.77300  0.13460  0.54960  Biso   1.000  H
  H18      1.0000 0.72700  0.86540  0.04960  Biso   1.000  H
  H19      1.0000 0.22700  0.63460  0.95040  Biso   1.000  H
  H20      1.0000 0.27300  0.36540  0.45040  Biso   1.000  H
  C13      1.0000 0.10280  0.24870  0.67030  Biso   1.000  C
  C14      1.0000 0.39720  0.75130  0.17030  Biso   1.000  C
  C15      1.0000 0.89720  0.74870  0.82970  Biso   1.000  C
  C16      1.0000 0.60280  0.25130  0.32970  Biso   1.000  C
  H21      1.0000 0.10540  0.34850  0.64440  Biso   1.000  H
  H22      1.0000 0.39460  0.65150  0.14440  Biso   1.000  H
  H23      1.0000 0.89460  0.84850  0.85560  Biso   1.000  H
  H24      1.0000 0.60540  0.15150  0.35560  Biso   1.000  H
  H25      1.0000 0.19400  0.18970  0.64190  Biso   1.000  H
  H26      1.0000 0.30600  0.81030  0.14190  Biso   1.000  H
  H27      1.0000 0.80600  0.68970  0.85810  Biso   1.000  H
  H28      1.0000 0.69400  0.31030  0.35810  Biso   1.000  H
  C17      1.0000 0.79690  0.27110  0.69410  Biso   1.000  C
  C18      1.0000 0.70310  0.72890  0.19410  Biso   1.000  C
  C19      1.0000 0.20310  0.77110  0.80590  Biso   1.000  C
  C20      1.0000 0.29690  0.22890  0.30590  Biso   1.000  C
  H29      1.0000 0.68260  0.22840  0.68150  Biso   1.000  H
  H30      1.0000 0.81740  0.77160  0.18150  Biso   1.000  H
  H31      1.0000 0.31740  0.72840  0.81850  Biso   1.000  H
  H32      1.0000 0.18260  0.27160  0.31850  Biso   1.000  H
  H33      1.0000 0.80020  0.37130  0.66870  Biso   1.000  H
  H34      1.0000 0.69980  0.62870  0.16870  Biso   1.000  H
  H35      1.0000 0.19980  0.87130  0.83130  Biso   1.000  H
  H36      1.0000 0.30020  0.12870  0.33130  Biso   1.000  H
  C21      1.0000 0.13950  0.25910  0.77040  Biso   1.000  C
  C22      1.0000 0.36050  0.74090  0.27040  Biso   1.000  C
  C23      1.0000 0.86050  0.75910  0.72960  Biso   1.000  C
  C24      1.0000 0.63950  0.24090  0.22960  Biso   1.000  C
  H37      1.0000 0.14530  0.15690  0.79450  Biso   1.000  H
  H38      1.0000 0.35470  0.84310  0.29450  Biso   1.000  H
  H39      1.0000 0.85470  0.65690  0.70550  Biso   1.000  H
  H40      1.0000 0.64530  0.34310  0.20550  Biso   1.000  H
  N5       1.0000 0.99930  0.34000  0.81780  Biso   1.000  N
  N6       1.0000 0.50070  0.66000  0.31780  Biso   1.000  N
  N7       1.0000 0.00070  0.84000  0.68220  Biso   1.000  N
  N8       1.0000 0.49930  0.16000  0.18220  Biso   1.000  N
  H41      1.0000 0.01680  0.41230  0.85480  Biso   1.000  H
  H42      1.0000 0.48320  0.58770  0.35480  Biso   1.000  H
  H43      1.0000 0.98320  0.91230  0.64520  Biso   1.000  H
  H44      1.0000 0.51680  0.08770  0.14520  Biso   1.000  H
  C25      1.0000 0.31400  0.33600  0.78880  Biso   1.000  C
  C26      1.0000 0.18600  0.66400  0.28880  Biso   1.000  C
  C27      1.0000 0.68600  0.83600  0.71120  Biso   1.000  C
  C28      1.0000 0.81400  0.16400  0.21120  Biso   1.000  C
  H45      1.0000 0.33270  0.34210  0.85220  Biso   1.000  H
  H46      1.0000 0.16730  0.65790  0.35220  Biso   1.000  H
  H47      1.0000 0.66730  0.84210  0.64780  Biso   1.000  H
  H48      1.0000 0.83270  0.15790  0.14780  Biso   1.000  H
  H49      1.0000 0.31240  0.43530  0.76390  Biso   1.000  H
  H50      1.0000 0.18760  0.56470  0.26390  Biso   1.000  H
  H51      1.0000 0.68760  0.93530  0.73610  Biso   1.000  H
  H52      1.0000 0.81240  0.06470  0.23610  Biso   1.000  H
  H53      1.0000 0.40700  0.27910  0.76190  Biso   1.000  H
  H54      1.0000 0.09300  0.72090  0.26190  Biso   1.000  H
  H55      1.0000 0.59300  0.77910  0.73810  Biso   1.000  H
  H56      1.0000 0.90700  0.22090  0.23810  Biso   1.000  H
  C29      1.0000 0.82270  0.28070  0.79340  Biso   1.000  C
  C30      1.0000 0.67730  0.71930  0.29340  Biso   1.000  C
  C31      1.0000 0.17730  0.78070  0.70660  Biso   1.000  C
  C32      1.0000 0.32270  0.21930  0.20660  Biso   1.000  C
  H57      1.0000 0.80820  0.18160  0.81930  Biso   1.000  H
  H58      1.0000 0.69180  0.81840  0.31930  Biso   1.000  H
  H59      1.0000 0.19180  0.68160  0.68070  Biso   1.000  H
  H60      1.0000 0.30820  0.31840  0.18070  Biso   1.000  H
  H61      1.0000 0.73340  0.34550  0.81870  Biso   1.000  H
  H62      1.0000 0.76660  0.65450  0.31870  Biso   1.000  H
  H63      1.0000 0.26660  0.84550  0.68130  Biso   1.000  H
  H64      1.0000 0.23340  0.15450  0.18130  Biso   1.000  H
