data_image0
_cell_length_a       12.774
_cell_length_b       13.0551
_cell_length_c       14.0194
_cell_angle_alpha    87.304
_cell_angle_beta     87.596
_cell_angle_gamma    70.315

_symmetry_space_group_name_H-M    "P 1"
_symmetry_int_tables_number       1

loop_
  _symmetry_equiv_pos_as_xyz
  'x, y, z'

loop_
  _atom_site_label
  _atom_site_occupancy
  _atom_site_fract_x
  _atom_site_fract_y
  _atom_site_fract_z
  _atom_site_thermal_displace_type
  _atom_site_B_iso_or_equiv
  _atom_site_type_symbol
  Mo1      1.0000 0.96750  0.86740  0.10160  Biso   1.000  Mo
  Mo2      1.0000 0.03250  0.13260  0.89840  Biso   1.000  Mo
  Mo3      1.0000 0.88370  0.97260  0.88810  Biso   1.000  Mo
  Mo4      1.0000 0.11630  0.02740  0.11190  Biso   1.000  Mo
  Mo5      1.0000 0.84990  0.13180  0.06990  Biso   1.000  Mo
  Mo6      1.0000 0.15010  0.86820  0.93010  Biso   1.000  Mo
  Mo7      1.0000 0.62300  0.35860  0.35090  Biso   1.000  Mo
  Mo8      1.0000 0.37700  0.64140  0.64910  Biso   1.000  Mo
  Mo9      1.0000 0.44830  0.25050  0.45540  Biso   1.000  Mo
  Mo10     1.0000 0.55170  0.74950  0.54460  Biso   1.000  Mo
  Mo11     1.0000 0.55130  0.40380  0.59680  Biso   1.000  Mo
  Mo12     1.0000 0.44870  0.59620  0.40320  Biso   1.000  Mo
  Mo13     1.0000 0.27910  0.49020  0.50820  Biso   1.000  Mo
  Mo14     1.0000 0.72090  0.50980  0.49180  Biso   1.000  Mo
  Cu1      1.0000 0.57950  0.38130  0.07680  Biso   1.000  Cu
  Cu2      1.0000 0.42050  0.61870  0.92320  Biso   1.000  Cu
  Cu3      1.0000 0.03640  0.59010  0.34040  Biso   1.000  Cu
  Cu4      1.0000 0.96360  0.40990  0.65960  Biso   1.000  Cu
  Cu5      1.0000 0.62240  0.06540  0.62530  Biso   1.000  Cu
  Cu6      1.0000 0.37760  0.93460  0.37470  Biso   1.000  Cu
  O1       1.0000 0.94700  0.76810  0.17400  Biso   1.000  O
  O2       1.0000 0.05300  0.23190  0.82600  Biso   1.000  O
  O3       1.0000 0.87760  0.87230  0.99340  Biso   1.000  O
  O4       1.0000 0.12240  0.12770  0.00660  Biso   1.000  O
  O5       1.0000 0.85880  0.99680  0.14300  Biso   1.000  O
  O6       1.0000 0.14120  0.00320  0.85700  Biso   1.000  O
  O7       1.0000 0.00000  0.00000  0.00000  Biso   1.000  O
  O8       1.0000 0.79520  0.95630  0.80920  Biso   1.000  O
  O9       1.0000 0.20480  0.04370  0.19080  Biso   1.000  O
  O10      1.0000 0.02230  0.87600  0.84940  Biso   1.000  O
  O11      1.0000 0.97770  0.12400  0.15060  Biso   1.000  O
  O12      1.0000 0.07620  0.90760  0.16790  Biso   1.000  O
  O13      1.0000 0.92380  0.09240  0.83210  Biso   1.000  O
  O14      1.0000 0.78290  0.08300  0.97350  Biso   1.000  O
  O15      1.0000 0.21710  0.91700  0.02650  Biso   1.000  O
  O16      1.0000 0.74120  0.22560  0.12330  Biso   1.000  O
  O17      1.0000 0.25880  0.77440  0.87670  Biso   1.000  O
  O18      1.0000 0.09380  0.78610  0.01870  Biso   1.000  O
  O19      1.0000 0.90620  0.21390  0.98130  Biso   1.000  O
  O20      1.0000 0.75950  0.31010  0.31820  Biso   1.000  O
  O21      1.0000 0.24050  0.68990  0.68180  Biso   1.000  O
  O22      1.0000 0.55460  0.38080  0.24500  Biso   1.000  O
  O23      1.0000 0.44540  0.61920  0.75500  Biso   1.000  O
  O24      1.0000 0.59440  0.23420  0.40270  Biso   1.000  O
  O25      1.0000 0.40560  0.76580  0.59730  Biso   1.000  O
  O26      1.0000 0.53720  0.27560  0.58860  Biso   1.000  O
  O27      1.0000 0.46280  0.72440  0.41140  Biso   1.000  O
  O28      1.0000 0.46780  0.12140  0.50050  Biso   1.000  O
  O29      1.0000 0.53220  0.87860  0.49950  Biso   1.000  O
  O30      1.0000 0.38100  0.25960  0.35230  Biso   1.000  O
  O31      1.0000 0.61900  0.74040  0.64770  Biso   1.000  O
  O32      1.0000 0.32550  0.33750  0.53260  Biso   1.000  O
  O33      1.0000 0.67450  0.66250  0.46740  Biso   1.000  O
  O34      1.0000 0.67570  0.37830  0.50380  Biso   1.000  O
  O35      1.0000 0.32430  0.62170  0.49620  Biso   1.000  O
  O36      1.0000 0.61470  0.39520  0.70170  Biso   1.000  O
  O37      1.0000 0.38530  0.60480  0.29830  Biso   1.000  O
  O38      1.0000 0.60280  0.51650  0.36790  Biso   1.000  O
  O39      1.0000 0.39720  0.48350  0.63210  Biso   1.000  O
  O40      1.0000 0.46080  0.43180  0.44760  Biso   1.000  O
  O41      1.0000 0.53920  0.56820  0.55240  Biso   1.000  O
  O42      1.0000 0.22070  0.50240  0.39880  Biso   1.000  O
  O43      1.0000 0.77930  0.49760  0.60120  Biso   1.000  O
  O44      1.0000 0.16850  0.53010  0.58560  Biso   1.000  O
  O45      1.0000 0.83150  0.46990  0.41440  Biso   1.000  O
  O46      1.0000 0.74730  0.77770  0.31530  Biso   1.000  O
  O47      1.0000 0.25270  0.22230  0.68470  Biso   1.000  O
  N1       1.0000 0.65680  0.48750  0.06850  Biso   1.000  N
  N2       1.0000 0.34320  0.51250  0.93150  Biso   1.000  N
  N3       1.0000 0.05160  0.49690  0.23500  Biso   1.000  N
  N4       1.0000 0.94840  0.50310  0.76500  Biso   1.000  N
  N5       1.0000 0.99570  0.69410  0.43930  Biso   1.000  N
  N6       1.0000 0.00430  0.30590  0.56070  Biso   1.000  N
  N7       1.0000 0.74430  0.04370  0.53450  Biso   1.000  N
  N8       1.0000 0.25570  0.95630  0.46550  Biso   1.000  N
  N9       1.0000 0.52130  0.05910  0.72780  Biso   1.000  N
  N10      1.0000 0.47870  0.94090  0.27220  Biso   1.000  N
  N11      1.0000 0.49120  0.28700  0.06080  Biso   1.000  N
  N12      1.0000 0.50880  0.71300  0.93920  Biso   1.000  N
  C1       1.0000 0.65220  0.54400  0.14680  Biso   1.000  C
  C2       1.0000 0.34780  0.45600  0.85320  Biso   1.000  C
  C3       1.0000 0.71730  0.60860  0.15870  Biso   1.000  C
  C4       1.0000 0.28270  0.39140  0.84130  Biso   1.000  C
  C5       1.0000 0.78980  0.61800  0.08660  Biso   1.000  C
  C6       1.0000 0.21020  0.38200  0.91340  Biso   1.000  C
  C7       1.0000 0.79710  0.56080  0.00200  Biso   1.000  C
  C8       1.0000 0.20290  0.43920  0.99800  Biso   1.000  C
  C9       1.0000 0.72740  0.49790  0.99530  Biso   1.000  C
  C10      1.0000 0.27260  0.50210  0.00470  Biso   1.000  C
  C11      1.0000 0.98380  0.43990  0.23000  Biso   1.000  C
  C12      1.0000 0.01620  0.56010  0.77000  Biso   1.000  C
  C13      1.0000 0.98330  0.37630  0.15280  Biso   1.000  C
  C14      1.0000 0.01670  0.62370  0.84720  Biso   1.000  C
  C15      1.0000 0.05480  0.37490  0.07640  Biso   1.000  C
  C16      1.0000 0.94520  0.62510  0.92360  Biso   1.000  C
  C17      1.0000 0.87270  0.56530  0.92270  Biso   1.000  C
  C18      1.0000 0.12730  0.43470  0.07730  Biso   1.000  C
  C19      1.0000 0.12690  0.49330  0.15960  Biso   1.000  C
  C20      1.0000 0.87310  0.50670  0.84040  Biso   1.000  C
  C21      1.0000 0.72730  0.44660  0.90730  Biso   1.000  C
  C22      1.0000 0.27270  0.55340  0.09270  Biso   1.000  C
  C23      1.0000 0.20370  0.54950  0.16660  Biso   1.000  C
  C24      1.0000 0.79630  0.45050  0.83340  Biso   1.000  C
  C25      1.0000 0.92440  0.68680  0.50980  Biso   1.000  C
  C26      1.0000 0.07560  0.31320  0.49020  Biso   1.000  C
  C27      1.0000 0.90820  0.74680  0.59240  Biso   1.000  C
  C28      1.0000 0.09180  0.25320  0.40760  Biso   1.000  C
  C29      1.0000 0.96900  0.81190  0.60530  Biso   1.000  C
  C30      1.0000 0.03100  0.18810  0.39470  Biso   1.000  C
  C31      1.0000 0.04480  0.82270  0.53280  Biso   1.000  C
  C32      1.0000 0.95520  0.17730  0.46720  Biso   1.000  C
  C33      1.0000 0.05210  0.76480  0.44880  Biso   1.000  C
  C34      1.0000 0.94790  0.23520  0.55120  Biso   1.000  C
  C35      1.0000 0.74730  0.98780  0.45680  Biso   1.000  C
  C36      1.0000 0.25270  0.01220  0.54320  Biso   1.000  C
  C37      1.0000 0.81780  0.98690  0.37840  Biso   1.000  C
  C38      1.0000 0.18220  0.01310  0.62160  Biso   1.000  C
  C39      1.0000 0.88660  0.04910  0.37910  Biso   1.000  C
  C40      1.0000 0.11340  0.95090  0.62090  Biso   1.000  C
  C41      1.0000 0.11280  0.89100  0.53970  Biso   1.000  C
  C42      1.0000 0.88720  0.10900  0.46030  Biso   1.000  C
  C43      1.0000 0.81590  0.10150  0.53790  Biso   1.000  C
  C44      1.0000 0.18410  0.89850  0.46210  Biso   1.000  C
  C45      1.0000 0.11940  0.78040  0.36900  Biso   1.000  C
  C46      1.0000 0.88060  0.21960  0.63100  Biso   1.000  C
  C47      1.0000 0.81760  0.15490  0.62470  Biso   1.000  C
  C48      1.0000 0.18240  0.84510  0.37530  Biso   1.000  C
  C49      1.0000 0.46260  0.99320  0.72020  Biso   1.000  C
  C50      1.0000 0.53740  0.00680  0.27980  Biso   1.000  C
  C51      1.0000 0.39050  0.97600  0.79180  Biso   1.000  C
  C52      1.0000 0.60950  0.02400  0.20820  Biso   1.000  C
  C53      1.0000 0.37970  0.02810  0.87570  Biso   1.000  C
  C54      1.0000 0.62030  0.97190  0.12430  Biso   1.000  C
  C55      1.0000 0.43990  0.09950  0.88820  Biso   1.000  C
  C56      1.0000 0.56010  0.90050  0.11180  Biso   1.000  C
  C57      1.0000 0.50960  0.11340  0.81200  Biso   1.000  C
  C58      1.0000 0.49040  0.88660  0.18800  Biso   1.000  C
  C59      1.0000 0.42520  0.27610  0.13430  Biso   1.000  C
  C60      1.0000 0.57480  0.72390  0.86570  Biso   1.000  C
  C61      1.0000 0.36170  0.20790  0.13360  Biso   1.000  C
  C62      1.0000 0.63830  0.79210  0.86640  Biso   1.000  C
  C63      1.0000 0.36470  0.14800  0.05450  Biso   1.000  C
  C64      1.0000 0.63530  0.85200  0.94550  Biso   1.000  C
  C65      1.0000 0.43220  0.15840  0.97520  Biso   1.000  C
  C66      1.0000 0.56780  0.84160  0.02480  Biso   1.000  C
  C67      1.0000 0.49530  0.22830  0.98110  Biso   1.000  C
  C68      1.0000 0.50470  0.77170  0.01890  Biso   1.000  C
  C69      1.0000 0.56980  0.18700  0.81970  Biso   1.000  C
  C70      1.0000 0.43020  0.81300  0.18030  Biso   1.000  C
  C71      1.0000 0.56300  0.24020  0.90200  Biso   1.000  C
  C72      1.0000 0.43700  0.75980  0.09800  Biso   1.000  C
  H1       1.0000 0.60250  0.53970  0.19600  Biso   1.000  H
  H2       1.0000 0.39750  0.46030  0.80400  Biso   1.000  H
  H3       1.0000 0.71180  0.64510  0.21510  Biso   1.000  H
  H4       1.0000 0.28820  0.35490  0.78490  Biso   1.000  H
  H5       1.0000 0.83350  0.66150  0.09320  Biso   1.000  H
  H6       1.0000 0.16650  0.33850  0.90680  Biso   1.000  H
  H7       1.0000 0.93380  0.44230  0.28070  Biso   1.000  H
  H8       1.0000 0.06620  0.55770  0.71930  Biso   1.000  H
  H9       1.0000 0.93570  0.33580  0.15310  Biso   1.000  H
  H10      1.0000 0.06430  0.66420  0.84690  Biso   1.000  H
  H11      1.0000 0.05490  0.33410  0.02380  Biso   1.000  H
  H12      1.0000 0.94510  0.66590  0.97620  Biso   1.000  H
  H13      1.0000 0.67760  0.40920  0.90110  Biso   1.000  H
  H14      1.0000 0.32240  0.59080  0.09890  Biso   1.000  H
  H15      1.0000 0.20620  0.58380  0.22270  Biso   1.000  H
  H16      1.0000 0.79380  0.41620  0.77730  Biso   1.000  H
  H17      1.0000 0.88400  0.64010  0.50360  Biso   1.000  H
  H18      1.0000 0.11600  0.35990  0.49640  Biso   1.000  H
  H19      1.0000 0.85550  0.74190  0.63860  Biso   1.000  H
  H20      1.0000 0.14450  0.25810  0.36140  Biso   1.000  H
  H21      1.0000 0.96090  0.84920  0.66150  Biso   1.000  H
  H22      1.0000 0.03910  0.15080  0.33850  Biso   1.000  H
  H23      1.0000 0.69990  0.94730  0.45500  Biso   1.000  H
  H24      1.0000 0.30010  0.05270  0.54500  Biso   1.000  H
  H25      1.0000 0.81870  0.94530  0.32610  Biso   1.000  H
  H26      1.0000 0.18130  0.05470  0.67390  Biso   1.000  H
  H27      1.0000 0.93240  0.05140  0.32630  Biso   1.000  H
  H28      1.0000 0.06760  0.94860  0.67370  Biso   1.000  H
  H29      1.0000 0.11990  0.74580  0.31240  Biso   1.000  H
  H30      1.0000 0.88010  0.25420  0.68760  Biso   1.000  H
  H31      1.0000 0.77490  0.14500  0.67750  Biso   1.000  H
  H32      1.0000 0.22510  0.85500  0.32250  Biso   1.000  H
  H33      1.0000 0.46990  0.95630  0.66380  Biso   1.000  H
  H34      1.0000 0.53010  0.04370  0.33620  Biso   1.000  H
  H35      1.0000 0.35040  0.92980  0.78250  Biso   1.000  H
  H36      1.0000 0.64960  0.07020  0.21750  Biso   1.000  H
  H37      1.0000 0.33280  0.01680  0.92450  Biso   1.000  H
  H38      1.0000 0.66720  0.98320  0.07550  Biso   1.000  H
  H39      1.0000 0.42160  0.31590  0.18840  Biso   1.000  H
  H40      1.0000 0.57840  0.68410  0.81160  Biso   1.000  H
  H41      1.0000 0.31720  0.20280  0.18660  Biso   1.000  H
  H42      1.0000 0.68280  0.79720  0.81340  Biso   1.000  H
  H43      1.0000 0.32310  0.10170  0.05360  Biso   1.000  H
  H44      1.0000 0.67690  0.89830  0.94640  Biso   1.000  H
  H45      1.0000 0.61360  0.19850  0.76840  Biso   1.000  H
  H46      1.0000 0.38640  0.80150  0.23160  Biso   1.000  H
  H47      1.0000 0.60450  0.28620  0.90640  Biso   1.000  H
  H48      1.0000 0.39550  0.71380  0.09360  Biso   1.000  H
