data_image0
_cell_length_a       8.484
_cell_length_b       8.919
_cell_length_c       17.887
_cell_angle_alpha    90
_cell_angle_beta     102.66
_cell_angle_gamma    90

_symmetry_space_group_name_H-M    "P 1"
_symmetry_int_tables_number       1

loop_
  _symmetry_equiv_pos_as_xyz
  'x, y, z'

loop_
  _atom_site_label
  _atom_site_occupancy
  _atom_site_fract_x
  _atom_site_fract_y
  _atom_site_fract_z
  _atom_site_thermal_displace_type
  _atom_site_B_iso_or_equiv
  _atom_site_type_symbol
  Cu1      1.0000 0.72580  0.12659  0.51138  Biso   1.000  Cu
  Cu2      1.0000 0.77420  0.12659  0.98862  Biso   1.000  Cu
  Cu3      1.0000 0.27420  0.87341  0.48862  Biso   1.000  Cu
  Cu4      1.0000 0.22580  0.87341  0.01138  Biso   1.000  Cu
  P1       1.0000 0.75314  0.49351  0.50684  Biso   1.000  P
  P2       1.0000 0.74686  0.49351  0.99316  Biso   1.000  P
  P3       1.0000 0.24686  0.50649  0.49316  Biso   1.000  P
  P4       1.0000 0.25314  0.50649  0.00684  Biso   1.000  P
  O1       1.0000 0.63400  0.37080  0.47810  Biso   1.000  O
  O2       1.0000 0.86600  0.37080  0.02190  Biso   1.000  O
  O3       1.0000 0.36600  0.62920  0.52190  Biso   1.000  O
  O4       1.0000 0.13400  0.62920  0.97810  Biso   1.000  O
  O5       1.0000 0.67070  0.61330  0.54700  Biso   1.000  O
  O6       1.0000 0.82930  0.61330  0.95300  Biso   1.000  O
  O7       1.0000 0.32930  0.38670  0.45300  Biso   1.000  O
  O8       1.0000 0.17070  0.38670  0.04700  Biso   1.000  O
  H1       1.0000 0.59290  0.64820  0.51650  Biso   1.000  H
  H2       1.0000 0.90710  0.64820  0.98350  Biso   1.000  H
  H3       1.0000 0.40710  0.35180  0.48350  Biso   1.000  H
  H4       1.0000 0.09290  0.35180  0.01650  Biso   1.000  H
  O9       1.0000 0.82000  0.56340  0.44340  Biso   1.000  O
  O10      1.0000 0.68000  0.56340  0.05660  Biso   1.000  O
  O11      1.0000 0.18000  0.43660  0.55660  Biso   1.000  O
  O12      1.0000 0.32000  0.43660  0.94340  Biso   1.000  O
  O13      1.0000 0.89360  0.43290  0.56830  Biso   1.000  O
  O14      1.0000 0.60640  0.43290  0.93170  Biso   1.000  O
  O15      1.0000 0.10640  0.56710  0.43170  Biso   1.000  O
  O16      1.0000 0.39360  0.56710  0.06830  Biso   1.000  O
  H5       1.0000 0.85880  0.40020  0.60440  Biso   1.000  H
  H6       1.0000 0.64120  0.40020  0.89560  Biso   1.000  H
  H7       1.0000 0.14120  0.59980  0.39560  Biso   1.000  H
  H8       1.0000 0.35880  0.59980  0.10440  Biso   1.000  H
  N1       1.0000 0.83080  0.07580  0.43040  Biso   1.000  N
  N2       1.0000 0.66920  0.07580  0.06960  Biso   1.000  N
  N3       1.0000 0.16920  0.92420  0.56960  Biso   1.000  N
  N4       1.0000 0.33080  0.92420  0.93040  Biso   1.000  N
  N5       1.0000 0.13690  0.91080  0.09970  Biso   1.000  N
  N6       1.0000 0.36310  0.91080  0.40030  Biso   1.000  N
  N7       1.0000 0.86310  0.08920  0.90030  Biso   1.000  N
  N8       1.0000 0.63690  0.08920  0.59970  Biso   1.000  N
  C1       1.0000 0.84660  0.93440  0.40810  Biso   1.000  C
  C2       1.0000 0.65340  0.93440  0.09190  Biso   1.000  C
  C3       1.0000 0.15340  0.06560  0.59190  Biso   1.000  C
  C4       1.0000 0.34660  0.06560  0.90810  Biso   1.000  C
  H9       1.0000 0.81500  0.85740  0.43670  Biso   1.000  H
  H10      1.0000 0.68500  0.85740  0.06330  Biso   1.000  H
  H11      1.0000 0.18500  0.14260  0.56330  Biso   1.000  H
  H12      1.0000 0.31500  0.14260  0.93670  Biso   1.000  H
  C5       1.0000 0.90720  0.89630  0.34500  Biso   1.000  C
  C6       1.0000 0.59280  0.89630  0.15500  Biso   1.000  C
  C7       1.0000 0.09280  0.10370  0.65500  Biso   1.000  C
  C8       1.0000 0.40720  0.10370  0.84500  Biso   1.000  C
  H13      1.0000 0.91410  0.79610  0.33170  Biso   1.000  H
  H14      1.0000 0.58590  0.79610  0.16830  Biso   1.000  H
  H15      1.0000 0.08590  0.20390  0.66830  Biso   1.000  H
  H16      1.0000 0.41410  0.20390  0.83170  Biso   1.000  H
  C9       1.0000 0.95810  0.00850  0.30130  Biso   1.000  C
  C10      1.0000 0.54190  0.00850  0.19870  Biso   1.000  C
  C11      1.0000 0.04190  0.99150  0.69870  Biso   1.000  C
  C12      1.0000 0.45810  0.99150  0.80130  Biso   1.000  C
  C13      1.0000 0.94480  0.15340  0.32560  Biso   1.000  C
  C14      1.0000 0.55520  0.15340  0.17440  Biso   1.000  C
  C15      1.0000 0.05520  0.84660  0.67440  Biso   1.000  C
  C16      1.0000 0.44480  0.84660  0.82560  Biso   1.000  C
  H17      1.0000 0.97870  0.23230  0.29900  Biso   1.000  H
  H18      1.0000 0.52130  0.23230  0.20100  Biso   1.000  H
  H19      1.0000 0.02130  0.76770  0.70100  Biso   1.000  H
  H20      1.0000 0.47870  0.76770  0.79900  Biso   1.000  H
  C17      1.0000 0.88260  0.18320  0.38820  Biso   1.000  C
  C18      1.0000 0.61740  0.18320  0.11180  Biso   1.000  C
  C19      1.0000 0.11740  0.81680  0.61180  Biso   1.000  C
  C20      1.0000 0.38260  0.81680  0.88820  Biso   1.000  C
  H21      1.0000 0.87550  0.28270  0.40270  Biso   1.000  H
  H22      1.0000 0.62450  0.28270  0.09730  Biso   1.000  H
  H23      1.0000 0.12450  0.71730  0.59730  Biso   1.000  H
  H24      1.0000 0.37550  0.71730  0.90270  Biso   1.000  H
  C21      1.0000 0.09610  0.80240  0.14240  Biso   1.000  C
  C22      1.0000 0.40390  0.80240  0.35760  Biso   1.000  C
  C23      1.0000 0.90390  0.19760  0.85760  Biso   1.000  C
  C24      1.0000 0.59610  0.19760  0.64240  Biso   1.000  C
  H25      1.0000 0.10500  0.70360  0.12720  Biso   1.000  H
  H26      1.0000 0.39500  0.70360  0.37280  Biso   1.000  H
  H27      1.0000 0.89500  0.29640  0.87280  Biso   1.000  H
  H28      1.0000 0.60500  0.29640  0.62720  Biso   1.000  H
  C25      1.0000 0.04050  0.82930  0.20860  Biso   1.000  C
  C26      1.0000 0.45950  0.82930  0.29140  Biso   1.000  C
  C27      1.0000 0.95950  0.17070  0.79140  Biso   1.000  C
  C28      1.0000 0.54050  0.17070  0.70860  Biso   1.000  C
  H29      1.0000 0.01770  0.74930  0.23790  Biso   1.000  H
  H30      1.0000 0.48230  0.74930  0.26210  Biso   1.000  H
  H31      1.0000 0.98230  0.25070  0.76210  Biso   1.000  H
  H32      1.0000 0.51770  0.25070  0.73790  Biso   1.000  H
  C29      1.0000 0.01910  0.97420  0.23100  Biso   1.000  C
  C30      1.0000 0.48090  0.97420  0.26900  Biso   1.000  C
  C31      1.0000 0.98090  0.02580  0.76900  Biso   1.000  C
  C32      1.0000 0.51910  0.02580  0.73100  Biso   1.000  C
  C33      1.0000 0.06110  0.08670  0.18580  Biso   1.000  C
  C34      1.0000 0.43890  0.08670  0.31420  Biso   1.000  C
  C35      1.0000 0.93890  0.91330  0.81420  Biso   1.000  C
  C36      1.0000 0.56110  0.91330  0.68580  Biso   1.000  C
  H33      1.0000 0.05020  0.18650  0.19880  Biso   1.000  H
  H34      1.0000 0.44980  0.18650  0.30120  Biso   1.000  H
  H35      1.0000 0.94980  0.81350  0.80120  Biso   1.000  H
  H36      1.0000 0.55020  0.81350  0.69880  Biso   1.000  H
  C37      1.0000 0.11900  0.05200  0.12170  Biso   1.000  C
  C38      1.0000 0.38100  0.05200  0.37830  Biso   1.000  C
  C39      1.0000 0.88100  0.94800  0.87830  Biso   1.000  C
  C40      1.0000 0.61900  0.94800  0.62170  Biso   1.000  C
  H37      1.0000 0.14680  0.12990  0.09250  Biso   1.000  H
  H38      1.0000 0.35320  0.12990  0.40750  Biso   1.000  H
  H39      1.0000 0.85320  0.87010  0.90750  Biso   1.000  H
  H40      1.0000 0.64680  0.87010  0.59250  Biso   1.000  H
  O17      1.0000 0.36070  0.45860  0.22440  Biso   1.000  O
  O18      1.0000 0.13930  0.45860  0.27560  Biso   1.000  O
  O19      1.0000 0.63930  0.54140  0.77560  Biso   1.000  O
  O20      1.0000 0.86070  0.54140  0.72440  Biso   1.000  O
  O21      1.0000 0.63670  0.48530  0.29250  Biso   1.000  O
  O22      1.0000 0.86330  0.48530  0.20750  Biso   1.000  O
  O23      1.0000 0.36330  0.51470  0.70750  Biso   1.000  O
  O24      1.0000 0.13670  0.51470  0.79250  Biso   1.000  O
