data_image0
_cell_length_a       9.166
_cell_length_b       13.464
_cell_length_c       13.684
_cell_angle_alpha    67.22
_cell_angle_beta     72.08
_cell_angle_gamma    83.7

_symmetry_space_group_name_H-M    "P 1"
_symmetry_int_tables_number       1

loop_
  _symmetry_equiv_pos_as_xyz
  'x, y, z'

loop_
  _atom_site_label
  _atom_site_occupancy
  _atom_site_fract_x
  _atom_site_fract_y
  _atom_site_fract_z
  _atom_site_thermal_displace_type
  _atom_site_B_iso_or_equiv
  _atom_site_type_symbol
  P1       1.0000 0.50000  0.50000  0.50000  Biso   1.000  P
  F1       1.0000 0.33450  0.45480  0.57470  Biso   1.000  F
  F2       1.0000 0.66550  0.54520  0.42530  Biso   1.000  F
  F3       1.0000 0.43210  0.61240  0.44140  Biso   1.000  F
  F4       1.0000 0.56790  0.38760  0.55860  Biso   1.000  F
  F5       1.0000 0.49060  0.45900  0.41010  Biso   1.000  F
  F6       1.0000 0.50940  0.54100  0.58990  Biso   1.000  F
  Cu1      1.0000 0.25110  0.01940  0.24020  Biso   1.000  Cu
  Cu2      1.0000 0.74890  0.98060  0.75980  Biso   1.000  Cu
  S1       1.0000 0.99920  0.08070  0.24960  Biso   1.000  S
  S2       1.0000 0.00080  0.91930  0.75040  Biso   1.000  S
  S3       1.0000 0.44630  0.15100  0.14340  Biso   1.000  S
  S4       1.0000 0.55370  0.84900  0.85660  Biso   1.000  S
  S5       1.0000 0.69940  0.09620  0.85640  Biso   1.000  S
  S6       1.0000 0.30060  0.90380  0.14360  Biso   1.000  S
  S7       1.0000 0.74280  0.04320  0.57590  Biso   1.000  S
  S8       1.0000 0.25720  0.95680  0.42410  Biso   1.000  S
  C1       1.0000 0.97140  0.18160  0.29590  Biso   1.000  C
  C2       1.0000 0.02860  0.81840  0.70410  Biso   1.000  C
  C3       1.0000 0.07890  0.21890  0.33680  Biso   1.000  C
  C4       1.0000 0.92110  0.78110  0.66320  Biso   1.000  C
  C5       1.0000 0.01670  0.32510  0.34380  Biso   1.000  C
  C6       1.0000 0.98330  0.67490  0.65620  Biso   1.000  C
  C7       1.0000 0.85070  0.32260  0.34960  Biso   1.000  C
  C8       1.0000 0.14930  0.67740  0.65040  Biso   1.000  C
  N1       1.0000 0.84620  0.23910  0.30630  Biso   1.000  N
  N2       1.0000 0.15380  0.76090  0.69370  Biso   1.000  N
  C9       1.0000 0.70960  0.22140  0.28100  Biso   1.000  C
  C10      1.0000 0.29040  0.77860  0.71900  Biso   1.000  C
  C11      1.0000 0.42490  0.22860  0.01920  Biso   1.000  C
  C12      1.0000 0.57510  0.77140  0.98080  Biso   1.000  C
  C13      1.0000 0.30080  0.21700  0.97470  Biso   1.000  C
  C14      1.0000 0.69920  0.78300  0.02530  Biso   1.000  C
  C15      1.0000 0.33710  0.30090  0.85830  Biso   1.000  C
  C16      1.0000 0.66290  0.69910  0.14170  Biso   1.000  C
  C17      1.0000 0.46970  0.36720  0.84470  Biso   1.000  C
  C18      1.0000 0.53030  0.63280  0.15530  Biso   1.000  C
  N3       1.0000 0.51720  0.30950  0.94560  Biso   1.000  N
  N4       1.0000 0.48280  0.69050  0.05440  Biso   1.000  N
  C19      1.0000 0.65450  0.33890  0.96040  Biso   1.000  C
  C20      1.0000 0.34550  0.66110  0.03960  Biso   1.000  C
  C21      1.0000 0.80740  0.20710  0.78120  Biso   1.000  C
  C22      1.0000 0.19260  0.79290  0.21880  Biso   1.000  C
  C23      1.0000 0.88800  0.24380  0.65960  Biso   1.000  C
  C24      1.0000 0.11200  0.75620  0.34040  Biso   1.000  C
  C25      1.0000 0.94470  0.35760  0.62660  Biso   1.000  C
  C26      1.0000 0.05530  0.64240  0.37340  Biso   1.000  C
  C27      1.0000 0.93920  0.36600  0.73530  Biso   1.000  C
  C28      1.0000 0.06080  0.63400  0.26470  Biso   1.000  C
  N5       1.0000 0.83550  0.27770  0.82010  Biso   1.000  N
  N6       1.0000 0.16450  0.72230  0.17990  Biso   1.000  N
  C29      1.0000 0.78460  0.26850  0.93610  Biso   1.000  C
  C30      1.0000 0.21540  0.73150  0.06390  Biso   1.000  C
  C31      1.0000 0.57750  0.10770  0.56400  Biso   1.000  C
  C32      1.0000 0.42250  0.89230  0.43600  Biso   1.000  C
  C33      1.0000 0.45980  0.13430  0.65310  Biso   1.000  C
  C34      1.0000 0.54020  0.86570  0.34690  Biso   1.000  C
  C35      1.0000 0.32540  0.17740  0.60760  Biso   1.000  C
  C36      1.0000 0.67460  0.82260  0.39240  Biso   1.000  C
  C37      1.0000 0.38600  0.19860  0.48540  Biso   1.000  C
  C38      1.0000 0.61400  0.80140  0.51460  Biso   1.000  C
  N7       1.0000 0.53320  0.14270  0.47330  Biso   1.000  N
  N8       1.0000 0.46680  0.85730  0.52670  Biso   1.000  N
  C39      1.0000 0.61300  0.12580  0.37100  Biso   1.000  C
  C40      1.0000 0.38700  0.87420  0.62900  Biso   1.000  C
  H1       1.0000 0.18130  0.22690  0.28780  Biso   1.000  H
  H2       1.0000 0.81870  0.77310  0.71220  Biso   1.000  H
  H3       1.0000 0.07970  0.16860  0.40910  Biso   1.000  H
  H4       1.0000 0.92030  0.83140  0.59090  Biso   1.000  H
  H5       1.0000 0.07010  0.38310  0.27860  Biso   1.000  H
  H6       1.0000 0.92990  0.61690  0.72140  Biso   1.000  H
  H7       1.0000 0.02800  0.33360  0.40760  Biso   1.000  H
  H8       1.0000 0.97200  0.66640  0.59240  Biso   1.000  H
  H9       1.0000 0.81980  0.39090  0.30400  Biso   1.000  H
  H10      1.0000 0.18020  0.60910  0.69600  Biso   1.000  H
  H11      1.0000 0.78630  0.30380  0.42450  Biso   1.000  H
  H12      1.0000 0.21370  0.69620  0.57550  Biso   1.000  H
  H13      1.0000 0.74020  0.21050  0.21220  Biso   1.000  H
  H14      1.0000 0.25980  0.78950  0.78780  Biso   1.000  H
  H15      1.0000 0.64740  0.28470  0.27210  Biso   1.000  H
  H16      1.0000 0.35260  0.71530  0.72790  Biso   1.000  H
  H17      1.0000 0.20160  0.22760  0.01970  Biso   1.000  H
  H18      1.0000 0.79840  0.77240  0.98030  Biso   1.000  H
  H19      1.0000 0.30370  0.14640  0.97230  Biso   1.000  H
  H20      1.0000 0.69630  0.85360  0.02770  Biso   1.000  H
  H21      1.0000 0.24830  0.34420  0.84890  Biso   1.000  H
  H22      1.0000 0.75170  0.65580  0.15110  Biso   1.000  H
  H23      1.0000 0.36630  0.26820  0.80400  Biso   1.000  H
  H24      1.0000 0.63370  0.73180  0.19600  Biso   1.000  H
  H25      1.0000 0.43540  0.43810  0.84140  Biso   1.000  H
  H26      1.0000 0.56460  0.56190  0.15860  Biso   1.000  H
  H27      1.0000 0.55210  0.37300  0.77920  Biso   1.000  H
  H28      1.0000 0.44790  0.62700  0.22080  Biso   1.000  H
  H29      1.0000 0.63350  0.33490  0.03510  Biso   1.000  H
  H30      1.0000 0.36650  0.66510  0.96490  Biso   1.000  H
  H31      1.0000 0.68240  0.41200  0.91140  Biso   1.000  H
  H32      1.0000 0.31760  0.58800  0.08860  Biso   1.000  H
  H33      1.0000 0.97310  0.19750  0.64650  Biso   1.000  H
  H34      1.0000 0.02690  0.80250  0.35350  Biso   1.000  H
  H35      1.0000 0.82030  0.24280  0.61870  Biso   1.000  H
  H36      1.0000 0.17970  0.75720  0.38130  Biso   1.000  H
  H37      1.0000 0.04770  0.36850  0.57810  Biso   1.000  H
  H38      1.0000 0.95230  0.63150  0.42190  Biso   1.000  H
  H39      1.0000 0.87930  0.40940  0.58990  Biso   1.000  H
  H40      1.0000 0.12070  0.59060  0.41010  Biso   1.000  H
  H41      1.0000 0.03900  0.35860  0.74610  Biso   1.000  H
  H42      1.0000 0.96100  0.64140  0.25390  Biso   1.000  H
  H43      1.0000 0.89680  0.43370  0.73770  Biso   1.000  H
  H44      1.0000 0.10320  0.56630  0.26230  Biso   1.000  H
  H45      1.0000 0.75380  0.19530  0.98260  Biso   1.000  H
  H46      1.0000 0.24620  0.80470  0.01740  Biso   1.000  H
  H47      1.0000 0.87010  0.28500  0.95390  Biso   1.000  H
  H48      1.0000 0.12990  0.71500  0.04610  Biso   1.000  H
  H49      1.0000 0.43100  0.07160  0.72010  Biso   1.000  H
  H50      1.0000 0.56900  0.92840  0.27990  Biso   1.000  H
  H51      1.0000 0.49830  0.18860  0.66820  Biso   1.000  H
  H52      1.0000 0.50170  0.81140  0.33180  Biso   1.000  H
  H53      1.0000 0.24530  0.12390  0.64130  Biso   1.000  H
  H54      1.0000 0.75470  0.87610  0.35870  Biso   1.000  H
  H55      1.0000 0.28490  0.24130  0.62100  Biso   1.000  H
  H56      1.0000 0.71510  0.75870  0.37900  Biso   1.000  H
  H57      1.0000 0.31670  0.17270  0.46020  Biso   1.000  H
  H58      1.0000 0.68330  0.82730  0.53980  Biso   1.000  H
  H59      1.0000 0.40190  0.27470  0.44440  Biso   1.000  H
  H60      1.0000 0.59810  0.72530  0.55560  Biso   1.000  H
  H61      1.0000 0.67970  0.06530  0.38760  Biso   1.000  H
  H62      1.0000 0.32030  0.93470  0.61240  Biso   1.000  H
  H63      1.0000 0.53860  0.10780  0.34400  Biso   1.000  H
  H64      1.0000 0.46140  0.89220  0.65600  Biso   1.000  H
  P2       1.0000 0.00000  0.50000  0.00000  Biso   1.000  P
  F7       1.0000 0.01960  0.46690  0.89780  Biso   1.000  F
  F8       1.0000 0.98040  0.53310  0.10220  Biso   1.000  F
  F9       1.0000 0.83130  0.46860  0.06370  Biso   1.000  F
  F10      1.0000 0.16870  0.53140  0.93630  Biso   1.000  F
  F11      1.0000 0.03840  0.38300  0.05210  Biso   1.000  F
  F12      1.0000 0.96160  0.61700  0.94790  Biso   1.000  F
  F13      1.0000 0.13460  0.43910  0.04050  Biso   1.000  F
  F14      1.0000 0.86540  0.56090  0.95950  Biso   1.000  F
  F15      1.0000 0.90830  0.39450  0.07300  Biso   1.000  F
  F16      1.0000 0.09170  0.60550  0.92700  Biso   1.000  F
  C41      1.0000 0.07040  0.03540  0.93370  Biso   1.000  C
  C42      1.0000 0.92960  0.96460  0.06630  Biso   1.000  C
  N9       1.0000 0.11070  0.10670  0.86900  Biso   1.000  N
  N10      1.0000 0.88930  0.89330  0.13100  Biso   1.000  N
  C43      1.0000 0.97210  0.96360  0.03510  Biso   1.000  C
  C44      1.0000 0.02790  0.03640  0.96490  Biso   1.000  C
