data_image0
_cell_length_a       11.916
_cell_length_b       17.405
_cell_length_c       6.642
_cell_angle_alpha    90
_cell_angle_beta     116.58
_cell_angle_gamma    90

_symmetry_space_group_name_H-M    "P 1"
_symmetry_int_tables_number       1

loop_
  _symmetry_equiv_pos_as_xyz
  'x, y, z'

loop_
  _atom_site_label
  _atom_site_occupancy
  _atom_site_fract_x
  _atom_site_fract_y
  _atom_site_fract_z
  _atom_site_thermal_displace_type
  _atom_site_B_iso_or_equiv
  _atom_site_type_symbol
  Cu1      1.0000 0.00000  0.09499  0.00000  Biso   1.000  Cu
  Cu2      1.0000 0.50000  0.59499  0.00000  Biso   1.000  Cu
  Cu3      1.0000 0.00000  0.90501  0.00000  Biso   1.000  Cu
  Cu4      1.0000 0.50000  0.40501  0.00000  Biso   1.000  Cu
  Cl1      1.0000 0.10150  0.00000  0.85980  Biso   1.000  Cl
  Cl2      1.0000 0.60150  0.50000  0.85980  Biso   1.000  Cl
  Cl3      1.0000 0.89850  0.00000  0.14020  Biso   1.000  Cl
  Cl4      1.0000 0.39850  0.50000  0.14020  Biso   1.000  Cl
  N1       1.0000 0.14680  0.13160  0.26930  Biso   1.000  N
  N2       1.0000 0.64680  0.63160  0.26930  Biso   1.000  N
  N3       1.0000 0.85320  0.13160  0.73070  Biso   1.000  N
  N4       1.0000 0.35320  0.63160  0.73070  Biso   1.000  N
  N5       1.0000 0.85320  0.86840  0.73070  Biso   1.000  N
  N6       1.0000 0.35320  0.36840  0.73070  Biso   1.000  N
  N7       1.0000 0.14680  0.86840  0.26930  Biso   1.000  N
  N8       1.0000 0.64680  0.36840  0.26930  Biso   1.000  N
  C1       1.0000 0.18310  0.10280  0.47720  Biso   1.000  C
  C2       1.0000 0.68310  0.60280  0.47720  Biso   1.000  C
  C3       1.0000 0.81690  0.10280  0.52280  Biso   1.000  C
  C4       1.0000 0.31690  0.60280  0.52280  Biso   1.000  C
  C5       1.0000 0.81690  0.89720  0.52280  Biso   1.000  C
  C6       1.0000 0.31690  0.39720  0.52280  Biso   1.000  C
  C7       1.0000 0.18310  0.89720  0.47720  Biso   1.000  C
  C8       1.0000 0.68310  0.39720  0.47720  Biso   1.000  C
  C9       1.0000 0.30030  0.11770  0.64980  Biso   1.000  C
  C10      1.0000 0.80030  0.61770  0.64980  Biso   1.000  C
  C11      1.0000 0.69970  0.11770  0.35020  Biso   1.000  C
  C12      1.0000 0.19970  0.61770  0.35020  Biso   1.000  C
  C13      1.0000 0.69970  0.88230  0.35020  Biso   1.000  C
  C14      1.0000 0.19970  0.38230  0.35020  Biso   1.000  C
  C15      1.0000 0.30030  0.88230  0.64980  Biso   1.000  C
  C16      1.0000 0.80030  0.38230  0.64980  Biso   1.000  C
  C17      1.0000 0.37780  0.16470  0.60220  Biso   1.000  C
  C18      1.0000 0.87780  0.66470  0.60220  Biso   1.000  C
  C19      1.0000 0.62220  0.16470  0.39780  Biso   1.000  C
  C20      1.0000 0.12220  0.66470  0.39780  Biso   1.000  C
  C21      1.0000 0.62220  0.83530  0.39780  Biso   1.000  C
  C22      1.0000 0.12220  0.33530  0.39780  Biso   1.000  C
  C23      1.0000 0.37780  0.83530  0.60220  Biso   1.000  C
  C24      1.0000 0.87780  0.33530  0.60220  Biso   1.000  C
  N9       1.0000 0.34340  0.19620  0.39910  Biso   1.000  N
  N10      1.0000 0.84340  0.69620  0.39910  Biso   1.000  N
  N11      1.0000 0.65660  0.19620  0.60090  Biso   1.000  N
  N12      1.0000 0.15660  0.69620  0.60090  Biso   1.000  N
  N13      1.0000 0.65660  0.80380  0.60090  Biso   1.000  N
  N14      1.0000 0.15660  0.30380  0.60090  Biso   1.000  N
  N15      1.0000 0.34340  0.80380  0.39910  Biso   1.000  N
  N16      1.0000 0.84340  0.30380  0.39910  Biso   1.000  N
  C25      1.0000 0.23000  0.17790  0.24390  Biso   1.000  C
  C26      1.0000 0.73000  0.67790  0.24390  Biso   1.000  C
  C27      1.0000 0.77000  0.17790  0.75610  Biso   1.000  C
  C28      1.0000 0.27000  0.67790  0.75610  Biso   1.000  C
  C29      1.0000 0.77000  0.82210  0.75610  Biso   1.000  C
  C30      1.0000 0.27000  0.32210  0.75610  Biso   1.000  C
  C31      1.0000 0.23000  0.82210  0.24390  Biso   1.000  C
  C32      1.0000 0.73000  0.32210  0.24390  Biso   1.000  C
  S1       1.0000 0.17167  0.21485  0.96900  Biso   1.000  S
  S2       1.0000 0.67167  0.71485  0.96900  Biso   1.000  S
  S3       1.0000 0.82833  0.21485  0.03100  Biso   1.000  S
  S4       1.0000 0.32833  0.71485  0.03100  Biso   1.000  S
  S5       1.0000 0.82833  0.78515  0.03100  Biso   1.000  S
  S6       1.0000 0.32833  0.28515  0.03100  Biso   1.000  S
  S7       1.0000 0.17167  0.78515  0.96900  Biso   1.000  S
  S8       1.0000 0.67167  0.28515  0.96900  Biso   1.000  S
  H1       1.0000 0.12740  0.07060  0.50200  Biso   1.000  H
  H2       1.0000 0.62740  0.57060  0.50200  Biso   1.000  H
  H3       1.0000 0.87260  0.07060  0.49800  Biso   1.000  H
  H4       1.0000 0.37260  0.57060  0.49800  Biso   1.000  H
  H5       1.0000 0.87260  0.92940  0.49800  Biso   1.000  H
  H6       1.0000 0.37260  0.42940  0.49800  Biso   1.000  H
  H7       1.0000 0.12740  0.92940  0.50200  Biso   1.000  H
  H8       1.0000 0.62740  0.42940  0.50200  Biso   1.000  H
  H9       1.0000 0.32220  0.10090  0.78220  Biso   1.000  H
  H10      1.0000 0.82220  0.60090  0.78220  Biso   1.000  H
  H11      1.0000 0.67780  0.10090  0.21780  Biso   1.000  H
  H12      1.0000 0.17780  0.60090  0.21780  Biso   1.000  H
  H13      1.0000 0.67780  0.89910  0.21780  Biso   1.000  H
  H14      1.0000 0.17780  0.39910  0.21780  Biso   1.000  H
  H15      1.0000 0.32220  0.89910  0.78220  Biso   1.000  H
  H16      1.0000 0.82220  0.39910  0.78220  Biso   1.000  H
  H17      1.0000 0.45840  0.17090  0.70060  Biso   1.000  H
  H18      1.0000 0.95840  0.67090  0.70060  Biso   1.000  H
  H19      1.0000 0.54160  0.17090  0.29940  Biso   1.000  H
  H20      1.0000 0.04160  0.67090  0.29940  Biso   1.000  H
  H21      1.0000 0.54160  0.82910  0.29940  Biso   1.000  H
  H22      1.0000 0.04160  0.32910  0.29940  Biso   1.000  H
  H23      1.0000 0.45840  0.82910  0.70060  Biso   1.000  H
  H24      1.0000 0.95840  0.32910  0.70060  Biso   1.000  H
  O1       1.0000 0.40250  0.00000  0.21730  Biso   1.000  O
  O2       1.0000 0.90250  0.50000  0.21730  Biso   1.000  O
  O3       1.0000 0.59750  0.00000  0.78270  Biso   1.000  O
  O4       1.0000 0.09750  0.50000  0.78270  Biso   1.000  O
