data_image0
_cell_length_a       17.7642
_cell_length_b       24.604
_cell_length_c       7.8229
_cell_angle_alpha    90
_cell_angle_beta     99.176
_cell_angle_gamma    90

_symmetry_space_group_name_H-M    "P 1"
_symmetry_int_tables_number       1

loop_
  _symmetry_equiv_pos_as_xyz
  'x, y, z'

loop_
  _atom_site_label
  _atom_site_occupancy
  _atom_site_fract_x
  _atom_site_fract_y
  _atom_site_fract_z
  _atom_site_thermal_displace_type
  _atom_site_B_iso_or_equiv
  _atom_site_type_symbol
  Cu1      1.0000 0.37042  0.29275  0.89710  Biso   1.000  Cu
  Cu2      1.0000 0.62958  0.79275  0.60290  Biso   1.000  Cu
  Cu3      1.0000 0.62958  0.70725  0.10290  Biso   1.000  Cu
  Cu4      1.0000 0.37042  0.20725  0.39710  Biso   1.000  Cu
  I1       1.0000 0.33110  0.29122  0.56297  Biso   1.000  I
  I2       1.0000 0.66890  0.79122  0.93703  Biso   1.000  I
  I3       1.0000 0.66890  0.70878  0.43703  Biso   1.000  I
  I4       1.0000 0.33110  0.20878  0.06297  Biso   1.000  I
  C1       1.0000 0.53490  0.27450  0.07180  Biso   1.000  C
  C2       1.0000 0.46510  0.77450  0.42820  Biso   1.000  C
  C3       1.0000 0.46510  0.72550  0.92820  Biso   1.000  C
  C4       1.0000 0.53490  0.22550  0.57180  Biso   1.000  C
  H1       1.0000 0.51620  0.24310  0.11680  Biso   1.000  H
  H2       1.0000 0.48380  0.74310  0.38320  Biso   1.000  H
  H3       1.0000 0.48380  0.75690  0.88320  Biso   1.000  H
  H4       1.0000 0.51620  0.25690  0.61680  Biso   1.000  H
  C5       1.0000 0.51820  0.34920  0.90180  Biso   1.000  C
  C6       1.0000 0.48180  0.84920  0.59820  Biso   1.000  C
  C7       1.0000 0.48180  0.65080  0.09820  Biso   1.000  C
  C8       1.0000 0.51820  0.15080  0.40180  Biso   1.000  C
  H5       1.0000 0.48740  0.37110  0.82270  Biso   1.000  H
  H6       1.0000 0.51260  0.87110  0.67730  Biso   1.000  H
  H7       1.0000 0.51260  0.62890  0.17730  Biso   1.000  H
  H8       1.0000 0.48740  0.12890  0.32270  Biso   1.000  H
  C9       1.0000 0.61250  0.28800  0.12220  Biso   1.000  C
  C10      1.0000 0.38750  0.78800  0.37780  Biso   1.000  C
  C11      1.0000 0.38750  0.71200  0.87780  Biso   1.000  C
  C12      1.0000 0.61250  0.21200  0.62220  Biso   1.000  C
  H9       1.0000 0.64450  0.26510  0.19560  Biso   1.000  H
  H10      1.0000 0.35550  0.76510  0.30440  Biso   1.000  H
  H11      1.0000 0.35550  0.73490  0.80440  Biso   1.000  H
  H12      1.0000 0.64450  0.23490  0.69560  Biso   1.000  H
  C13      1.0000 0.59220  0.36390  0.94950  Biso   1.000  C
  C14      1.0000 0.40780  0.86390  0.55050  Biso   1.000  C
  C15      1.0000 0.40780  0.63610  0.05050  Biso   1.000  C
  C16      1.0000 0.59220  0.13610  0.44950  Biso   1.000  C
  H13      1.0000 0.60980  0.39520  0.90190  Biso   1.000  H
  H14      1.0000 0.39020  0.89520  0.59810  Biso   1.000  H
  H15      1.0000 0.39020  0.60480  0.09810  Biso   1.000  H
  H16      1.0000 0.60980  0.10480  0.40190  Biso   1.000  H
  C17      1.0000 0.64050  0.33510  0.06200  Biso   1.000  C
  C18      1.0000 0.35950  0.83510  0.43800  Biso   1.000  C
  C19      1.0000 0.35950  0.66490  0.93800  Biso   1.000  C
  C20      1.0000 0.64050  0.16490  0.56200  Biso   1.000  C
  N1       1.0000 0.77810  0.31270  0.15090  Biso   1.000  N
  N2       1.0000 0.22190  0.81270  0.34910  Biso   1.000  N
  N3       1.0000 0.22190  0.68730  0.84910  Biso   1.000  N
  N4       1.0000 0.77810  0.18730  0.65090  Biso   1.000  N
  C21      1.0000 0.79020  0.28510  0.99290  Biso   1.000  C
  C22      1.0000 0.20980  0.78510  0.50710  Biso   1.000  C
  C23      1.0000 0.20980  0.71490  0.00710  Biso   1.000  C
  C24      1.0000 0.79020  0.21490  0.49290  Biso   1.000  C
  H17      1.0000 0.74110  0.27460  0.92860  Biso   1.000  H
  H18      1.0000 0.25890  0.77460  0.57140  Biso   1.000  H
  H19      1.0000 0.25890  0.72540  0.07140  Biso   1.000  H
  H20      1.0000 0.74110  0.22540  0.42860  Biso   1.000  H
  H21      1.0000 0.81920  0.25220  0.02390  Biso   1.000  H
  H22      1.0000 0.18080  0.75220  0.47610  Biso   1.000  H
  H23      1.0000 0.18080  0.74780  0.97610  Biso   1.000  H
  H24      1.0000 0.81920  0.24780  0.52390  Biso   1.000  H
  C25      1.0000 0.85060  0.33390  0.24090  Biso   1.000  C
  C26      1.0000 0.14940  0.83390  0.25910  Biso   1.000  C
  C27      1.0000 0.14940  0.66610  0.75910  Biso   1.000  C
  C28      1.0000 0.85060  0.16610  0.74090  Biso   1.000  C
  H25      1.0000 0.88280  0.30370  0.28600  Biso   1.000  H
  H26      1.0000 0.11720  0.80370  0.21400  Biso   1.000  H
  H27      1.0000 0.11720  0.69630  0.71400  Biso   1.000  H
  H28      1.0000 0.88280  0.19630  0.78600  Biso   1.000  H
  H29      1.0000 0.84090  0.35570  0.33860  Biso   1.000  H
  H30      1.0000 0.15910  0.85570  0.16140  Biso   1.000  H
  H31      1.0000 0.15910  0.64430  0.66140  Biso   1.000  H
  H32      1.0000 0.84090  0.14430  0.83860  Biso   1.000  H
  C29      1.0000 0.88470  0.42300  0.11760  Biso   1.000  C
  C30      1.0000 0.11530  0.92300  0.38240  Biso   1.000  C
  C31      1.0000 0.11530  0.57700  0.88240  Biso   1.000  C
  C32      1.0000 0.88470  0.07700  0.61760  Biso   1.000  C
  C33      1.0000 0.79430  0.35200  0.75030  Biso   1.000  C
  C34      1.0000 0.20570  0.85200  0.74970  Biso   1.000  C
  C35      1.0000 0.20570  0.64800  0.24970  Biso   1.000  C
  C36      1.0000 0.79430  0.14800  0.25030  Biso   1.000  C
  C37      1.0000 0.90050  0.34280  0.96490  Biso   1.000  C
  C38      1.0000 0.09950  0.84280  0.53510  Biso   1.000  C
  C39      1.0000 0.09950  0.65720  0.03510  Biso   1.000  C
  C40      1.0000 0.90050  0.15720  0.46490  Biso   1.000  C
  C41      1.0000 0.96390  0.30160  0.98050  Biso   1.000  C
  C42      1.0000 0.03610  0.80160  0.51950  Biso   1.000  C
  C43      1.0000 0.03610  0.69840  0.01950  Biso   1.000  C
  C44      1.0000 0.96390  0.19840  0.48050  Biso   1.000  C
  C45      1.0000 0.09800  0.29690  0.10300  Biso   1.000  C
  C46      1.0000 0.90200  0.79690  0.39700  Biso   1.000  C
  C47      1.0000 0.90200  0.70310  0.89700  Biso   1.000  C
  C48      1.0000 0.09800  0.20310  0.60300  Biso   1.000  C
  H33      1.0000 0.08230  0.25930  0.10820  Biso   1.000  H
  H34      1.0000 0.91770  0.75930  0.39180  Biso   1.000  H
  H35      1.0000 0.91770  0.74070  0.89180  Biso   1.000  H
  H36      1.0000 0.08230  0.24070  0.60820  Biso   1.000  H
  H37      1.0000 0.12190  0.30750  0.21830  Biso   1.000  H
  H38      1.0000 0.87810  0.80750  0.28170  Biso   1.000  H
  H39      1.0000 0.87810  0.69250  0.78170  Biso   1.000  H
  H40      1.0000 0.12190  0.19250  0.71830  Biso   1.000  H
  C49      1.0000 0.15590  0.30130  0.98200  Biso   1.000  C
  C50      1.0000 0.84410  0.80130  0.51800  Biso   1.000  C
  C51      1.0000 0.84410  0.69870  0.01800  Biso   1.000  C
  C52      1.0000 0.15590  0.19870  0.48200  Biso   1.000  C
  H41      1.0000 0.13720  0.32550  0.88870  Biso   1.000  H
  H42      1.0000 0.86280  0.82550  0.61130  Biso   1.000  H
  H43      1.0000 0.86280  0.67450  0.11130  Biso   1.000  H
  H44      1.0000 0.13720  0.17450  0.38870  Biso   1.000  H
  H45      1.0000 0.16430  0.26600  0.93600  Biso   1.000  H
  H46      1.0000 0.83570  0.76600  0.56400  Biso   1.000  H
  H47      1.0000 0.83570  0.73400  0.06400  Biso   1.000  H
  H48      1.0000 0.16430  0.23400  0.43600  Biso   1.000  H
  H49      1.0000 0.20300  0.31500  0.04410  Biso   1.000  H
  H50      1.0000 0.79700  0.81500  0.45590  Biso   1.000  H
  H51      1.0000 0.79700  0.68500  0.95590  Biso   1.000  H
  H52      1.0000 0.20300  0.18500  0.54410  Biso   1.000  H
  O1       1.0000 0.96510  0.25520  0.95270  Biso   1.000  O
  O2       1.0000 0.03490  0.75520  0.54730  Biso   1.000  O
  O3       1.0000 0.03490  0.74480  0.04730  Biso   1.000  O
  O4       1.0000 0.96510  0.24480  0.45270  Biso   1.000  O
  O5       1.0000 0.03350  0.32880  0.05500  Biso   1.000  O
  O6       1.0000 0.96650  0.82880  0.44500  Biso   1.000  O
  O7       1.0000 0.96650  0.67120  0.94500  Biso   1.000  O
  O8       1.0000 0.03350  0.17120  0.55500  Biso   1.000  O
  C53      1.0000 0.15230  0.30540  0.24700  Biso   1.000  C
  C54      1.0000 0.84770  0.80540  0.25300  Biso   1.000  C
  C55      1.0000 0.84770  0.69460  0.75300  Biso   1.000  C
  C56      1.0000 0.15230  0.19460  0.74700  Biso   1.000  C
  H53      1.0000 0.16650  0.33480  0.17850  Biso   1.000  H
  H54      1.0000 0.83350  0.83480  0.32150  Biso   1.000  H
  H55      1.0000 0.83350  0.66520  0.82150  Biso   1.000  H
  H56      1.0000 0.16650  0.16520  0.67850  Biso   1.000  H
  H57      1.0000 0.19300  0.27940  0.26680  Biso   1.000  H
  H58      1.0000 0.80700  0.77940  0.23320  Biso   1.000  H
  H59      1.0000 0.80700  0.72060  0.73320  Biso   1.000  H
  H60      1.0000 0.19300  0.22060  0.76680  Biso   1.000  H
  H61      1.0000 0.14250  0.31920  0.35650  Biso   1.000  H
  H62      1.0000 0.85750  0.81920  0.14350  Biso   1.000  H
  H63      1.0000 0.85750  0.68080  0.64350  Biso   1.000  H
  H64      1.0000 0.14250  0.18080  0.85650  Biso   1.000  H
  C57      1.0000 0.08050  0.27810  0.15200  Biso   1.000  C
  C58      1.0000 0.91950  0.77810  0.34800  Biso   1.000  C
  C59      1.0000 0.91950  0.72190  0.84800  Biso   1.000  C
  C60      1.0000 0.08050  0.22190  0.65200  Biso   1.000  C
  H65      1.0000 0.08890  0.26690  0.03810  Biso   1.000  H
  H66      1.0000 0.91110  0.76690  0.46190  Biso   1.000  H
  H67      1.0000 0.91110  0.73310  0.96190  Biso   1.000  H
  H68      1.0000 0.08890  0.23310  0.53810  Biso   1.000  H
  H69      1.0000 0.06930  0.24600  0.21550  Biso   1.000  H
  H70      1.0000 0.93070  0.74600  0.28450  Biso   1.000  H
  H71      1.0000 0.93070  0.75400  0.78450  Biso   1.000  H
  H72      1.0000 0.06930  0.25400  0.71550  Biso   1.000  H
  O9       1.0000 0.96970  0.27100  0.86450  Biso   1.000  O
  O10      1.0000 0.03030  0.77100  0.63550  Biso   1.000  O
  O11      1.0000 0.03030  0.72900  0.13550  Biso   1.000  O
  O12      1.0000 0.96970  0.22900  0.36450  Biso   1.000  O
  O13      1.0000 0.01820  0.31400  0.13670  Biso   1.000  O
  O14      1.0000 0.98180  0.81400  0.36330  Biso   1.000  O
  O15      1.0000 0.98180  0.68600  0.86330  Biso   1.000  O
  O16      1.0000 0.01820  0.18600  0.63670  Biso   1.000  O
  C61      1.0000 0.91160  0.39300  0.85090  Biso   1.000  C
  C62      1.0000 0.08840  0.89300  0.64910  Biso   1.000  C
  C63      1.0000 0.08840  0.60700  0.14910  Biso   1.000  C
  C64      1.0000 0.91160  0.10700  0.35090  Biso   1.000  C
  C65      1.0000 0.98160  0.39110  0.77470  Biso   1.000  C
  C66      1.0000 0.01840  0.89110  0.72530  Biso   1.000  C
  C67      1.0000 0.01840  0.60890  0.22530  Biso   1.000  C
  C68      1.0000 0.98160  0.10890  0.27470  Biso   1.000  C
  C69      1.0000 0.05030  0.37270  0.54400  Biso   1.000  C
  C70      1.0000 0.94970  0.87270  0.95600  Biso   1.000  C
  C71      1.0000 0.94970  0.62730  0.45600  Biso   1.000  C
  C72      1.0000 0.05030  0.12730  0.04400  Biso   1.000  C
  H73      1.0000 0.04170  0.35270  0.43570  Biso   1.000  H
  H74      1.0000 0.95830  0.85270  0.06430  Biso   1.000  H
  H75      1.0000 0.95830  0.64730  0.56430  Biso   1.000  H
  H76      1.0000 0.04170  0.14730  0.93570  Biso   1.000  H
  H77      1.0000 0.08870  0.35340  0.62340  Biso   1.000  H
  H78      1.0000 0.91130  0.85340  0.87660  Biso   1.000  H
  H79      1.0000 0.91130  0.64660  0.37660  Biso   1.000  H
  H80      1.0000 0.08870  0.14660  0.12340  Biso   1.000  H
  C73      1.0000 0.07980  0.43000  0.51200  Biso   1.000  C
  C74      1.0000 0.92020  0.93000  0.98800  Biso   1.000  C
  C75      1.0000 0.92020  0.57000  0.48800  Biso   1.000  C
  C76      1.0000 0.07980  0.07000  0.01200  Biso   1.000  C
  H81      1.0000 0.04420  0.45660  0.54000  Biso   1.000  H
  H82      1.0000 0.95580  0.95660  0.96000  Biso   1.000  H
  H83      1.0000 0.95580  0.54340  0.46000  Biso   1.000  H
  H84      1.0000 0.04420  0.04340  0.04000  Biso   1.000  H
  H85      1.0000 0.08510  0.43360  0.39210  Biso   1.000  H
  H86      1.0000 0.91490  0.93360  0.10790  Biso   1.000  H
  H87      1.0000 0.91490  0.56640  0.60790  Biso   1.000  H
  H88      1.0000 0.08510  0.06640  0.89210  Biso   1.000  H
  H89      1.0000 0.12840  0.43560  0.58300  Biso   1.000  H
  H90      1.0000 0.87160  0.93560  0.91700  Biso   1.000  H
  H91      1.0000 0.87160  0.56440  0.41700  Biso   1.000  H
  H92      1.0000 0.12840  0.06440  0.08300  Biso   1.000  H
  O17      1.0000 0.04390  0.41020  0.88000  Biso   1.000  O
  O18      1.0000 0.95610  0.91020  0.62000  Biso   1.000  O
  O19      1.0000 0.95610  0.58980  0.12000  Biso   1.000  O
  O20      1.0000 0.04390  0.08980  0.38000  Biso   1.000  O
  O21      1.0000 0.98160  0.37480  0.61420  Biso   1.000  O
  O22      1.0000 0.01840  0.87480  0.88580  Biso   1.000  O
  O23      1.0000 0.01840  0.62520  0.38580  Biso   1.000  O
  O24      1.0000 0.98160  0.12520  0.11420  Biso   1.000  O
  C77      1.0000 0.09170  0.42350  0.67000  Biso   1.000  C
  C78      1.0000 0.90830  0.92350  0.83000  Biso   1.000  C
  C79      1.0000 0.90830  0.57650  0.33000  Biso   1.000  C
  C80      1.0000 0.09170  0.07650  0.17000  Biso   1.000  C
  H93      1.0000 0.11670  0.38890  0.69940  Biso   1.000  H
  H94      1.0000 0.88330  0.88890  0.80060  Biso   1.000  H
  H95      1.0000 0.88330  0.61110  0.30060  Biso   1.000  H
  H96      1.0000 0.11670  0.11110  0.19940  Biso   1.000  H
  H97      1.0000 0.12940  0.45210  0.69600  Biso   1.000  H
  H98      1.0000 0.87060  0.95210  0.80400  Biso   1.000  H
  H99      1.0000 0.87060  0.54790  0.30400  Biso   1.000  H
  H100     1.0000 0.12940  0.04790  0.19600  Biso   1.000  H
  C81      1.0000 0.05890  0.42450  0.47400  Biso   1.000  C
  C82      1.0000 0.94110  0.92450  0.02600  Biso   1.000  C
  C83      1.0000 0.94110  0.57550  0.52600  Biso   1.000  C
  C84      1.0000 0.05890  0.07550  0.97400  Biso   1.000  C
  H101     1.0000 0.02990  0.39200  0.44400  Biso   1.000  H
  H102     1.0000 0.97010  0.89200  0.05600  Biso   1.000  H
  H103     1.0000 0.97010  0.60800  0.55600  Biso   1.000  H
  H104     1.0000 0.02990  0.10800  0.94400  Biso   1.000  H
  H105     1.0000 0.10000  0.42650  0.40830  Biso   1.000  H
  H106     1.0000 0.90000  0.92650  0.09170  Biso   1.000  H
  H107     1.0000 0.90000  0.57350  0.59170  Biso   1.000  H
  H108     1.0000 0.10000  0.07350  0.90830  Biso   1.000  H
  H109     1.0000 0.02650  0.45570  0.44930  Biso   1.000  H
  H110     1.0000 0.97350  0.95570  0.05070  Biso   1.000  H
  H111     1.0000 0.97350  0.54430  0.55070  Biso   1.000  H
  H112     1.0000 0.02650  0.04430  0.94930  Biso   1.000  H
  O25      1.0000 0.03160  0.43120  0.77100  Biso   1.000  O
  O26      1.0000 0.96840  0.93120  0.72900  Biso   1.000  O
  O27      1.0000 0.96840  0.56880  0.22900  Biso   1.000  O
  O28      1.0000 0.03160  0.06880  0.27100  Biso   1.000  O
  O29      1.0000 0.98340  0.34500  0.67000  Biso   1.000  O
  O30      1.0000 0.01660  0.84500  0.83000  Biso   1.000  O
  O31      1.0000 0.01660  0.65500  0.33000  Biso   1.000  O
  O32      1.0000 0.98340  0.15500  0.17000  Biso   1.000  O
  C85      1.0000 0.88550  0.49070  0.88250  Biso   1.000  C
  C86      1.0000 0.11450  0.99070  0.61750  Biso   1.000  C
  C87      1.0000 0.11450  0.50930  0.11750  Biso   1.000  C
  C88      1.0000 0.88550  0.00930  0.38250  Biso   1.000  C
  H113     1.0000 0.87670  0.51670  0.97040  Biso   1.000  H
  H114     1.0000 0.12330  0.01670  0.52960  Biso   1.000  H
  H115     1.0000 0.12330  0.48330  0.02960  Biso   1.000  H
  H116     1.0000 0.87670  0.98330  0.47040  Biso   1.000  H
  H117     1.0000 0.92710  0.50430  0.82800  Biso   1.000  H
  H118     1.0000 0.07290  0.00430  0.67200  Biso   1.000  H
  H119     1.0000 0.07290  0.49570  0.17200  Biso   1.000  H
  H120     1.0000 0.92710  0.99570  0.32800  Biso   1.000  H
  C89      1.0000 0.82330  0.44290  0.63210  Biso   1.000  C
  C90      1.0000 0.17670  0.94290  0.86790  Biso   1.000  C
  C91      1.0000 0.17670  0.55710  0.36790  Biso   1.000  C
  C92      1.0000 0.82330  0.05710  0.13210  Biso   1.000  C
  H121     1.0000 0.77480  0.43870  0.55650  Biso   1.000  H
  H122     1.0000 0.22520  0.93870  0.94350  Biso   1.000  H
  H123     1.0000 0.22520  0.56130  0.44350  Biso   1.000  H
  H124     1.0000 0.77480  0.06130  0.05650  Biso   1.000  H
  H125     1.0000 0.86120  0.45240  0.56060  Biso   1.000  H
  H126     1.0000 0.13880  0.95240  0.93940  Biso   1.000  H
  H127     1.0000 0.13880  0.54760  0.43940  Biso   1.000  H
  H128     1.0000 0.86120  0.04760  0.06060  Biso   1.000  H
  N5       1.0000 0.81720  0.48710  0.75300  Biso   1.000  N
  N6       1.0000 0.18280  0.98710  0.74700  Biso   1.000  N
  N7       1.0000 0.18280  0.51290  0.24700  Biso   1.000  N
  N8       1.0000 0.81720  0.01290  0.25300  Biso   1.000  N
  C93      1.0000 0.72670  0.53760  0.90250  Biso   1.000  C
  C94      1.0000 0.27330  0.03760  0.59750  Biso   1.000  C
  C95      1.0000 0.27330  0.46240  0.09750  Biso   1.000  C
  C96      1.0000 0.72670  0.96240  0.40250  Biso   1.000  C
  C97      1.0000 0.71110  0.54230  0.06730  Biso   1.000  C
  C98      1.0000 0.28890  0.04230  0.43270  Biso   1.000  C
  C99      1.0000 0.28890  0.45770  0.93270  Biso   1.000  C
  C100     1.0000 0.71110  0.95770  0.56730  Biso   1.000  C
  H129     1.0000 0.71650  0.51220  0.14020  Biso   1.000  H
  H130     1.0000 0.28350  0.01220  0.35980  Biso   1.000  H
  H131     1.0000 0.28350  0.48780  0.85980  Biso   1.000  H
  H132     1.0000 0.71650  0.98780  0.64020  Biso   1.000  H
  C101     1.0000 0.71950  0.58310  0.80290  Biso   1.000  C
  C102     1.0000 0.28050  0.08310  0.69710  Biso   1.000  C
  C103     1.0000 0.28050  0.41690  0.19710  Biso   1.000  C
  C104     1.0000 0.71950  0.91690  0.30290  Biso   1.000  C
  H133     1.0000 0.73170  0.58220  0.69170  Biso   1.000  H
  H134     1.0000 0.26830  0.08220  0.80830  Biso   1.000  H
  H135     1.0000 0.26830  0.41780  0.30830  Biso   1.000  H
  H136     1.0000 0.73170  0.91780  0.19170  Biso   1.000  H
  C105     1.0000 0.68740  0.59130  0.12660  Biso   1.000  C
  C106     1.0000 0.31260  0.09130  0.37340  Biso   1.000  C
  C107     1.0000 0.31260  0.40870  0.87340  Biso   1.000  C
  C108     1.0000 0.68740  0.90870  0.62660  Biso   1.000  C
  H137     1.0000 0.67790  0.59320  0.24000  Biso   1.000  H
  H138     1.0000 0.32210  0.09320  0.26000  Biso   1.000  H
  H139     1.0000 0.32210  0.40680  0.76000  Biso   1.000  H
  H140     1.0000 0.67790  0.90680  0.74000  Biso   1.000  H
  C109     1.0000 0.69360  0.63140  0.86750  Biso   1.000  C
  C110     1.0000 0.30640  0.13140  0.63250  Biso   1.000  C
  C111     1.0000 0.30640  0.36860  0.13250  Biso   1.000  C
  C112     1.0000 0.69360  0.86860  0.36750  Biso   1.000  C
  H141     1.0000 0.68700  0.66160  0.79550  Biso   1.000  H
  H142     1.0000 0.31300  0.16160  0.70450  Biso   1.000  H
  H143     1.0000 0.31300  0.33840  0.20450  Biso   1.000  H
  H144     1.0000 0.68700  0.83840  0.29550  Biso   1.000  H
  C113     1.0000 0.60510  0.43400  0.42250  Biso   1.000  C
  C114     1.0000 0.39490  0.93400  0.07750  Biso   1.000  C
  C115     1.0000 0.39490  0.56600  0.57750  Biso   1.000  C
  C116     1.0000 0.60510  0.06600  0.92250  Biso   1.000  C
  H145     1.0000 0.62600  0.40590  0.49450  Biso   1.000  H
  H146     1.0000 0.37400  0.90590  0.00550  Biso   1.000  H
  H147     1.0000 0.37400  0.59410  0.50550  Biso   1.000  H
  H148     1.0000 0.62600  0.09410  0.99450  Biso   1.000  H
  C117     1.0000 0.49000  0.38690  0.39950  Biso   1.000  C
  C118     1.0000 0.51000  0.88690  0.10050  Biso   1.000  C
  C119     1.0000 0.51000  0.61310  0.60050  Biso   1.000  C
  C120     1.0000 0.49000  0.11310  0.89950  Biso   1.000  C
  H149     1.0000 0.52240  0.36350  0.47740  Biso   1.000  H
  H150     1.0000 0.47760  0.86350  0.02260  Biso   1.000  H
  H151     1.0000 0.47760  0.63650  0.52260  Biso   1.000  H
  H152     1.0000 0.52240  0.13650  0.97740  Biso   1.000  H
  H153     1.0000 0.47060  0.36730  0.29570  Biso   1.000  H
  H154     1.0000 0.52940  0.86730  0.20430  Biso   1.000  H
  H155     1.0000 0.52940  0.63270  0.70430  Biso   1.000  H
  H156     1.0000 0.47060  0.13270  0.79570  Biso   1.000  H
  H157     1.0000 0.44820  0.39910  0.45380  Biso   1.000  H
  H158     1.0000 0.55180  0.89910  0.04620  Biso   1.000  H
  H159     1.0000 0.55180  0.60090  0.54620  Biso   1.000  H
  H160     1.0000 0.44820  0.10090  0.95380  Biso   1.000  H
  C121     1.0000 0.49530  0.47020  0.24200  Biso   1.000  C
  C122     1.0000 0.50470  0.97020  0.25800  Biso   1.000  C
  C123     1.0000 0.50470  0.52980  0.75800  Biso   1.000  C
  C124     1.0000 0.49530  0.02980  0.74200  Biso   1.000  C
  H161     1.0000 0.45450  0.48640  0.29090  Biso   1.000  H
  H162     1.0000 0.54550  0.98640  0.20910  Biso   1.000  H
  H163     1.0000 0.54550  0.51360  0.70910  Biso   1.000  H
  H164     1.0000 0.45450  0.01360  0.79090  Biso   1.000  H
  H165     1.0000 0.47480  0.45210  0.13570  Biso   1.000  H
  H166     1.0000 0.52520  0.95210  0.36430  Biso   1.000  H
  H167     1.0000 0.52520  0.54790  0.86430  Biso   1.000  H
  H168     1.0000 0.47480  0.04790  0.63570  Biso   1.000  H
  H169     1.0000 0.53020  0.49800  0.21840  Biso   1.000  H
  H170     1.0000 0.46980  0.99800  0.28160  Biso   1.000  H
  H171     1.0000 0.46980  0.50200  0.78160  Biso   1.000  H
  H172     1.0000 0.53020  0.00200  0.71840  Biso   1.000  H
  N9       1.0000 0.48690  0.30520  0.96140  Biso   1.000  N
  N10      1.0000 0.51310  0.80520  0.53860  Biso   1.000  N
  N11      1.0000 0.51310  0.69480  0.03860  Biso   1.000  N
  N12      1.0000 0.48690  0.19480  0.46140  Biso   1.000  N
  C125     1.0000 0.72130  0.35480  0.12590  Biso   1.000  C
  C126     1.0000 0.27870  0.85480  0.37410  Biso   1.000  C
  C127     1.0000 0.27870  0.64520  0.87410  Biso   1.000  C
  C128     1.0000 0.72130  0.14520  0.62590  Biso   1.000  C
  H173     1.0000 0.73520  0.38080  0.04310  Biso   1.000  H
  H174     1.0000 0.26480  0.88080  0.45690  Biso   1.000  H
  H175     1.0000 0.26480  0.61920  0.95690  Biso   1.000  H
  H176     1.0000 0.73520  0.11920  0.54310  Biso   1.000  H
  H177     1.0000 0.72180  0.37380  0.23480  Biso   1.000  H
  H178     1.0000 0.27820  0.87380  0.26520  Biso   1.000  H
  H179     1.0000 0.27820  0.62620  0.76520  Biso   1.000  H
  H180     1.0000 0.72180  0.12620  0.73480  Biso   1.000  H
  N13      1.0000 0.89140  0.36710  0.13050  Biso   1.000  N
  N14      1.0000 0.10860  0.86710  0.36950  Biso   1.000  N
  N15      1.0000 0.10860  0.63290  0.86950  Biso   1.000  N
  N16      1.0000 0.89140  0.13290  0.63050  Biso   1.000  N
  N17      1.0000 0.83060  0.31810  0.88050  Biso   1.000  N
  N18      1.0000 0.16940  0.81810  0.61950  Biso   1.000  N
  N19      1.0000 0.16940  0.68190  0.11950  Biso   1.000  N
  N20      1.0000 0.83060  0.18190  0.38050  Biso   1.000  N
  N21      1.0000 0.90800  0.43870  0.96600  Biso   1.000  N
  N22      1.0000 0.09200  0.93870  0.53400  Biso   1.000  N
  N23      1.0000 0.09200  0.56130  0.03400  Biso   1.000  N
  N24      1.0000 0.90800  0.06130  0.46600  Biso   1.000  N
  N25      1.0000 0.84440  0.39130  0.71750  Biso   1.000  N
  N26      1.0000 0.15560  0.89130  0.78250  Biso   1.000  N
  N27      1.0000 0.15560  0.60870  0.28250  Biso   1.000  N
  N28      1.0000 0.84440  0.10870  0.21750  Biso   1.000  N
  C129     1.0000 0.74730  0.48440  0.82920  Biso   1.000  C
  C130     1.0000 0.25270  0.98440  0.67080  Biso   1.000  C
  C131     1.0000 0.25270  0.51560  0.17080  Biso   1.000  C
  C132     1.0000 0.74730  0.01560  0.32920  Biso   1.000  C
  H181     1.0000 0.75360  0.45730  0.92050  Biso   1.000  H
  H182     1.0000 0.24640  0.95730  0.57950  Biso   1.000  H
  H183     1.0000 0.24640  0.54270  0.07950  Biso   1.000  H
  H184     1.0000 0.75360  0.04270  0.42050  Biso   1.000  H
  H185     1.0000 0.70560  0.47270  0.74120  Biso   1.000  H
  H186     1.0000 0.29440  0.97270  0.75880  Biso   1.000  H
  H187     1.0000 0.29440  0.52730  0.25880  Biso   1.000  H
  H188     1.0000 0.70560  0.02730  0.24120  Biso   1.000  H
  N29      1.0000 0.67760  0.63600  0.02940  Biso   1.000  N
  N30      1.0000 0.32240  0.13600  0.47060  Biso   1.000  N
  N31      1.0000 0.32240  0.36400  0.97060  Biso   1.000  N
  N32      1.0000 0.67760  0.86400  0.52940  Biso   1.000  N
  N33      1.0000 0.53310  0.43300  0.35690  Biso   1.000  N
  N34      1.0000 0.46690  0.93300  0.14310  Biso   1.000  N
  N35      1.0000 0.46690  0.56700  0.64310  Biso   1.000  N
  N36      1.0000 0.53310  0.06700  0.85690  Biso   1.000  N
  O33      1.0000 0.86490  0.45276  0.22660  Biso   1.000  O
  O34      1.0000 0.13510  0.95276  0.27340  Biso   1.000  O
  O35      1.0000 0.13510  0.54724  0.77340  Biso   1.000  O
  O36      1.0000 0.86490  0.04724  0.72660  Biso   1.000  O
  O37      1.0000 0.72930  0.34623  0.67480  Biso   1.000  O
  O38      1.0000 0.27070  0.84623  0.82520  Biso   1.000  O
  O39      1.0000 0.27070  0.65377  0.32520  Biso   1.000  O
  O40      1.0000 0.72930  0.15377  0.17480  Biso   1.000  O
  O41      1.0000 0.64610  0.47220  0.38930  Biso   1.000  O
  O42      1.0000 0.35390  0.97220  0.11070  Biso   1.000  O
  O43      1.0000 0.35390  0.52780  0.61070  Biso   1.000  O
  O44      1.0000 0.64610  0.02780  0.88930  Biso   1.000  O
