data_image0
_cell_length_a       10.3188
_cell_length_b       12.2799
_cell_length_c       18.4566
_cell_angle_alpha    90
_cell_angle_beta     97.141
_cell_angle_gamma    90

_symmetry_space_group_name_H-M    "P 1"
_symmetry_int_tables_number       1

loop_
  _symmetry_equiv_pos_as_xyz
  'x, y, z'

loop_
  _atom_site_label
  _atom_site_occupancy
  _atom_site_fract_x
  _atom_site_fract_y
  _atom_site_fract_z
  _atom_site_thermal_displace_type
  _atom_site_B_iso_or_equiv
  _atom_site_type_symbol
  Cu1      1.0000 0.40767  0.93027  0.80717  Biso   1.000  Cu
  Cu2      1.0000 0.59233  0.43027  0.69283  Biso   1.000  Cu
  Cu3      1.0000 0.59233  0.06973  0.19283  Biso   1.000  Cu
  Cu4      1.0000 0.40767  0.56973  0.30717  Biso   1.000  Cu
  N1       1.0000 0.52030  0.15860  0.69154  Biso   1.000  N
  N2       1.0000 0.47970  0.65860  0.80846  Biso   1.000  N
  N3       1.0000 0.47970  0.84140  0.30846  Biso   1.000  N
  N4       1.0000 0.52030  0.34140  0.19154  Biso   1.000  N
  N5       1.0000 0.65130  0.02640  0.76390  Biso   1.000  N
  N6       1.0000 0.34870  0.52640  0.73610  Biso   1.000  N
  N7       1.0000 0.34870  0.97360  0.23610  Biso   1.000  N
  N8       1.0000 0.65130  0.47360  0.26390  Biso   1.000  N
  N9       1.0000 0.58740  0.99170  0.82070  Biso   1.000  N
  N10      1.0000 0.41260  0.49170  0.67930  Biso   1.000  N
  N11      1.0000 0.41260  0.00830  0.17930  Biso   1.000  N
  N12      1.0000 0.58740  0.50830  0.32070  Biso   1.000  N
  N13      1.0000 0.29520  0.10290  0.70400  Biso   1.000  N
  N14      1.0000 0.70480  0.60290  0.79600  Biso   1.000  N
  N15      1.0000 0.70480  0.89710  0.29600  Biso   1.000  N
  N16      1.0000 0.29520  0.39710  0.20400  Biso   1.000  N
  N17      1.0000 0.29690  0.99250  0.72010  Biso   1.000  N
  N18      1.0000 0.70310  0.49250  0.77990  Biso   1.000  N
  N19      1.0000 0.70310  0.00750  0.27990  Biso   1.000  N
  N20      1.0000 0.29690  0.50750  0.22010  Biso   1.000  N
  N21      1.0000 0.61560  0.24210  0.59378  Biso   1.000  N
  N22      1.0000 0.38440  0.74210  0.90622  Biso   1.000  N
  N23      1.0000 0.38440  0.75790  0.40622  Biso   1.000  N
  N24      1.0000 0.61560  0.25790  0.09378  Biso   1.000  N
  N25      1.0000 0.67390  0.33330  0.62706  Biso   1.000  N
  N26      1.0000 0.32610  0.83330  0.87294  Biso   1.000  N
  N27      1.0000 0.32610  0.66670  0.37294  Biso   1.000  N
  N28      1.0000 0.67390  0.16670  0.12706  Biso   1.000  N
  C1       1.0000 0.58040  0.05040  0.69370  Biso   1.000  C
  C2       1.0000 0.41960  0.55040  0.80630  Biso   1.000  C
  C3       1.0000 0.41960  0.94960  0.30630  Biso   1.000  C
  C4       1.0000 0.58040  0.44960  0.19370  Biso   1.000  C
  H1       1.0000 0.51150  0.99490  0.68190  Biso   1.000  H
  H2       1.0000 0.48850  0.49490  0.81810  Biso   1.000  H
  H3       1.0000 0.48850  0.00510  0.31810  Biso   1.000  H
  H4       1.0000 0.51150  0.50510  0.18190  Biso   1.000  H
  H5       1.0000 0.64080  0.04630  0.65610  Biso   1.000  H
  H6       1.0000 0.35920  0.54630  0.84390  Biso   1.000  H
  H7       1.0000 0.35920  0.95370  0.34390  Biso   1.000  H
  H8       1.0000 0.64080  0.45370  0.15610  Biso   1.000  H
  C5       1.0000 0.40820  0.16930  0.73220  Biso   1.000  C
  C6       1.0000 0.59180  0.66930  0.76780  Biso   1.000  C
  C7       1.0000 0.59180  0.83070  0.26780  Biso   1.000  C
  C8       1.0000 0.40820  0.33070  0.23220  Biso   1.000  C
  H9       1.0000 0.38130  0.24670  0.73160  Biso   1.000  H
  H10      1.0000 0.61870  0.74670  0.76840  Biso   1.000  H
  H11      1.0000 0.61870  0.75330  0.26840  Biso   1.000  H
  H12      1.0000 0.38130  0.25330  0.23160  Biso   1.000  H
  H13      1.0000 0.43570  0.14870  0.78370  Biso   1.000  H
  H14      1.0000 0.56430  0.64870  0.71630  Biso   1.000  H
  H15      1.0000 0.56430  0.85130  0.21630  Biso   1.000  H
  H16      1.0000 0.43570  0.35130  0.28370  Biso   1.000  H
  C9       1.0000 0.49640  0.20150  0.61760  Biso   1.000  C
  C10      1.0000 0.50360  0.70150  0.88240  Biso   1.000  C
  C11      1.0000 0.50360  0.79850  0.38240  Biso   1.000  C
  C12      1.0000 0.49640  0.29850  0.11760  Biso   1.000  C
  H17      1.0000 0.45960  0.14330  0.58400  Biso   1.000  H
  H18      1.0000 0.54040  0.64330  0.91600  Biso   1.000  H
  H19      1.0000 0.54040  0.85670  0.41600  Biso   1.000  H
  H20      1.0000 0.45960  0.35670  0.08400  Biso   1.000  H
  H21      1.0000 0.43150  0.26120  0.61590  Biso   1.000  H
  H22      1.0000 0.56850  0.76120  0.88410  Biso   1.000  H
  H23      1.0000 0.56850  0.73880  0.38410  Biso   1.000  H
  H24      1.0000 0.43150  0.23880  0.11590  Biso   1.000  H
  C13      1.0000 0.77590  0.05660  0.78810  Biso   1.000  C
  C14      1.0000 0.22410  0.55660  0.71190  Biso   1.000  C
  C15      1.0000 0.22410  0.94340  0.21190  Biso   1.000  C
  C16      1.0000 0.77590  0.44340  0.28810  Biso   1.000  C
  C17      1.0000 0.79110  0.04240  0.86260  Biso   1.000  C
  C18      1.0000 0.20890  0.54240  0.63740  Biso   1.000  C
  C19      1.0000 0.20890  0.95760  0.13740  Biso   1.000  C
  C20      1.0000 0.79110  0.45760  0.36260  Biso   1.000  C
  H25      1.0000 0.86710  0.05740  0.89560  Biso   1.000  H
  H26      1.0000 0.13290  0.55740  0.60440  Biso   1.000  H
  H27      1.0000 0.13290  0.94260  0.10440  Biso   1.000  H
  H28      1.0000 0.86710  0.44260  0.39560  Biso   1.000  H
  C21      1.0000 0.67270  0.00160  0.88010  Biso   1.000  C
  C22      1.0000 0.32730  0.50160  0.61990  Biso   1.000  C
  C23      1.0000 0.32730  0.99840  0.11990  Biso   1.000  C
  C24      1.0000 0.67270  0.49840  0.38010  Biso   1.000  C
  C25      1.0000 0.86790  0.09250  0.73690  Biso   1.000  C
  C26      1.0000 0.13210  0.59250  0.76310  Biso   1.000  C
  C27      1.0000 0.13210  0.90750  0.26310  Biso   1.000  C
  C28      1.0000 0.86790  0.40750  0.23690  Biso   1.000  C
  H29      1.0000 0.88290  0.03240  0.70400  Biso   1.000  H
  H30      1.0000 0.11710  0.53240  0.79600  Biso   1.000  H
  H31      1.0000 0.11710  0.96760  0.29600  Biso   1.000  H
  H32      1.0000 0.88290  0.46760  0.20400  Biso   1.000  H
  H33      1.0000 0.95100  0.11410  0.76480  Biso   1.000  H
  H34      1.0000 0.04900  0.61410  0.73520  Biso   1.000  H
  H35      1.0000 0.04900  0.88590  0.23520  Biso   1.000  H
  H36      1.0000 0.95100  0.38590  0.26480  Biso   1.000  H
  H37      1.0000 0.83040  0.15460  0.70830  Biso   1.000  H
  H38      1.0000 0.16960  0.65460  0.79170  Biso   1.000  H
  H39      1.0000 0.16960  0.84540  0.29170  Biso   1.000  H
  H40      1.0000 0.83040  0.34540  0.20830  Biso   1.000  H
  C29      1.0000 0.63840  0.97280  0.95310  Biso   1.000  C
  C30      1.0000 0.36160  0.47280  0.54690  Biso   1.000  C
  C31      1.0000 0.36160  0.02720  0.04690  Biso   1.000  C
  C32      1.0000 0.63840  0.52720  0.45310  Biso   1.000  C
  H41      1.0000 0.63960  0.03850  0.98330  Biso   1.000  H
  H42      1.0000 0.36040  0.53850  0.51670  Biso   1.000  H
  H43      1.0000 0.36040  0.96150  0.01670  Biso   1.000  H
  H44      1.0000 0.63960  0.46150  0.48330  Biso   1.000  H
  H45      1.0000 0.70200  0.92020  0.97630  Biso   1.000  H
  H46      1.0000 0.29800  0.42020  0.52370  Biso   1.000  H
  H47      1.0000 0.29800  0.07980  0.02370  Biso   1.000  H
  H48      1.0000 0.70200  0.57980  0.47630  Biso   1.000  H
  H49      1.0000 0.55090  0.94050  0.94810  Biso   1.000  H
  H50      1.0000 0.44910  0.44050  0.55190  Biso   1.000  H
  H51      1.0000 0.44910  0.05950  0.05190  Biso   1.000  H
  H52      1.0000 0.55090  0.55950  0.44810  Biso   1.000  H
  C33      1.0000 0.19140  0.12790  0.65390  Biso   1.000  C
  C34      1.0000 0.80860  0.62790  0.84610  Biso   1.000  C
  C35      1.0000 0.80860  0.87210  0.34610  Biso   1.000  C
  C36      1.0000 0.19140  0.37210  0.15390  Biso   1.000  C
  C37      1.0000 0.12740  0.03200  0.63600  Biso   1.000  C
  C38      1.0000 0.87260  0.53200  0.86400  Biso   1.000  C
  C39      1.0000 0.87260  0.96800  0.36400  Biso   1.000  C
  C40      1.0000 0.12740  0.46800  0.13600  Biso   1.000  C
  H53      1.0000 0.05180  0.02240  0.60170  Biso   1.000  H
  H54      1.0000 0.94820  0.52240  0.89830  Biso   1.000  H
  H55      1.0000 0.94820  0.97760  0.39830  Biso   1.000  H
  H56      1.0000 0.05180  0.47760  0.10170  Biso   1.000  H
  C41      1.0000 0.19470  0.95220  0.67770  Biso   1.000  C
  C42      1.0000 0.80530  0.45220  0.82230  Biso   1.000  C
  C43      1.0000 0.80530  0.04780  0.32230  Biso   1.000  C
  C44      1.0000 0.19470  0.54780  0.17770  Biso   1.000  C
  C45      1.0000 0.15800  0.24150  0.63000  Biso   1.000  C
  C46      1.0000 0.84200  0.74150  0.87000  Biso   1.000  C
  C47      1.0000 0.84200  0.75850  0.37000  Biso   1.000  C
  C48      1.0000 0.15800  0.25850  0.13000  Biso   1.000  C
  H57      1.0000 0.18200  0.29160  0.67080  Biso   1.000  H
  H58      1.0000 0.81800  0.79160  0.82920  Biso   1.000  H
  H59      1.0000 0.81800  0.70840  0.32920  Biso   1.000  H
  H60      1.0000 0.18200  0.20840  0.17080  Biso   1.000  H
  H61      1.0000 0.06390  0.24670  0.61430  Biso   1.000  H
  H62      1.0000 0.93610  0.74670  0.88570  Biso   1.000  H
  H63      1.0000 0.93610  0.75330  0.38570  Biso   1.000  H
  H64      1.0000 0.06390  0.25330  0.11430  Biso   1.000  H
  H65      1.0000 0.20600  0.26090  0.58930  Biso   1.000  H
  H66      1.0000 0.79400  0.76090  0.91070  Biso   1.000  H
  H67      1.0000 0.79400  0.73910  0.41070  Biso   1.000  H
  H68      1.0000 0.20600  0.23910  0.08930  Biso   1.000  H
  C49      1.0000 0.16730  0.83250  0.68180  Biso   1.000  C
  C50      1.0000 0.83270  0.33250  0.81820  Biso   1.000  C
  C51      1.0000 0.83270  0.16750  0.31820  Biso   1.000  C
  C52      1.0000 0.16730  0.66750  0.18180  Biso   1.000  C
  H69      1.0000 0.24490  0.79520  0.70590  Biso   1.000  H
  H70      1.0000 0.75510  0.29520  0.79410  Biso   1.000  H
  H71      1.0000 0.75510  0.20480  0.29410  Biso   1.000  H
  H72      1.0000 0.24490  0.70480  0.20590  Biso   1.000  H
  H73      1.0000 0.14530  0.80340  0.63240  Biso   1.000  H
  H74      1.0000 0.85470  0.30340  0.86760  Biso   1.000  H
  H75      1.0000 0.85470  0.19660  0.36760  Biso   1.000  H
  H76      1.0000 0.14530  0.69660  0.13240  Biso   1.000  H
  H77      1.0000 0.09390  0.82080  0.70990  Biso   1.000  H
  H78      1.0000 0.90610  0.32080  0.79010  Biso   1.000  H
  H79      1.0000 0.90610  0.17920  0.29010  Biso   1.000  H
  H80      1.0000 0.09390  0.67920  0.20990  Biso   1.000  H
  C53      1.0000 0.68740  0.20090  0.54340  Biso   1.000  C
  C54      1.0000 0.31260  0.70090  0.95660  Biso   1.000  C
  C55      1.0000 0.31260  0.79910  0.45660  Biso   1.000  C
  C56      1.0000 0.68740  0.29910  0.04340  Biso   1.000  C
  C57      1.0000 0.79500  0.26630  0.54560  Biso   1.000  C
  C58      1.0000 0.20500  0.76630  0.95440  Biso   1.000  C
  C59      1.0000 0.20500  0.73370  0.45440  Biso   1.000  C
  C60      1.0000 0.79500  0.23370  0.04560  Biso   1.000  C
  H81      1.0000 0.86480  0.25830  0.51690  Biso   1.000  H
  H82      1.0000 0.13520  0.75830  0.98310  Biso   1.000  H
  H83      1.0000 0.13520  0.74170  0.48310  Biso   1.000  H
  H84      1.0000 0.86480  0.24170  0.01690  Biso   1.000  H
  C61      1.0000 0.78350  0.34620  0.59710  Biso   1.000  C
  C62      1.0000 0.21650  0.84620  0.90290  Biso   1.000  C
  C63      1.0000 0.21650  0.65380  0.40290  Biso   1.000  C
  C64      1.0000 0.78350  0.15380  0.09710  Biso   1.000  C
  C65      1.0000 0.64600  0.10410  0.49720  Biso   1.000  C
  C66      1.0000 0.35400  0.60410  0.00280  Biso   1.000  C
  C67      1.0000 0.35400  0.89590  0.50280  Biso   1.000  C
  C68      1.0000 0.64600  0.39590  0.99720  Biso   1.000  C
  H85      1.0000 0.62680  0.04330  0.52860  Biso   1.000  H
  H86      1.0000 0.37320  0.54330  0.97140  Biso   1.000  H
  H87      1.0000 0.37320  0.95670  0.47140  Biso   1.000  H
  H88      1.0000 0.62680  0.45670  0.02860  Biso   1.000  H
  H89      1.0000 0.71650  0.08320  0.46890  Biso   1.000  H
  H90      1.0000 0.28350  0.58320  0.03110  Biso   1.000  H
  H91      1.0000 0.28350  0.91680  0.53110  Biso   1.000  H
  H92      1.0000 0.71650  0.41680  0.96890  Biso   1.000  H
  H93      1.0000 0.56770  0.12220  0.46370  Biso   1.000  H
  H94      1.0000 0.43230  0.62220  0.03630  Biso   1.000  H
  H95      1.0000 0.43230  0.87780  0.53630  Biso   1.000  H
  H96      1.0000 0.56770  0.37780  0.96370  Biso   1.000  H
  C69      1.0000 0.87470  0.43760  0.62110  Biso   1.000  C
  C70      1.0000 0.12530  0.93760  0.87890  Biso   1.000  C
  C71      1.0000 0.12530  0.56240  0.37890  Biso   1.000  C
  C72      1.0000 0.87470  0.06240  0.12110  Biso   1.000  C
  H97      1.0000 0.82570  0.49710  0.64040  Biso   1.000  H
  H98      1.0000 0.17430  0.99710  0.85960  Biso   1.000  H
  H99      1.0000 0.17430  0.50290  0.35960  Biso   1.000  H
  H100     1.0000 0.82570  0.00290  0.14040  Biso   1.000  H
  H101     1.0000 0.91590  0.46400  0.57940  Biso   1.000  H
  H102     1.0000 0.08410  0.96400  0.92060  Biso   1.000  H
  H103     1.0000 0.08410  0.53600  0.42060  Biso   1.000  H
  H104     1.0000 0.91590  0.03600  0.07940  Biso   1.000  H
  H105     1.0000 0.94220  0.41170  0.65930  Biso   1.000  H
  H106     1.0000 0.05780  0.91170  0.84070  Biso   1.000  H
  H107     1.0000 0.05780  0.58830  0.34070  Biso   1.000  H
  H108     1.0000 0.94220  0.08830  0.15930  Biso   1.000  H
  P1       1.0000 0.76705  0.78052  0.60349  Biso   1.000  P
  P2       1.0000 0.23295  0.28052  0.89651  Biso   1.000  P
  P3       1.0000 0.23295  0.21948  0.39651  Biso   1.000  P
  P4       1.0000 0.76705  0.71948  0.10349  Biso   1.000  P
  F1       1.0000 0.65040  0.83910  0.63758  Biso   1.000  F
  F2       1.0000 0.34960  0.33910  0.86242  Biso   1.000  F
  F3       1.0000 0.34960  0.16090  0.36242  Biso   1.000  F
  F4       1.0000 0.65040  0.66090  0.13758  Biso   1.000  F
  F5       1.0000 0.88140  0.72160  0.56940  Biso   1.000  F
  F6       1.0000 0.11860  0.22160  0.93060  Biso   1.000  F
  F7       1.0000 0.11860  0.27840  0.43060  Biso   1.000  F
  F8       1.0000 0.88140  0.77840  0.06940  Biso   1.000  F
  F9       1.0000 0.83770  0.89340  0.59870  Biso   1.000  F
  F10      1.0000 0.16230  0.39340  0.90130  Biso   1.000  F
  F11      1.0000 0.16230  0.10660  0.40130  Biso   1.000  F
  F12      1.0000 0.83770  0.60660  0.09870  Biso   1.000  F
  F13      1.0000 0.83820  0.76250  0.68301  Biso   1.000  F
  F14      1.0000 0.16180  0.26250  0.81699  Biso   1.000  F
  F15      1.0000 0.16180  0.23750  0.31699  Biso   1.000  F
  F16      1.0000 0.83820  0.73750  0.18301  Biso   1.000  F
  F17      1.0000 0.69400  0.66740  0.60876  Biso   1.000  F
  F18      1.0000 0.30600  0.16740  0.89124  Biso   1.000  F
  F19      1.0000 0.30600  0.33260  0.39124  Biso   1.000  F
  F20      1.0000 0.69400  0.83260  0.10876  Biso   1.000  F
  F21      1.0000 0.69210  0.79740  0.52378  Biso   1.000  F
  F22      1.0000 0.30790  0.29740  0.97622  Biso   1.000  F
  F23      1.0000 0.30790  0.20260  0.47622  Biso   1.000  F
  F24      1.0000 0.69210  0.70260  0.02378  Biso   1.000  F
