data_image0
_cell_length_a       5.4354
_cell_length_b       11.6164
_cell_length_c       11.7959
_cell_angle_alpha    97.877
_cell_angle_beta     94.011
_cell_angle_gamma    101.772

_symmetry_space_group_name_H-M    "P 1"
_symmetry_int_tables_number       1

loop_
  _symmetry_equiv_pos_as_xyz
  'x, y, z'

loop_
  _atom_site_label
  _atom_site_occupancy
  _atom_site_fract_x
  _atom_site_fract_y
  _atom_site_fract_z
  _atom_site_thermal_displace_type
  _atom_site_B_iso_or_equiv
  _atom_site_type_symbol
  Cu1      1.0000 0.04023  0.96838  0.70307  Biso   1.000  Cu
  Cu2      1.0000 0.95977  0.03162  0.29693  Biso   1.000  Cu
  Cu3      1.0000 0.56042  0.67070  0.89561  Biso   1.000  Cu
  Cu4      1.0000 0.43958  0.32930  0.10439  Biso   1.000  Cu
  C1       1.0000 0.86660  0.87560  0.80220  Biso   1.000  C
  C2       1.0000 0.13340  0.12440  0.19780  Biso   1.000  C
  C3       1.0000 0.51800  0.54270  0.98050  Biso   1.000  C
  C4       1.0000 0.48200  0.45730  0.01950  Biso   1.000  C
  C5       1.0000 0.97480  0.44690  0.19350  Biso   1.000  C
  C6       1.0000 0.02520  0.55310  0.80650  Biso   1.000  C
  H1       1.0000 0.96060  0.47510  0.12380  Biso   1.000  H
  H2       1.0000 0.03940  0.52490  0.87620  Biso   1.000  H
  C7       1.0000 0.19660  0.48660  0.26320  Biso   1.000  C
  C8       1.0000 0.80340  0.51340  0.73680  Biso   1.000  C
  H3       1.0000 0.33030  0.53960  0.24090  Biso   1.000  H
  H4       1.0000 0.66970  0.46040  0.75910  Biso   1.000  H
  C9       1.0000 0.21710  0.44650  0.36670  Biso   1.000  C
  C10      1.0000 0.78290  0.55350  0.63330  Biso   1.000  C
  H5       1.0000 0.36450  0.47310  0.41640  Biso   1.000  H
  H6       1.0000 0.63550  0.52690  0.58360  Biso   1.000  H
  C11      1.0000 0.01720  0.36630  0.39640  Biso   1.000  C
  C12      1.0000 0.98280  0.63370  0.60360  Biso   1.000  C
  C13      1.0000 0.79960  0.32950  0.32030  Biso   1.000  C
  C14      1.0000 0.20040  0.67050  0.67970  Biso   1.000  C
  H7       1.0000 0.66450  0.27500  0.33960  Biso   1.000  H
  H8       1.0000 0.33550  0.72500  0.66040  Biso   1.000  H
  C15      1.0000 0.04230  0.32760  0.50890  Biso   1.000  C
  C16      1.0000 0.95770  0.67240  0.49110  Biso   1.000  C
  C17      1.0000 0.94240  0.25500  0.65920  Biso   1.000  C
  C18      1.0000 0.05760  0.74500  0.34080  Biso   1.000  C
  C19      1.0000 0.78350  0.19540  0.73730  Biso   1.000  C
  C20      1.0000 0.21650  0.80460  0.26270  Biso   1.000  C
  C21      1.0000 0.86700  0.21140  0.85320  Biso   1.000  C
  C22      1.0000 0.13300  0.78860  0.14680  Biso   1.000  C
  H9       1.0000 0.02620  0.25720  0.88140  Biso   1.000  H
  H10      1.0000 0.97380  0.74280  0.11860  Biso   1.000  H
  C23      1.0000 0.70700  0.15750  0.92600  Biso   1.000  C
  C24      1.0000 0.29300  0.84250  0.07400  Biso   1.000  C
  H11      1.0000 0.75710  0.16630  0.00430  Biso   1.000  H
  H12      1.0000 0.24290  0.83370  0.99570  Biso   1.000  H
  C25      1.0000 0.47400  0.09090  0.88130  Biso   1.000  C
  C26      1.0000 0.52600  0.90910  0.11870  Biso   1.000  C
  H13      1.0000 0.36760  0.05600  0.93130  Biso   1.000  H
  H14      1.0000 0.63240  0.94400  0.06870  Biso   1.000  H
  C27      1.0000 0.54660  0.12590  0.69920  Biso   1.000  C
  C28      1.0000 0.45340  0.87410  0.30080  Biso   1.000  C
  H15      1.0000 0.49240  0.11520  0.62120  Biso   1.000  H
  H16      1.0000 0.50760  0.88480  0.37880  Biso   1.000  H
  N1       1.0000 0.75850  0.80830  0.85280  Biso   1.000  N
  N2       1.0000 0.24150  0.19170  0.14720  Biso   1.000  N
  N3       1.0000 0.00610  0.99050  0.54810  Biso   1.000  N
  N4       1.0000 0.99390  0.00950  0.45190  Biso   1.000  N
  N5       1.0000 0.77820  0.37000  0.22010  Biso   1.000  N
  N6       1.0000 0.22180  0.63000  0.77990  Biso   1.000  N
  N7       1.0000 0.24310  0.35330  0.57900  Biso   1.000  N
  N8       1.0000 0.75690  0.64670  0.42100  Biso   1.000  N
  N9       1.0000 0.17830  0.30610  0.67930  Biso   1.000  N
  N10      1.0000 0.82170  0.69390  0.32070  Biso   1.000  N
  N11      1.0000 0.39090  0.07320  0.76910  Biso   1.000  N
  N12      1.0000 0.60910  0.92680  0.23090  Biso   1.000  N
  O1       1.0000 0.84130  0.26400  0.55224  Biso   1.000  O
  O2       1.0000 0.15870  0.73600  0.44776  Biso   1.000  O
