data_image0
_cell_length_a       9.0765
_cell_length_b       13.5733
_cell_length_c       20.276
_cell_angle_alpha    90
_cell_angle_beta     92.447
_cell_angle_gamma    90

_symmetry_space_group_name_H-M    "P 1"
_symmetry_int_tables_number       1

loop_
  _symmetry_equiv_pos_as_xyz
  'x, y, z'

loop_
  _atom_site_label
  _atom_site_occupancy
  _atom_site_fract_x
  _atom_site_fract_y
  _atom_site_fract_z
  _atom_site_thermal_displace_type
  _atom_site_B_iso_or_equiv
  _atom_site_type_symbol
  Cu1      1.0000 0.24502  0.28214  0.19800  Biso   1.000  Cu
  Cu2      1.0000 0.74502  0.78214  0.19800  Biso   1.000  Cu
  Cu3      1.0000 0.75498  0.28214  0.30200  Biso   1.000  Cu
  Cu4      1.0000 0.25498  0.78214  0.30200  Biso   1.000  Cu
  Cu5      1.0000 0.75498  0.71786  0.80200  Biso   1.000  Cu
  Cu6      1.0000 0.25498  0.21786  0.80200  Biso   1.000  Cu
  Cu7      1.0000 0.24502  0.71786  0.69800  Biso   1.000  Cu
  Cu8      1.0000 0.74502  0.21786  0.69800  Biso   1.000  Cu
  C1       1.0000 0.44130  0.27980  0.23818  Biso   1.000  C
  C2       1.0000 0.94130  0.77980  0.23818  Biso   1.000  C
  C3       1.0000 0.55870  0.27980  0.26182  Biso   1.000  C
  C4       1.0000 0.05870  0.77980  0.26182  Biso   1.000  C
  C5       1.0000 0.55870  0.72020  0.76182  Biso   1.000  C
  C6       1.0000 0.05870  0.22020  0.76182  Biso   1.000  C
  C7       1.0000 0.44130  0.72020  0.73818  Biso   1.000  C
  C8       1.0000 0.94130  0.22020  0.73818  Biso   1.000  C
  C9       1.0000 0.30530  0.13300  0.08553  Biso   1.000  C
  C10      1.0000 0.80530  0.63300  0.08553  Biso   1.000  C
  C11      1.0000 0.69470  0.13300  0.41447  Biso   1.000  C
  C12      1.0000 0.19470  0.63300  0.41447  Biso   1.000  C
  C13      1.0000 0.69470  0.86700  0.91447  Biso   1.000  C
  C14      1.0000 0.19470  0.36700  0.91447  Biso   1.000  C
  C15      1.0000 0.30530  0.86700  0.58553  Biso   1.000  C
  C16      1.0000 0.80530  0.36700  0.58553  Biso   1.000  C
  H1       1.0000 0.33220  0.18710  0.06060  Biso   1.000  H
  H2       1.0000 0.83220  0.68710  0.06060  Biso   1.000  H
  H3       1.0000 0.66780  0.18710  0.43940  Biso   1.000  H
  H4       1.0000 0.16780  0.68710  0.43940  Biso   1.000  H
  H5       1.0000 0.66780  0.81290  0.93940  Biso   1.000  H
  H6       1.0000 0.16780  0.31290  0.93940  Biso   1.000  H
  H7       1.0000 0.33220  0.81290  0.56060  Biso   1.000  H
  H8       1.0000 0.83220  0.31290  0.56060  Biso   1.000  H
  C17      1.0000 0.33770  0.04080  0.06242  Biso   1.000  C
  C18      1.0000 0.83770  0.54080  0.06242  Biso   1.000  C
  C19      1.0000 0.66230  0.04080  0.43758  Biso   1.000  C
  C20      1.0000 0.16230  0.54080  0.43758  Biso   1.000  C
  C21      1.0000 0.66230  0.95920  0.93758  Biso   1.000  C
  C22      1.0000 0.16230  0.45920  0.93758  Biso   1.000  C
  C23      1.0000 0.33770  0.95920  0.56242  Biso   1.000  C
  C24      1.0000 0.83770  0.45920  0.56242  Biso   1.000  C
  H9       1.0000 0.38420  0.03310  0.02270  Biso   1.000  H
  H10      1.0000 0.88420  0.53310  0.02270  Biso   1.000  H
  H11      1.0000 0.61580  0.03310  0.47730  Biso   1.000  H
  H12      1.0000 0.11580  0.53310  0.47730  Biso   1.000  H
  H13      1.0000 0.61580  0.96690  0.97730  Biso   1.000  H
  H14      1.0000 0.11580  0.46690  0.97730  Biso   1.000  H
  H15      1.0000 0.38420  0.96690  0.52270  Biso   1.000  H
  H16      1.0000 0.88420  0.46690  0.52270  Biso   1.000  H
  C25      1.0000 0.30010  0.95930  0.09922  Biso   1.000  C
  C26      1.0000 0.80010  0.45930  0.09922  Biso   1.000  C
  C27      1.0000 0.69990  0.95930  0.40078  Biso   1.000  C
  C28      1.0000 0.19990  0.45930  0.40078  Biso   1.000  C
  C29      1.0000 0.69990  0.04070  0.90078  Biso   1.000  C
  C30      1.0000 0.19990  0.54070  0.90078  Biso   1.000  C
  C31      1.0000 0.30010  0.04070  0.59922  Biso   1.000  C
  C32      1.0000 0.80010  0.54070  0.59922  Biso   1.000  C
  C33      1.0000 0.22750  0.97470  0.15675  Biso   1.000  C
  C34      1.0000 0.72750  0.47470  0.15675  Biso   1.000  C
  C35      1.0000 0.77250  0.97470  0.34325  Biso   1.000  C
  C36      1.0000 0.27250  0.47470  0.34325  Biso   1.000  C
  C37      1.0000 0.77250  0.02530  0.84325  Biso   1.000  C
  C38      1.0000 0.27250  0.52530  0.84325  Biso   1.000  C
  C39      1.0000 0.22750  0.02530  0.65675  Biso   1.000  C
  C40      1.0000 0.72750  0.52530  0.65675  Biso   1.000  C
  H17      1.0000 0.19910  0.92180  0.18240  Biso   1.000  H
  H18      1.0000 0.69910  0.42180  0.18240  Biso   1.000  H
  H19      1.0000 0.80090  0.92180  0.31760  Biso   1.000  H
  H20      1.0000 0.30090  0.42180  0.31760  Biso   1.000  H
  H21      1.0000 0.80090  0.07820  0.81760  Biso   1.000  H
  H22      1.0000 0.30090  0.57820  0.81760  Biso   1.000  H
  H23      1.0000 0.19910  0.07820  0.68240  Biso   1.000  H
  H24      1.0000 0.69910  0.57820  0.68240  Biso   1.000  H
  C41      1.0000 0.19790  0.06990  0.17555  Biso   1.000  C
  C42      1.0000 0.69790  0.56990  0.17555  Biso   1.000  C
  C43      1.0000 0.80210  0.06990  0.32445  Biso   1.000  C
  C44      1.0000 0.30210  0.56990  0.32445  Biso   1.000  C
  C45      1.0000 0.80210  0.93010  0.82445  Biso   1.000  C
  C46      1.0000 0.30210  0.43010  0.82445  Biso   1.000  C
  C47      1.0000 0.19790  0.93010  0.67555  Biso   1.000  C
  C48      1.0000 0.69790  0.43010  0.67555  Biso   1.000  C
  H25      1.0000 0.14730  0.07950  0.21400  Biso   1.000  H
  H26      1.0000 0.64730  0.57950  0.21400  Biso   1.000  H
  H27      1.0000 0.85270  0.07950  0.28600  Biso   1.000  H
  H28      1.0000 0.35270  0.57950  0.28600  Biso   1.000  H
  H29      1.0000 0.85270  0.92050  0.78600  Biso   1.000  H
  H30      1.0000 0.35270  0.42050  0.78600  Biso   1.000  H
  H31      1.0000 0.14730  0.92050  0.71400  Biso   1.000  H
  H32      1.0000 0.64730  0.42050  0.71400  Biso   1.000  H
  C49      1.0000 0.33980  0.86040  0.07796  Biso   1.000  C
  C50      1.0000 0.83980  0.36040  0.07796  Biso   1.000  C
  C51      1.0000 0.66020  0.86040  0.42204  Biso   1.000  C
  C52      1.0000 0.16020  0.36040  0.42204  Biso   1.000  C
  C53      1.0000 0.66020  0.13960  0.92204  Biso   1.000  C
  C54      1.0000 0.16020  0.63960  0.92204  Biso   1.000  C
  C55      1.0000 0.33980  0.13960  0.57796  Biso   1.000  C
  C56      1.0000 0.83980  0.63960  0.57796  Biso   1.000  C
  C57      1.0000 0.34510  0.70500  0.07859  Biso   1.000  C
  C58      1.0000 0.84510  0.20500  0.07859  Biso   1.000  C
  C59      1.0000 0.65490  0.70500  0.42141  Biso   1.000  C
  C60      1.0000 0.15490  0.20500  0.42141  Biso   1.000  C
  C61      1.0000 0.65490  0.29500  0.92141  Biso   1.000  C
  C62      1.0000 0.15490  0.79500  0.92141  Biso   1.000  C
  C63      1.0000 0.34510  0.29500  0.57859  Biso   1.000  C
  C64      1.0000 0.84510  0.79500  0.57859  Biso   1.000  C
  C65      1.0000 0.31010  0.60490  0.09951  Biso   1.000  C
  C66      1.0000 0.81010  0.10490  0.09951  Biso   1.000  C
  C67      1.0000 0.68990  0.60490  0.40049  Biso   1.000  C
  C68      1.0000 0.18990  0.10490  0.40049  Biso   1.000  C
  C69      1.0000 0.68990  0.39510  0.90049  Biso   1.000  C
  C70      1.0000 0.18990  0.89510  0.90049  Biso   1.000  C
  C71      1.0000 0.31010  0.39510  0.59951  Biso   1.000  C
  C72      1.0000 0.81010  0.89510  0.59951  Biso   1.000  C
  C73      1.0000 0.39150  0.52640  0.07708  Biso   1.000  C
  C74      1.0000 0.89150  0.02640  0.07708  Biso   1.000  C
  C75      1.0000 0.60850  0.52640  0.42292  Biso   1.000  C
  C76      1.0000 0.10850  0.02640  0.42292  Biso   1.000  C
  C77      1.0000 0.60850  0.47360  0.92292  Biso   1.000  C
  C78      1.0000 0.10850  0.97360  0.92292  Biso   1.000  C
  C79      1.0000 0.39150  0.47360  0.57708  Biso   1.000  C
  C80      1.0000 0.89150  0.97360  0.57708  Biso   1.000  C
  H33      1.0000 0.46770  0.53670  0.04860  Biso   1.000  H
  H34      1.0000 0.96770  0.03670  0.04860  Biso   1.000  H
  H35      1.0000 0.53230  0.53670  0.45140  Biso   1.000  H
  H36      1.0000 0.03230  0.03670  0.45140  Biso   1.000  H
  H37      1.0000 0.53230  0.46330  0.95140  Biso   1.000  H
  H38      1.0000 0.03230  0.96330  0.95140  Biso   1.000  H
  H39      1.0000 0.46770  0.46330  0.54860  Biso   1.000  H
  H40      1.0000 0.96770  0.96330  0.54860  Biso   1.000  H
  C81      1.0000 0.35770  0.43270  0.09768  Biso   1.000  C
  C82      1.0000 0.85770  0.93270  0.09768  Biso   1.000  C
  C83      1.0000 0.64230  0.43270  0.40232  Biso   1.000  C
  C84      1.0000 0.14230  0.93270  0.40232  Biso   1.000  C
  C85      1.0000 0.64230  0.56730  0.90232  Biso   1.000  C
  C86      1.0000 0.14230  0.06730  0.90232  Biso   1.000  C
  C87      1.0000 0.35770  0.56730  0.59768  Biso   1.000  C
  C88      1.0000 0.85770  0.06730  0.59768  Biso   1.000  C
  H41      1.0000 0.41260  0.38040  0.08220  Biso   1.000  H
  H42      1.0000 0.91260  0.88040  0.08220  Biso   1.000  H
  H43      1.0000 0.58740  0.38040  0.41780  Biso   1.000  H
  H44      1.0000 0.08740  0.88040  0.41780  Biso   1.000  H
  H45      1.0000 0.58740  0.61960  0.91780  Biso   1.000  H
  H46      1.0000 0.08740  0.11960  0.91780  Biso   1.000  H
  H47      1.0000 0.41260  0.61960  0.58220  Biso   1.000  H
  H48      1.0000 0.91260  0.11960  0.58220  Biso   1.000  H
  C89      1.0000 0.17290  0.48980  0.15944  Biso   1.000  C
  C90      1.0000 0.67290  0.98980  0.15944  Biso   1.000  C
  C91      1.0000 0.82710  0.48980  0.34056  Biso   1.000  C
  C92      1.0000 0.32710  0.98980  0.34056  Biso   1.000  C
  C93      1.0000 0.82710  0.51020  0.84056  Biso   1.000  C
  C94      1.0000 0.32710  0.01020  0.84056  Biso   1.000  C
  C95      1.0000 0.17290  0.51020  0.65944  Biso   1.000  C
  C96      1.0000 0.67290  0.01020  0.65944  Biso   1.000  C
  H49      1.0000 0.09660  0.47770  0.18760  Biso   1.000  H
  H50      1.0000 0.59660  0.97770  0.18760  Biso   1.000  H
  H51      1.0000 0.90340  0.47770  0.31240  Biso   1.000  H
  H52      1.0000 0.40340  0.97770  0.31240  Biso   1.000  H
  H53      1.0000 0.90340  0.52230  0.81240  Biso   1.000  H
  H54      1.0000 0.40340  0.02230  0.81240  Biso   1.000  H
  H55      1.0000 0.09660  0.52230  0.68760  Biso   1.000  H
  H56      1.0000 0.59660  0.02230  0.68760  Biso   1.000  H
  C97      1.0000 0.19940  0.58570  0.14165  Biso   1.000  C
  C98      1.0000 0.69940  0.08570  0.14165  Biso   1.000  C
  C99      1.0000 0.80060  0.58570  0.35835  Biso   1.000  C
  C100     1.0000 0.30060  0.08570  0.35835  Biso   1.000  C
  C101     1.0000 0.80060  0.41430  0.85835  Biso   1.000  C
  C102     1.0000 0.30060  0.91430  0.85835  Biso   1.000  C
  C103     1.0000 0.19940  0.41430  0.64165  Biso   1.000  C
  C104     1.0000 0.69940  0.91430  0.64165  Biso   1.000  C
  H57      1.0000 0.14320  0.63670  0.15800  Biso   1.000  H
  H58      1.0000 0.64320  0.13670  0.15800  Biso   1.000  H
  H59      1.0000 0.85680  0.63670  0.34200  Biso   1.000  H
  H60      1.0000 0.35680  0.13670  0.34200  Biso   1.000  H
  H61      1.0000 0.85680  0.36330  0.84200  Biso   1.000  H
  H62      1.0000 0.35680  0.86330  0.84200  Biso   1.000  H
  H63      1.0000 0.14320  0.36330  0.65800  Biso   1.000  H
  H64      1.0000 0.64320  0.86330  0.65800  Biso   1.000  H
  N1       1.0000 0.05760  0.28633  0.23794  Biso   1.000  N
  N2       1.0000 0.55760  0.78633  0.23794  Biso   1.000  N
  N3       1.0000 0.94240  0.28633  0.26206  Biso   1.000  N
  N4       1.0000 0.44240  0.78633  0.26206  Biso   1.000  N
  N5       1.0000 0.94240  0.71367  0.76206  Biso   1.000  N
  N6       1.0000 0.44240  0.21367  0.76206  Biso   1.000  N
  N7       1.0000 0.05760  0.71367  0.73794  Biso   1.000  N
  N8       1.0000 0.55760  0.21367  0.73794  Biso   1.000  N
  N9       1.0000 0.23800  0.14973  0.14142  Biso   1.000  N
  N10      1.0000 0.73800  0.64973  0.14142  Biso   1.000  N
  N11      1.0000 0.76200  0.14973  0.35858  Biso   1.000  N
  N12      1.0000 0.26200  0.64973  0.35858  Biso   1.000  N
  N13      1.0000 0.76200  0.85027  0.85858  Biso   1.000  N
  N14      1.0000 0.26200  0.35027  0.85858  Biso   1.000  N
  N15      1.0000 0.23800  0.85027  0.64142  Biso   1.000  N
  N16      1.0000 0.73800  0.35027  0.64142  Biso   1.000  N
  N17      1.0000 0.42910  0.83544  0.03289  Biso   1.000  N
  N18      1.0000 0.92910  0.33544  0.03289  Biso   1.000  N
  N19      1.0000 0.57090  0.83544  0.46711  Biso   1.000  N
  N20      1.0000 0.07090  0.33544  0.46711  Biso   1.000  N
  N21      1.0000 0.57090  0.16456  0.96711  Biso   1.000  N
  N22      1.0000 0.07090  0.66456  0.96711  Biso   1.000  N
  N23      1.0000 0.42910  0.16456  0.53289  Biso   1.000  N
  N24      1.0000 0.92910  0.66456  0.53289  Biso   1.000  N
  N25      1.0000 0.43260  0.73209  0.03309  Biso   1.000  N
  N26      1.0000 0.93260  0.23209  0.03309  Biso   1.000  N
  N27      1.0000 0.56740  0.73209  0.46691  Biso   1.000  N
  N28      1.0000 0.06740  0.23209  0.46691  Biso   1.000  N
  N29      1.0000 0.56740  0.26791  0.96691  Biso   1.000  N
  N30      1.0000 0.06740  0.76791  0.96691  Biso   1.000  N
  N31      1.0000 0.43260  0.26791  0.53309  Biso   1.000  N
  N32      1.0000 0.93260  0.76791  0.53309  Biso   1.000  N
  N33      1.0000 0.25060  0.41284  0.13862  Biso   1.000  N
  N34      1.0000 0.75060  0.91284  0.13862  Biso   1.000  N
  N35      1.0000 0.74940  0.41284  0.36138  Biso   1.000  N
  N36      1.0000 0.24940  0.91284  0.36138  Biso   1.000  N
  N37      1.0000 0.74940  0.58716  0.86138  Biso   1.000  N
  N38      1.0000 0.24940  0.08716  0.86138  Biso   1.000  N
  N39      1.0000 0.25060  0.58716  0.63862  Biso   1.000  N
  N40      1.0000 0.75060  0.08716  0.63862  Biso   1.000  N
  O1       1.0000 0.28140  0.78173  0.10899  Biso   1.000  O
  O2       1.0000 0.78140  0.28173  0.10899  Biso   1.000  O
  O3       1.0000 0.71860  0.78173  0.39101  Biso   1.000  O
  O4       1.0000 0.21860  0.28173  0.39101  Biso   1.000  O
  O5       1.0000 0.71860  0.21827  0.89101  Biso   1.000  O
  O6       1.0000 0.21860  0.71827  0.89101  Biso   1.000  O
  O7       1.0000 0.28140  0.21827  0.60899  Biso   1.000  O
  O8       1.0000 0.78140  0.71827  0.60899  Biso   1.000  O
