data_image0
_cell_length_a       14.1682
_cell_length_b       6.877
_cell_length_c       16.12
_cell_angle_alpha    90
_cell_angle_beta     111.482
_cell_angle_gamma    90

_symmetry_space_group_name_H-M    "P 1"
_symmetry_int_tables_number       1

loop_
  _symmetry_equiv_pos_as_xyz
  'x, y, z'

loop_
  _atom_site_label
  _atom_site_occupancy
  _atom_site_fract_x
  _atom_site_fract_y
  _atom_site_fract_z
  _atom_site_thermal_displace_type
  _atom_site_B_iso_or_equiv
  _atom_site_type_symbol
  Cu1      1.0000 0.49839  0.14647  0.12907  Biso   1.000  Cu
  Cu2      1.0000 0.00161  0.64647  0.37093  Biso   1.000  Cu
  Cu3      1.0000 0.50161  0.85353  0.87093  Biso   1.000  Cu
  Cu4      1.0000 0.99839  0.35353  0.62907  Biso   1.000  Cu
  Cu5      1.0000 0.41226  0.45232  0.16817  Biso   1.000  Cu
  Cu6      1.0000 0.08774  0.95232  0.33183  Biso   1.000  Cu
  Cu7      1.0000 0.58774  0.54768  0.83183  Biso   1.000  Cu
  Cu8      1.0000 0.91226  0.04768  0.66817  Biso   1.000  Cu
  Cu9      1.0000 0.22908  0.30569  0.84999  Biso   1.000  Cu
  Cu10     1.0000 0.27092  0.80569  0.65001  Biso   1.000  Cu
  Cu11     1.0000 0.77092  0.69431  0.15001  Biso   1.000  Cu
  Cu12     1.0000 0.72908  0.19431  0.34999  Biso   1.000  Cu
  C1       1.0000 0.33279  0.30870  0.96175  Biso   1.000  C
  C2       1.0000 0.16721  0.80870  0.53825  Biso   1.000  C
  C3       1.0000 0.66721  0.69130  0.03825  Biso   1.000  C
  C4       1.0000 0.83279  0.19130  0.46175  Biso   1.000  C
  C5       1.0000 0.46695  0.87680  0.14028  Biso   1.000  C
  C6       1.0000 0.03305  0.37680  0.35972  Biso   1.000  C
  C7       1.0000 0.53305  0.12320  0.85972  Biso   1.000  C
  C8       1.0000 0.96695  0.62320  0.64028  Biso   1.000  C
  C9       1.0000 0.18860  0.33930  0.09260  Biso   1.000  C
  C10      1.0000 0.31140  0.83930  0.40740  Biso   1.000  C
  C11      1.0000 0.81140  0.66070  0.90740  Biso   1.000  C
  C12      1.0000 0.68860  0.16070  0.59260  Biso   1.000  C
  H1       1.0000 0.18980  0.29210  0.03890  Biso   1.000  H
  H2       1.0000 0.31020  0.79210  0.46110  Biso   1.000  H
  H3       1.0000 0.81020  0.70790  0.96110  Biso   1.000  H
  H4       1.0000 0.68980  0.20790  0.53890  Biso   1.000  H
  C13      1.0000 0.13870  0.42220  0.19886  Biso   1.000  C
  C14      1.0000 0.36130  0.92220  0.30114  Biso   1.000  C
  C15      1.0000 0.86130  0.57780  0.80114  Biso   1.000  C
  C16      1.0000 0.63870  0.07780  0.69886  Biso   1.000  C
  H5       1.0000 0.09840  0.44230  0.23250  Biso   1.000  H
  H6       1.0000 0.40160  0.94230  0.26750  Biso   1.000  H
  H7       1.0000 0.90160  0.55770  0.76750  Biso   1.000  H
  H8       1.0000 0.59840  0.05770  0.73250  Biso   1.000  H
  C17      1.0000 0.00509  0.27800  0.06470  Biso   1.000  C
  C18      1.0000 0.49491  0.77800  0.43530  Biso   1.000  C
  C19      1.0000 0.99491  0.72200  0.93530  Biso   1.000  C
  C20      1.0000 0.50509  0.22200  0.56470  Biso   1.000  C
  C21      1.0000 0.97790  0.23500  0.97538  Biso   1.000  C
  C22      1.0000 0.52210  0.73500  0.52462  Biso   1.000  C
  C23      1.0000 0.02210  0.76500  0.02462  Biso   1.000  C
  C24      1.0000 0.47790  0.26500  0.47538  Biso   1.000  C
  H9       1.0000 0.02380  0.24750  0.94660  Biso   1.000  H
  H10      1.0000 0.47620  0.74750  0.55340  Biso   1.000  H
  H11      1.0000 0.97620  0.75250  0.05340  Biso   1.000  H
  H12      1.0000 0.52380  0.25250  0.44660  Biso   1.000  H
  C25      1.0000 0.87980  0.17280  0.93058  Biso   1.000  C
  C26      1.0000 0.62020  0.67280  0.56942  Biso   1.000  C
  C27      1.0000 0.12020  0.82720  0.06942  Biso   1.000  C
  C28      1.0000 0.37980  0.32720  0.43058  Biso   1.000  C
  H13      1.0000 0.85850  0.14070  0.87050  Biso   1.000  H
  H14      1.0000 0.64150  0.64070  0.62950  Biso   1.000  H
  H15      1.0000 0.14150  0.85930  0.12950  Biso   1.000  H
  H16      1.0000 0.35850  0.35930  0.37050  Biso   1.000  H
  C29      1.0000 0.81340  0.15810  0.97504  Biso   1.000  C
  C30      1.0000 0.68660  0.65810  0.52496  Biso   1.000  C
  C31      1.0000 0.18660  0.84190  0.02496  Biso   1.000  C
  C32      1.0000 0.31340  0.34190  0.47504  Biso   1.000  C
  H17      1.0000 0.74720  0.11500  0.94640  Biso   1.000  H
  H18      1.0000 0.75280  0.61500  0.55360  Biso   1.000  H
  H19      1.0000 0.25280  0.88500  0.05360  Biso   1.000  H
  H20      1.0000 0.24720  0.38500  0.44640  Biso   1.000  H
  C33      1.0000 0.84931  0.21010  0.06350  Biso   1.000  C
  C34      1.0000 0.65069  0.71010  0.43650  Biso   1.000  C
  C35      1.0000 0.15069  0.78990  0.93650  Biso   1.000  C
  C36      1.0000 0.34931  0.28990  0.56350  Biso   1.000  C
  C37      1.0000 0.81270  0.19440  0.20358  Biso   1.000  C
  C38      1.0000 0.68730  0.69440  0.29642  Biso   1.000  C
  C39      1.0000 0.18730  0.80560  0.79642  Biso   1.000  C
  C40      1.0000 0.31270  0.30560  0.70358  Biso   1.000  C
  H21      1.0000 0.87950  0.19490  0.24360  Biso   1.000  H
  H22      1.0000 0.62050  0.69490  0.25640  Biso   1.000  H
  H23      1.0000 0.12050  0.80510  0.75640  Biso   1.000  H
  H24      1.0000 0.37950  0.30510  0.74360  Biso   1.000  H
  C41      1.0000 0.68130  0.19940  0.08210  Biso   1.000  C
  C42      1.0000 0.81870  0.69940  0.41790  Biso   1.000  C
  C43      1.0000 0.31870  0.80060  0.91790  Biso   1.000  C
  C44      1.0000 0.18130  0.30060  0.58210  Biso   1.000  C
  H25      1.0000 0.64010  0.20340  0.02210  Biso   1.000  H
  H26      1.0000 0.85990  0.70340  0.47790  Biso   1.000  H
  H27      1.0000 0.35990  0.79660  0.97790  Biso   1.000  H
  H28      1.0000 0.14010  0.29660  0.52210  Biso   1.000  H
  C45      1.0000 0.51420  0.30940  0.26108  Biso   1.000  C
  C46      1.0000 0.98580  0.80940  0.23892  Biso   1.000  C
  C47      1.0000 0.48580  0.69060  0.73892  Biso   1.000  C
  C48      1.0000 0.01420  0.19060  0.76108  Biso   1.000  C
  N1       1.0000 0.39410  0.28720  0.03060  Biso   1.000  N
  N2       1.0000 0.10590  0.78720  0.46940  Biso   1.000  N
  N3       1.0000 0.60590  0.71280  0.96940  Biso   1.000  N
  N4       1.0000 0.89410  0.21280  0.53060  Biso   1.000  N
  N5       1.0000 0.44357  0.71830  0.14484  Biso   1.000  N
  N6       1.0000 0.05643  0.21830  0.35516  Biso   1.000  N
  N7       1.0000 0.55643  0.28170  0.85516  Biso   1.000  N
  N8       1.0000 0.94357  0.78170  0.64484  Biso   1.000  N
  N9       1.0000 0.26563  0.41390  0.15583  Biso   1.000  N
  N10      1.0000 0.23437  0.91390  0.34417  Biso   1.000  N
  N11      1.0000 0.73437  0.58610  0.84417  Biso   1.000  N
  N12      1.0000 0.76563  0.08610  0.65583  Biso   1.000  N
  N13      1.0000 0.23377  0.46830  0.22457  Biso   1.000  N
  N14      1.0000 0.26623  0.96830  0.27543  Biso   1.000  N
  N15      1.0000 0.76623  0.53170  0.77543  Biso   1.000  N
  N16      1.0000 0.73377  0.03170  0.72457  Biso   1.000  N
  N17      1.0000 0.10537  0.34020  0.11596  Biso   1.000  N
  N18      1.0000 0.39463  0.84020  0.38404  Biso   1.000  N
  N19      1.0000 0.89463  0.65980  0.88404  Biso   1.000  N
  N20      1.0000 0.60537  0.15980  0.61596  Biso   1.000  N
  N21      1.0000 0.94305  0.26890  0.10976  Biso   1.000  N
  N22      1.0000 0.55695  0.76890  0.39024  Biso   1.000  N
  N23      1.0000 0.05695  0.73110  0.89024  Biso   1.000  N
  N24      1.0000 0.44305  0.23110  0.60976  Biso   1.000  N
  N25      1.0000 0.73327  0.18500  0.22598  Biso   1.000  N
  N26      1.0000 0.76673  0.68500  0.27402  Biso   1.000  N
  N27      1.0000 0.26673  0.81500  0.77402  Biso   1.000  N
  N28      1.0000 0.23327  0.31500  0.72598  Biso   1.000  N
  N29      1.0000 0.64868  0.18910  0.14736  Biso   1.000  N
  N30      1.0000 0.85132  0.68910  0.35264  Biso   1.000  N
  N31      1.0000 0.35132  0.81090  0.85264  Biso   1.000  N
  N32      1.0000 0.14868  0.31090  0.64736  Biso   1.000  N
  N33      1.0000 0.78447  0.20330  0.11398  Biso   1.000  N
  N34      1.0000 0.71553  0.70330  0.38602  Biso   1.000  N
  N35      1.0000 0.21553  0.79670  0.88602  Biso   1.000  N
  N36      1.0000 0.28447  0.29670  0.61398  Biso   1.000  N
  N37      1.0000 0.58425  0.25030  0.31715  Biso   1.000  N
  N38      1.0000 0.91575  0.75030  0.18285  Biso   1.000  N
  N39      1.0000 0.41575  0.74970  0.68285  Biso   1.000  N
  N40      1.0000 0.08425  0.24970  0.81715  Biso   1.000  N
