data_image0
_cell_length_a       8.2739
_cell_length_b       15.584
_cell_length_c       20.704
_cell_angle_alpha    90
_cell_angle_beta     90
_cell_angle_gamma    90

_symmetry_space_group_name_H-M    "P 1"
_symmetry_int_tables_number       1

loop_
  _symmetry_equiv_pos_as_xyz
  'x, y, z'

loop_
  _atom_site_label
  _atom_site_occupancy
  _atom_site_fract_x
  _atom_site_fract_y
  _atom_site_fract_z
  _atom_site_thermal_displace_type
  _atom_site_B_iso_or_equiv
  _atom_site_type_symbol
  Cu1      1.0000 0.22407  0.85742  0.14307  Biso   1.000  Cu
  Cu2      1.0000 0.27593  0.14258  0.64307  Biso   1.000  Cu
  Cu3      1.0000 0.77593  0.35742  0.35693  Biso   1.000  Cu
  Cu4      1.0000 0.72407  0.64259  0.85693  Biso   1.000  Cu
  Cu5      1.0000 0.77593  0.14258  0.85693  Biso   1.000  Cu
  Cu6      1.0000 0.72407  0.85742  0.35693  Biso   1.000  Cu
  Cu7      1.0000 0.22407  0.64259  0.64307  Biso   1.000  Cu
  Cu8      1.0000 0.27593  0.35742  0.14307  Biso   1.000  Cu
  Cu9      1.0000 0.02117  0.13224  0.22887  Biso   1.000  Cu
  Cu10     1.0000 0.47883  0.86776  0.72887  Biso   1.000  Cu
  Cu11     1.0000 0.97883  0.63224  0.27113  Biso   1.000  Cu
  Cu12     1.0000 0.52117  0.36776  0.77113  Biso   1.000  Cu
  Cu13     1.0000 0.97883  0.86776  0.77113  Biso   1.000  Cu
  Cu14     1.0000 0.52117  0.13224  0.27113  Biso   1.000  Cu
  Cu15     1.0000 0.02117  0.36776  0.72887  Biso   1.000  Cu
  Cu16     1.0000 0.47883  0.63224  0.22887  Biso   1.000  Cu
  C1       1.0000 0.11920  0.82481  0.99916  Biso   1.000  C
  C2       1.0000 0.38080  0.17519  0.49916  Biso   1.000  C
  C3       1.0000 0.88080  0.32481  0.50084  Biso   1.000  C
  C4       1.0000 0.61920  0.67519  0.00084  Biso   1.000  C
  C5       1.0000 0.88080  0.17519  0.00084  Biso   1.000  C
  C6       1.0000 0.61920  0.82481  0.50084  Biso   1.000  C
  C7       1.0000 0.11920  0.67519  0.49916  Biso   1.000  C
  C8       1.0000 0.38080  0.32481  0.99916  Biso   1.000  C
  H1       1.0000 0.01730  0.81090  0.01490  Biso   1.000  H
  H2       1.0000 0.48270  0.18910  0.51490  Biso   1.000  H
  H3       1.0000 0.98270  0.31090  0.48510  Biso   1.000  H
  H4       1.0000 0.51730  0.68910  0.98510  Biso   1.000  H
  H5       1.0000 0.98270  0.18910  0.98510  Biso   1.000  H
  H6       1.0000 0.51730  0.81090  0.48510  Biso   1.000  H
  H7       1.0000 0.01730  0.68910  0.51490  Biso   1.000  H
  H8       1.0000 0.48270  0.31090  0.01490  Biso   1.000  H
  C9       1.0000 0.14400  0.82221  0.93267  Biso   1.000  C
  C10      1.0000 0.35600  0.17779  0.43267  Biso   1.000  C
  C11      1.0000 0.85600  0.32221  0.56733  Biso   1.000  C
  C12      1.0000 0.64400  0.67779  0.06733  Biso   1.000  C
  C13      1.0000 0.85600  0.17779  0.06733  Biso   1.000  C
  C14      1.0000 0.64400  0.82221  0.56733  Biso   1.000  C
  C15      1.0000 0.14400  0.67779  0.43267  Biso   1.000  C
  C16      1.0000 0.35600  0.32221  0.93267  Biso   1.000  C
  H9       1.0000 0.06080  0.80590  0.90510  Biso   1.000  H
  H10      1.0000 0.43920  0.19410  0.40510  Biso   1.000  H
  H11      1.0000 0.93920  0.30590  0.59490  Biso   1.000  H
  H12      1.0000 0.56080  0.69410  0.09490  Biso   1.000  H
  H13      1.0000 0.93920  0.19410  0.09490  Biso   1.000  H
  H14      1.0000 0.56080  0.80590  0.59490  Biso   1.000  H
  H15      1.0000 0.06080  0.69410  0.40510  Biso   1.000  H
  H16      1.0000 0.43920  0.30590  0.90510  Biso   1.000  H
  C17      1.0000 0.29170  0.84382  0.90851  Biso   1.000  C
  C18      1.0000 0.20830  0.15618  0.40851  Biso   1.000  C
  C19      1.0000 0.70830  0.34382  0.59149  Biso   1.000  C
  C20      1.0000 0.79170  0.65618  0.09149  Biso   1.000  C
  C21      1.0000 0.70830  0.15618  0.09149  Biso   1.000  C
  C22      1.0000 0.79170  0.84382  0.59149  Biso   1.000  C
  C23      1.0000 0.29170  0.65618  0.40851  Biso   1.000  C
  C24      1.0000 0.20830  0.34382  0.90851  Biso   1.000  C
  H17      1.0000 0.30950  0.84310  0.86420  Biso   1.000  H
  H18      1.0000 0.19050  0.15690  0.36420  Biso   1.000  H
  H19      1.0000 0.69050  0.34310  0.63580  Biso   1.000  H
  H20      1.0000 0.80950  0.65690  0.13580  Biso   1.000  H
  H21      1.0000 0.69050  0.15690  0.13580  Biso   1.000  H
  H22      1.0000 0.80950  0.84310  0.63580  Biso   1.000  H
  H23      1.0000 0.30950  0.65690  0.36420  Biso   1.000  H
  H24      1.0000 0.19050  0.34310  0.86420  Biso   1.000  H
  C25      1.0000 0.41680  0.86723  0.95071  Biso   1.000  C
  C26      1.0000 0.08320  0.13277  0.45071  Biso   1.000  C
  C27      1.0000 0.58320  0.36723  0.54929  Biso   1.000  C
  C28      1.0000 0.91680  0.63277  0.04929  Biso   1.000  C
  C29      1.0000 0.58320  0.13277  0.04929  Biso   1.000  C
  C30      1.0000 0.91680  0.86723  0.54929  Biso   1.000  C
  C31      1.0000 0.41680  0.63277  0.45071  Biso   1.000  C
  C32      1.0000 0.08320  0.36723  0.95071  Biso   1.000  C
  C33      1.0000 0.57430  0.89243  0.93041  Biso   1.000  C
  C34      1.0000 0.92570  0.10757  0.43041  Biso   1.000  C
  C35      1.0000 0.42570  0.39243  0.56959  Biso   1.000  C
  C36      1.0000 0.07430  0.60757  0.06959  Biso   1.000  C
  C37      1.0000 0.42570  0.10757  0.06959  Biso   1.000  C
  C38      1.0000 0.07430  0.89243  0.56959  Biso   1.000  C
  C39      1.0000 0.57430  0.60757  0.43041  Biso   1.000  C
  C40      1.0000 0.92570  0.39243  0.93041  Biso   1.000  C
  H25      1.0000 0.59760  0.89420  0.88650  Biso   1.000  H
  H26      1.0000 0.90240  0.10580  0.38650  Biso   1.000  H
  H27      1.0000 0.40240  0.39420  0.61350  Biso   1.000  H
  H28      1.0000 0.09760  0.60580  0.11350  Biso   1.000  H
  H29      1.0000 0.40240  0.10580  0.11350  Biso   1.000  H
  H30      1.0000 0.09760  0.89420  0.61350  Biso   1.000  H
  H31      1.0000 0.59760  0.60580  0.38650  Biso   1.000  H
  H32      1.0000 0.90240  0.39420  0.88650  Biso   1.000  H
  C41      1.0000 0.68970  0.91361  0.97285  Biso   1.000  C
  C42      1.0000 0.81030  0.08639  0.47285  Biso   1.000  C
  C43      1.0000 0.31030  0.41361  0.52715  Biso   1.000  C
  C44      1.0000 0.18970  0.58639  0.02715  Biso   1.000  C
  C45      1.0000 0.31030  0.08639  0.02715  Biso   1.000  C
  C46      1.0000 0.18970  0.91361  0.52715  Biso   1.000  C
  C47      1.0000 0.68970  0.58639  0.47285  Biso   1.000  C
  C48      1.0000 0.81030  0.41361  0.97285  Biso   1.000  C
  H33      1.0000 0.79060  0.93080  0.95790  Biso   1.000  H
  H34      1.0000 0.70940  0.06920  0.45790  Biso   1.000  H
  H35      1.0000 0.20940  0.43080  0.54210  Biso   1.000  H
  H36      1.0000 0.29060  0.56920  0.04210  Biso   1.000  H
  H37      1.0000 0.20940  0.06920  0.04210  Biso   1.000  H
  H38      1.0000 0.29060  0.93080  0.54210  Biso   1.000  H
  H39      1.0000 0.79060  0.56920  0.45790  Biso   1.000  H
  H40      1.0000 0.70940  0.43080  0.95790  Biso   1.000  H
  C49      1.0000 0.66030  0.91021  0.04090  Biso   1.000  C
  C50      1.0000 0.83970  0.08979  0.54090  Biso   1.000  C
  C51      1.0000 0.33970  0.41021  0.45910  Biso   1.000  C
  C52      1.0000 0.16030  0.58979  0.95910  Biso   1.000  C
  C53      1.0000 0.33970  0.08979  0.95910  Biso   1.000  C
  C54      1.0000 0.16030  0.91021  0.45910  Biso   1.000  C
  C55      1.0000 0.66030  0.58979  0.54090  Biso   1.000  C
  C56      1.0000 0.83970  0.41021  0.04090  Biso   1.000  C
  C57      1.0000 0.77690  0.92952  0.08805  Biso   1.000  C
  C58      1.0000 0.72310  0.07048  0.58805  Biso   1.000  C
  C59      1.0000 0.22310  0.42952  0.41195  Biso   1.000  C
  C60      1.0000 0.27690  0.57048  0.91195  Biso   1.000  C
  C61      1.0000 0.22310  0.07048  0.91195  Biso   1.000  C
  C62      1.0000 0.27690  0.92952  0.41195  Biso   1.000  C
  C63      1.0000 0.77690  0.57048  0.58805  Biso   1.000  C
  C64      1.0000 0.72310  0.42952  0.08805  Biso   1.000  C
  H41      1.0000 0.88050  0.94590  0.07580  Biso   1.000  H
  H42      1.0000 0.61950  0.05410  0.57580  Biso   1.000  H
  H43      1.0000 0.11950  0.44590  0.42420  Biso   1.000  H
  H44      1.0000 0.38050  0.55410  0.92420  Biso   1.000  H
  H45      1.0000 0.11950  0.05410  0.92420  Biso   1.000  H
  H46      1.0000 0.38050  0.94590  0.42420  Biso   1.000  H
  H47      1.0000 0.88050  0.55410  0.57580  Biso   1.000  H
  H48      1.0000 0.61950  0.44590  0.07580  Biso   1.000  H
  C65      1.0000 0.73770  0.92410  0.15149  Biso   1.000  C
  C66      1.0000 0.76230  0.07590  0.65149  Biso   1.000  C
  C67      1.0000 0.26230  0.42410  0.34851  Biso   1.000  C
  C68      1.0000 0.23770  0.57590  0.84851  Biso   1.000  C
  C69      1.0000 0.26230  0.07590  0.84851  Biso   1.000  C
  C70      1.0000 0.23770  0.92410  0.34851  Biso   1.000  C
  C71      1.0000 0.73770  0.57590  0.65149  Biso   1.000  C
  C72      1.0000 0.76230  0.42410  0.15149  Biso   1.000  C
  H49      1.0000 0.81420  0.93640  0.18310  Biso   1.000  H
  H50      1.0000 0.68580  0.06360  0.68310  Biso   1.000  H
  H51      1.0000 0.18580  0.43640  0.31690  Biso   1.000  H
  H52      1.0000 0.31420  0.56360  0.81690  Biso   1.000  H
  H53      1.0000 0.18580  0.06360  0.81690  Biso   1.000  H
  H54      1.0000 0.31420  0.93640  0.31690  Biso   1.000  H
  H55      1.0000 0.81420  0.56360  0.68310  Biso   1.000  H
  H56      1.0000 0.68580  0.43640  0.18310  Biso   1.000  H
  C73      1.0000 0.58120  0.89987  0.16891  Biso   1.000  C
  C74      1.0000 0.91880  0.10013  0.66891  Biso   1.000  C
  C75      1.0000 0.41880  0.39987  0.33109  Biso   1.000  C
  C76      1.0000 0.08120  0.60013  0.83109  Biso   1.000  C
  C77      1.0000 0.41880  0.10013  0.83109  Biso   1.000  C
  C78      1.0000 0.08120  0.89987  0.33109  Biso   1.000  C
  C79      1.0000 0.58120  0.60013  0.66891  Biso   1.000  C
  C80      1.0000 0.91880  0.39987  0.16891  Biso   1.000  C
  H57      1.0000 0.55580  0.89660  0.21260  Biso   1.000  H
  H58      1.0000 0.94420  0.10340  0.71260  Biso   1.000  H
  H59      1.0000 0.44420  0.39660  0.28740  Biso   1.000  H
  H60      1.0000 0.05580  0.60340  0.78740  Biso   1.000  H
  H61      1.0000 0.44420  0.10340  0.78740  Biso   1.000  H
  H62      1.0000 0.05580  0.89660  0.28740  Biso   1.000  H
  H63      1.0000 0.55580  0.60340  0.71260  Biso   1.000  H
  H64      1.0000 0.94420  0.39660  0.21260  Biso   1.000  H
  C81      1.0000 0.50640  0.88660  0.06284  Biso   1.000  C
  C82      1.0000 0.99360  0.11340  0.56284  Biso   1.000  C
  C83      1.0000 0.49360  0.38660  0.43716  Biso   1.000  C
  C84      1.0000 0.00640  0.61340  0.93716  Biso   1.000  C
  C85      1.0000 0.49360  0.11340  0.93716  Biso   1.000  C
  C86      1.0000 0.00640  0.88660  0.43716  Biso   1.000  C
  C87      1.0000 0.50640  0.61340  0.56284  Biso   1.000  C
  C88      1.0000 0.99360  0.38660  0.06284  Biso   1.000  C
  C89      1.0000 0.38160  0.86607  0.01705  Biso   1.000  C
  C90      1.0000 0.11840  0.13393  0.51705  Biso   1.000  C
  C91      1.0000 0.61840  0.36607  0.48295  Biso   1.000  C
  C92      1.0000 0.88160  0.63393  0.98295  Biso   1.000  C
  C93      1.0000 0.61840  0.13393  0.98295  Biso   1.000  C
  C94      1.0000 0.88160  0.86607  0.48295  Biso   1.000  C
  C95      1.0000 0.38160  0.63393  0.51705  Biso   1.000  C
  C96      1.0000 0.11840  0.36607  0.01705  Biso   1.000  C
  C97      1.0000 0.10550  0.03845  0.18759  Biso   1.000  C
  C98      1.0000 0.39450  0.96155  0.68759  Biso   1.000  C
  C99      1.0000 0.89450  0.53845  0.31241  Biso   1.000  C
  C100     1.0000 0.60550  0.46155  0.81241  Biso   1.000  C
  C101     1.0000 0.89450  0.96155  0.81241  Biso   1.000  C
  C102     1.0000 0.60550  0.03845  0.31241  Biso   1.000  C
  C103     1.0000 0.10550  0.46155  0.68759  Biso   1.000  C
  C104     1.0000 0.39450  0.53845  0.18759  Biso   1.000  C
  C105     1.0000 0.13800  0.76870  0.19380  Biso   1.000  C
  C106     1.0000 0.36200  0.23130  0.69380  Biso   1.000  C
  C107     1.0000 0.86200  0.26870  0.30620  Biso   1.000  C
  C108     1.0000 0.63800  0.73130  0.80620  Biso   1.000  C
  C109     1.0000 0.86200  0.23130  0.80620  Biso   1.000  C
  C110     1.0000 0.63800  0.76870  0.30620  Biso   1.000  C
  C111     1.0000 0.13800  0.73130  0.69380  Biso   1.000  C
  C112     1.0000 0.36200  0.26870  0.19380  Biso   1.000  C
  N1       1.0000 0.23330  0.84604  0.04111  Biso   1.000  N
  N2       1.0000 0.26670  0.15396  0.54111  Biso   1.000  N
  N3       1.0000 0.76670  0.34604  0.45889  Biso   1.000  N
  N4       1.0000 0.73330  0.65396  0.95889  Biso   1.000  N
  N5       1.0000 0.76670  0.15396  0.95889  Biso   1.000  N
  N6       1.0000 0.73330  0.84604  0.45889  Biso   1.000  N
  N7       1.0000 0.23330  0.65396  0.54111  Biso   1.000  N
  N8       1.0000 0.26670  0.34604  0.04111  Biso   1.000  N
  N9       1.0000 0.46740  0.88126  0.12633  Biso   1.000  N
  N10      1.0000 0.03260  0.11874  0.62633  Biso   1.000  N
  N11      1.0000 0.53260  0.38126  0.37367  Biso   1.000  N
  N12      1.0000 0.96740  0.61874  0.87367  Biso   1.000  N
  N13      1.0000 0.53260  0.11874  0.87367  Biso   1.000  N
  N14      1.0000 0.96740  0.88126  0.37367  Biso   1.000  N
  N15      1.0000 0.46740  0.61874  0.62633  Biso   1.000  N
  N16      1.0000 0.03260  0.38126  0.12633  Biso   1.000  N
  N17      1.0000 0.14930  0.97589  0.16498  Biso   1.000  N
  N18      1.0000 0.35070  0.02411  0.66498  Biso   1.000  N
  N19      1.0000 0.85070  0.47589  0.33502  Biso   1.000  N
  N20      1.0000 0.64930  0.52411  0.83502  Biso   1.000  N
  N21      1.0000 0.85070  0.02411  0.83502  Biso   1.000  N
  N22      1.0000 0.64930  0.97589  0.33502  Biso   1.000  N
  N23      1.0000 0.14930  0.52411  0.66498  Biso   1.000  N
  N24      1.0000 0.35070  0.47589  0.16498  Biso   1.000  N
  N25      1.0000 0.07820  0.71781  0.22556  Biso   1.000  N
  N26      1.0000 0.42180  0.28219  0.72556  Biso   1.000  N
  N27      1.0000 0.92180  0.21781  0.27444  Biso   1.000  N
  N28      1.0000 0.57820  0.78219  0.77444  Biso   1.000  N
  N29      1.0000 0.92180  0.28219  0.77444  Biso   1.000  N
  N30      1.0000 0.57820  0.71781  0.27444  Biso   1.000  N
  N31      1.0000 0.07820  0.78219  0.72556  Biso   1.000  N
  N32      1.0000 0.42180  0.21781  0.22556  Biso   1.000  N
