data_image0
_cell_length_a       11.41
_cell_length_b       13.446
_cell_length_c       19.377
_cell_angle_alpha    100.08
_cell_angle_beta     96.88
_cell_angle_gamma    107.19

_symmetry_space_group_name_H-M    "P 1"
_symmetry_int_tables_number       1

loop_
  _symmetry_equiv_pos_as_xyz
  'x, y, z'

loop_
  _atom_site_label
  _atom_site_occupancy
  _atom_site_fract_x
  _atom_site_fract_y
  _atom_site_fract_z
  _atom_site_thermal_displace_type
  _atom_site_B_iso_or_equiv
  _atom_site_type_symbol
  Cu1      1.0000 0.98121  0.16585  0.39724  Biso   1.000  Cu
  Cu2      1.0000 0.01879  0.83415  0.60276  Biso   1.000  Cu
  Cu3      1.0000 0.08603  0.17980  0.28093  Biso   1.000  Cu
  Cu4      1.0000 0.91397  0.82020  0.71907  Biso   1.000  Cu
  Cu5      1.0000 0.95200  0.51177  0.06035  Biso   1.000  Cu
  Cu6      1.0000 0.04800  0.48823  0.93965  Biso   1.000  Cu
  I1       1.0000 0.13874  0.05743  0.36535  Biso   1.000  I
  I2       1.0000 0.86126  0.94257  0.63465  Biso   1.000  I
  I3       1.0000 0.95090  0.30496  0.32153  Biso   1.000  I
  I4       1.0000 0.04910  0.69504  0.67847  Biso   1.000  I
  I5       1.0000 0.94272  0.63849  0.97272  Biso   1.000  I
  I6       1.0000 0.05728  0.36151  0.02728  Biso   1.000  I
  N1       1.0000 0.81200  0.04790  0.38310  Biso   1.000  N
  N2       1.0000 0.18800  0.95210  0.61690  Biso   1.000  N
  N3       1.0000 0.04790  0.59980  0.15910  Biso   1.000  N
  N4       1.0000 0.95210  0.40020  0.84090  Biso   1.000  N
  N5       1.0000 0.98910  0.08200  0.18540  Biso   1.000  N
  N6       1.0000 0.01090  0.91800  0.81460  Biso   1.000  N
  N7       1.0000 0.22770  0.56470  0.92820  Biso   1.000  N
  N8       1.0000 0.77230  0.43530  0.07180  Biso   1.000  N
  N9       1.0000 0.04310  0.23620  0.50380  Biso   1.000  N
  N10      1.0000 0.95690  0.76380  0.49620  Biso   1.000  N
  N11      1.0000 0.74960  0.70900  0.72410  Biso   1.000  N
  N12      1.0000 0.25040  0.29100  0.27590  Biso   1.000  N
  N13      1.0000 0.37640  0.29200  0.50360  Biso   1.000  N
  N14      1.0000 0.62360  0.70800  0.49640  Biso   1.000  N
  H1       1.0000 0.35890  0.34380  0.52920  Biso   1.000  H
  H2       1.0000 0.64110  0.65620  0.47080  Biso   1.000  H
  H3       1.0000 0.31810  0.23120  0.48540  Biso   1.000  H
  H4       1.0000 0.68190  0.76880  0.51460  Biso   1.000  H
  N15      1.0000 0.49990  0.14470  0.42020  Biso   1.000  N
  N16      1.0000 0.50010  0.85530  0.57980  Biso   1.000  N
  H5       1.0000 0.42220  0.10940  0.41940  Biso   1.000  H
  H6       1.0000 0.57780  0.89060  0.58060  Biso   1.000  H
  H7       1.0000 0.54600  0.11380  0.39790  Biso   1.000  H
  H8       1.0000 0.45400  0.88620  0.60210  Biso   1.000  H
  N17      1.0000 0.66500  0.08000  0.17240  Biso   1.000  N
  N18      1.0000 0.33500  0.92000  0.82760  Biso   1.000  N
  H9       1.0000 0.71120  0.06110  0.14360  Biso   1.000  H
  H10      1.0000 0.28880  0.93890  0.85640  Biso   1.000  H
  H11      1.0000 0.69870  0.12970  0.21080  Biso   1.000  H
  H12      1.0000 0.30130  0.87030  0.78920  Biso   1.000  H
  N19      1.0000 0.58970  0.17160  0.26100  Biso   1.000  N
  N20      1.0000 0.41030  0.82840  0.73900  Biso   1.000  N
  H13      1.0000 0.56410  0.20970  0.29320  Biso   1.000  H
  H14      1.0000 0.43590  0.79030  0.70680  Biso   1.000  H
  H15      1.0000 0.66890  0.18800  0.25930  Biso   1.000  H
  H16      1.0000 0.33110  0.81200  0.74070  Biso   1.000  H
  C1       1.0000 0.74850  0.99520  0.31790  Biso   1.000  C
  C2       1.0000 0.25150  0.00480  0.68210  Biso   1.000  C
  H17      1.0000 0.78450  0.01120  0.27840  Biso   1.000  H
  H18      1.0000 0.21550  0.98880  0.72160  Biso   1.000  H
  C3       1.0000 0.63260  0.91840  0.30590  Biso   1.000  C
  C4       1.0000 0.36740  0.08160  0.69410  Biso   1.000  C
  H19      1.0000 0.59130  0.88490  0.25890  Biso   1.000  H
  H20      1.0000 0.40870  0.11510  0.74110  Biso   1.000  H
  C5       1.0000 0.57690  0.89020  0.36180  Biso   1.000  C
  C6       1.0000 0.42310  0.10980  0.63820  Biso   1.000  C
  C7       1.0000 0.64370  0.94480  0.42910  Biso   1.000  C
  C8       1.0000 0.35630  0.05520  0.57090  Biso   1.000  C
  H21      1.0000 0.61040  0.92980  0.46960  Biso   1.000  H
  H22      1.0000 0.38960  0.07020  0.53040  Biso   1.000  H
  C9       1.0000 0.75780  0.02020  0.43700  Biso   1.000  C
  C10      1.0000 0.24220  0.97980  0.56300  Biso   1.000  C
  H23      1.0000 0.80080  0.05480  0.48350  Biso   1.000  H
  H24      1.0000 0.19920  0.94520  0.51650  Biso   1.000  H
  C11      1.0000 0.44930  0.80900  0.35150  Biso   1.000  C
  C12      1.0000 0.55070  0.19100  0.64850  Biso   1.000  C
  H25      1.0000 0.45440  0.75420  0.37800  Biso   1.000  H
  H26      1.0000 0.54560  0.24580  0.62200  Biso   1.000  H
  H27      1.0000 0.42160  0.77400  0.30080  Biso   1.000  H
  H28      1.0000 0.57840  0.22600  0.69920  Biso   1.000  H
  C13      1.0000 0.35460  0.85820  0.37630  Biso   1.000  C
  C14      1.0000 0.64540  0.14180  0.62370  Biso   1.000  C
  H29      1.0000 0.34470  0.90860  0.34690  Biso   1.000  H
  H30      1.0000 0.65530  0.09140  0.65310  Biso   1.000  H
  H31      1.0000 0.38640  0.89880  0.42560  Biso   1.000  H
  H32      1.0000 0.61360  0.10120  0.57440  Biso   1.000  H
  C15      1.0000 0.22740  0.77690  0.37250  Biso   1.000  C
  C16      1.0000 0.77260  0.22310  0.62750  Biso   1.000  C
  H33      1.0000 0.23720  0.72700  0.40220  Biso   1.000  H
  H34      1.0000 0.76280  0.27300  0.59780  Biso   1.000  H
  H35      1.0000 0.17300  0.81430  0.39250  Biso   1.000  H
  H36      1.0000 0.82700  0.18570  0.60750  Biso   1.000  H
  C17      1.0000 0.07260  0.70570  0.17890  Biso   1.000  C
  C18      1.0000 0.92740  0.29430  0.82110  Biso   1.000  C
  H37      1.0000 0.05030  0.74210  0.14490  Biso   1.000  H
  H38      1.0000 0.94970  0.25790  0.85510  Biso   1.000  H
  C19      1.0000 0.12960  0.76360  0.24740  Biso   1.000  C
  C20      1.0000 0.87040  0.23640  0.75260  Biso   1.000  C
  H39      1.0000 0.14400  0.83760  0.25880  Biso   1.000  H
  H40      1.0000 0.85600  0.16240  0.74120  Biso   1.000  H
  C21      1.0000 0.16530  0.71490  0.29870  Biso   1.000  C
  C22      1.0000 0.83470  0.28510  0.70130  Biso   1.000  C
  C23      1.0000 0.13860  0.60610  0.27820  Biso   1.000  C
  C24      1.0000 0.86140  0.39390  0.72180  Biso   1.000  C
  H41      1.0000 0.16000  0.56830  0.31140  Biso   1.000  H
  H42      1.0000 0.84000  0.43170  0.68860  Biso   1.000  H
  C25      1.0000 0.08040  0.55160  0.20930  Biso   1.000  C
  C26      1.0000 0.91960  0.44840  0.79070  Biso   1.000  C
  H43      1.0000 0.06300  0.47730  0.19730  Biso   1.000  H
  H44      1.0000 0.93700  0.52270  0.80270  Biso   1.000  H
  C27      1.0000 0.95270  0.12100  0.13180  Biso   1.000  C
  C28      1.0000 0.04730  0.87900  0.86820  Biso   1.000  C
  H45      1.0000 0.96790  0.19510  0.13990  Biso   1.000  H
  H46      1.0000 0.03210  0.80490  0.86010  Biso   1.000  H
  C29      1.0000 0.89420  0.06070  0.06480  Biso   1.000  C
  C30      1.0000 0.10580  0.93930  0.93520  Biso   1.000  C
  H47      1.0000 0.87190  0.09410  0.02890  Biso   1.000  H
  H48      1.0000 0.12810  0.90590  0.97110  Biso   1.000  H
  C31      1.0000 0.86860  0.95350  0.05040  Biso   1.000  C
  C32      1.0000 0.13140  0.04650  0.94960  Biso   1.000  C
  C33      1.0000 0.90350  0.91120  0.10610  Biso   1.000  C
  C34      1.0000 0.09650  0.08880  0.89390  Biso   1.000  C
  H49      1.0000 0.88600  0.83700  0.09940  Biso   1.000  H
  H50      1.0000 0.11400  0.16300  0.90060  Biso   1.000  H
  C35      1.0000 0.96440  0.97700  0.17200  Biso   1.000  C
  C36      1.0000 0.03560  0.02300  0.82800  Biso   1.000  C
  H51      1.0000 0.98910  0.94600  0.20860  Biso   1.000  H
  H52      1.0000 0.01090  0.05400  0.79140  Biso   1.000  H
  C37      1.0000 0.80110  0.88030  0.97870  Biso   1.000  C
  C38      1.0000 0.19890  0.11970  0.02130  Biso   1.000  C
  H53      1.0000 0.80270  0.92310  0.94250  Biso   1.000  H
  H54      1.0000 0.19730  0.07690  0.05750  Biso   1.000  H
  H55      1.0000 0.84530  0.82960  0.96510  Biso   1.000  H
  H56      1.0000 0.15470  0.17040  0.03490  Biso   1.000  H
  C39      1.0000 0.66660  0.81880  0.97990  Biso   1.000  C
  C40      1.0000 0.33340  0.18120  0.02010  Biso   1.000  C
  H57      1.0000 0.66430  0.78440  0.02050  Biso   1.000  H
  H58      1.0000 0.33570  0.21560  0.97950  Biso   1.000  H
  H59      1.0000 0.61960  0.86900  0.98660  Biso   1.000  H
  H60      1.0000 0.38040  0.13100  0.01340  Biso   1.000  H
  C41      1.0000 0.60460  0.73500  0.91250  Biso   1.000  C
  C42      1.0000 0.39540  0.26500  0.08750  Biso   1.000  C
  H61      1.0000 0.60450  0.76910  0.87180  Biso   1.000  H
  H62      1.0000 0.39550  0.23090  0.12820  Biso   1.000  H
  H63      1.0000 0.65210  0.68530  0.90510  Biso   1.000  H
  H64      1.0000 0.34790  0.31470  0.09490  Biso   1.000  H
  C43      1.0000 0.25760  0.65950  0.91280  Biso   1.000  C
  C44      1.0000 0.74240  0.34050  0.08720  Biso   1.000  C
  H65      1.0000 0.19410  0.69000  0.90550  Biso   1.000  H
  H66      1.0000 0.80590  0.31000  0.09450  Biso   1.000  H
  C45      1.0000 0.37620  0.71640  0.90680  Biso   1.000  C
  C46      1.0000 0.62380  0.28360  0.09320  Biso   1.000  C
  H67      1.0000 0.39190  0.78410  0.89610  Biso   1.000  H
  H68      1.0000 0.60810  0.21590  0.10390  Biso   1.000  H
  C47      1.0000 0.47320  0.67450  0.91650  Biso   1.000  C
  C48      1.0000 0.52680  0.32550  0.08350  Biso   1.000  C
  C49      1.0000 0.44100  0.57530  0.93190  Biso   1.000  C
  C50      1.0000 0.55900  0.42470  0.06810  Biso   1.000  C
  H69      1.0000 0.50240  0.54270  0.93930  Biso   1.000  H
  H70      1.0000 0.49760  0.45730  0.06070  Biso   1.000  H
  C51      1.0000 0.31990  0.52280  0.93670  Biso   1.000  C
  C52      1.0000 0.68010  0.47720  0.06330  Biso   1.000  C
  H71      1.0000 0.30100  0.45430  0.94640  Biso   1.000  H
  H72      1.0000 0.69900  0.54570  0.05360  Biso   1.000  H
  C53      1.0000 0.08070  0.18320  0.54910  Biso   1.000  C
  C54      1.0000 0.91930  0.81680  0.45090  Biso   1.000  C
  H73      1.0000 0.07600  0.11210  0.53180  Biso   1.000  H
  H74      1.0000 0.92400  0.88790  0.46820  Biso   1.000  H
  C55      1.0000 0.12650  0.22910  0.62070  Biso   1.000  C
  C56      1.0000 0.87350  0.77090  0.37930  Biso   1.000  C
  H75      1.0000 0.15260  0.18860  0.65050  Biso   1.000  H
  H76      1.0000 0.84740  0.81140  0.34950  Biso   1.000  H
  C57      1.0000 0.13480  0.33120  0.64880  Biso   1.000  C
  C58      1.0000 0.86520  0.66880  0.35120  Biso   1.000  C
  C59      1.0000 0.09300  0.38480  0.60120  Biso   1.000  C
  C60      1.0000 0.90700  0.61520  0.39880  Biso   1.000  C
  H77      1.0000 0.09550  0.45560  0.61760  Biso   1.000  H
  H78      1.0000 0.90450  0.54440  0.38240  Biso   1.000  H
  C61      1.0000 0.04790  0.33620  0.53030  Biso   1.000  C
  C62      1.0000 0.95210  0.66380  0.46970  Biso   1.000  C
  H79      1.0000 0.01960  0.37460  0.49960  Biso   1.000  H
  H80      1.0000 0.98040  0.62540  0.50040  Biso   1.000  H
  C63      1.0000 0.18850  0.38520  0.72560  Biso   1.000  C
  C64      1.0000 0.81150  0.61480  0.27440  Biso   1.000  C
  H81      1.0000 0.20670  0.33320  0.75120  Biso   1.000  H
  H82      1.0000 0.79330  0.66680  0.24880  Biso   1.000  H
  H83      1.0000 0.12670  0.41110  0.74740  Biso   1.000  H
  H84      1.0000 0.87330  0.58890  0.25260  Biso   1.000  H
  C65      1.0000 0.30950  0.48010  0.73330  Biso   1.000  C
  C66      1.0000 0.69050  0.51990  0.26670  Biso   1.000  C
  H85      1.0000 0.29150  0.53090  0.70650  Biso   1.000  H
  H86      1.0000 0.70850  0.46910  0.29350  Biso   1.000  H
  H87      1.0000 0.33720  0.51710  0.78360  Biso   1.000  H
  H88      1.0000 0.66280  0.48290  0.21640  Biso   1.000  H
  C67      1.0000 0.41290  0.44530  0.70690  Biso   1.000  C
  C68      1.0000 0.58710  0.55470  0.29310  Biso   1.000  C
  H89      1.0000 0.43090  0.39460  0.73380  Biso   1.000  H
  H90      1.0000 0.56910  0.60540  0.26620  Biso   1.000  H
  H91      1.0000 0.38500  0.40820  0.65660  Biso   1.000  H
  H92      1.0000 0.61500  0.59180  0.34340  Biso   1.000  H
  C69      1.0000 0.64380  0.69510  0.68100  Biso   1.000  C
  C70      1.0000 0.35620  0.30490  0.31900  Biso   1.000  C
  H93      1.0000 0.64240  0.74540  0.65300  Biso   1.000  H
  H94      1.0000 0.35760  0.25460  0.34700  Biso   1.000  H
  C71      1.0000 0.53570  0.61140  0.67480  Biso   1.000  C
  C72      1.0000 0.46430  0.38860  0.32520  Biso   1.000  C
  H95      1.0000 0.46440  0.60590  0.64260  Biso   1.000  H
  H96      1.0000 0.53560  0.39410  0.35740  Biso   1.000  H
  C73      1.0000 0.53060  0.53700  0.71410  Biso   1.000  C
  C74      1.0000 0.46940  0.46300  0.28590  Biso   1.000  C
  C75      1.0000 0.63800  0.55050  0.75910  Biso   1.000  C
  C76      1.0000 0.36200  0.44950  0.24090  Biso   1.000  C
  H97      1.0000 0.64040  0.50120  0.78760  Biso   1.000  H
  H98      1.0000 0.35960  0.49880  0.21240  Biso   1.000  H
  C77      1.0000 0.74400  0.63680  0.76310  Biso   1.000  C
  C78      1.0000 0.25600  0.36320  0.23690  Biso   1.000  C
  H99      1.0000 0.81610  0.64420  0.79540  Biso   1.000  H
  H100     1.0000 0.18390  0.35580  0.20460  Biso   1.000  H
  C79      1.0000 0.49270  0.30560  0.49240  Biso   1.000  C
  C80      1.0000 0.50730  0.69440  0.50760  Biso   1.000  C
  C81      1.0000 0.56570  0.40620  0.52600  Biso   1.000  C
  C82      1.0000 0.43430  0.59380  0.47400  Biso   1.000  C
  H101     1.0000 0.52800  0.44830  0.55350  Biso   1.000  H
  H102     1.0000 0.47200  0.55170  0.44650  Biso   1.000  H
  C83      1.0000 0.68500  0.45070  0.52380  Biso   1.000  C
  C84      1.0000 0.31500  0.54930  0.47620  Biso   1.000  C
  H103     1.0000 0.73020  0.52140  0.54780  Biso   1.000  H
  H104     1.0000 0.26980  0.47860  0.45220  Biso   1.000  H
  C85      1.0000 0.73790  0.38750  0.48440  Biso   1.000  C
  C86      1.0000 0.26210  0.61250  0.51560  Biso   1.000  C
  H105     1.0000 0.82260  0.41600  0.48180  Biso   1.000  H
  H106     1.0000 0.17740  0.58400  0.51820  Biso   1.000  H
  C87      1.0000 0.67400  0.28410  0.44840  Biso   1.000  C
  C88      1.0000 0.32600  0.71590  0.55160  Biso   1.000  C
  H107     1.0000 0.71330  0.24320  0.42120  Biso   1.000  H
  H108     1.0000 0.28670  0.75680  0.57880  Biso   1.000  H
  C89      1.0000 0.54590  0.24090  0.45380  Biso   1.000  C
  C90      1.0000 0.45410  0.75910  0.54620  Biso   1.000  C
  C91      1.0000 0.55620  0.03780  0.15940  Biso   1.000  C
  C92      1.0000 0.44380  0.96220  0.84060  Biso   1.000  C
  C93      1.0000 0.47500  0.95840  0.10490  Biso   1.000  C
  C94      1.0000 0.52500  0.04160  0.89510  Biso   1.000  C
  H109     1.0000 0.50780  0.92380  0.06950  Biso   1.000  H
  H110     1.0000 0.49220  0.07620  0.93050  Biso   1.000  H
  C95      1.0000 0.35400  0.92910  0.10050  Biso   1.000  C
  C96      1.0000 0.64600  0.07090  0.89950  Biso   1.000  C
  H111     1.0000 0.30140  0.87880  0.06050  Biso   1.000  H
  H112     1.0000 0.69860  0.12120  0.93950  Biso   1.000  H
  C97      1.0000 0.30510  0.97000  0.15180  Biso   1.000  C
  C98      1.0000 0.69490  0.03000  0.84820  Biso   1.000  C
  H113     1.0000 0.21850  0.94520  0.15030  Biso   1.000  H
  H114     1.0000 0.78150  0.05480  0.84970  Biso   1.000  H
  C99      1.0000 0.38040  0.04820  0.20730  Biso   1.000  C
  C100     1.0000 0.61960  0.95180  0.79270  Biso   1.000  C
  H115     1.0000 0.34390  0.07750  0.24320  Biso   1.000  H
  H116     1.0000 0.65610  0.92250  0.75680  Biso   1.000  H
  C101     1.0000 0.50520  0.08540  0.21280  Biso   1.000  C
  C102     1.0000 0.49480  0.91460  0.78720  Biso   1.000  C
  N21      1.0000 0.57730  0.69650  0.13730  Biso   1.000  N
  N22      1.0000 0.42270  0.30350  0.86270  Biso   1.000  N
  C103     1.0000 0.47280  0.68310  0.12800  Biso   1.000  C
  C104     1.0000 0.52720  0.31690  0.87200  Biso   1.000  C
  C105     1.0000 0.34060  0.66290  0.11760  Biso   1.000  C
  C106     1.0000 0.65940  0.33710  0.88240  Biso   1.000  C
  H117     1.0000 0.29790  0.58650  0.10590  Biso   1.000  H
  H118     1.0000 0.70210  0.41350  0.89410  Biso   1.000  H
  H119     1.0000 0.31580  0.69370  0.07890  Biso   1.000  H
  H120     1.0000 0.68420  0.30630  0.92110  Biso   1.000  H
  H121     1.0000 0.31870  0.69480  0.16100  Biso   1.000  H
  H122     1.0000 0.68130  0.30520  0.83900  Biso   1.000  H
