data_image0
_cell_length_a       10.162
_cell_length_b       11.792
_cell_length_c       17.655
_cell_angle_alpha    88.18
_cell_angle_beta     88.21
_cell_angle_gamma    65

_symmetry_space_group_name_H-M    "P 1"
_symmetry_int_tables_number       1

loop_
  _symmetry_equiv_pos_as_xyz
  'x, y, z'

loop_
  _atom_site_label
  _atom_site_occupancy
  _atom_site_fract_x
  _atom_site_fract_y
  _atom_site_fract_z
  _atom_site_thermal_displace_type
  _atom_site_B_iso_or_equiv
  _atom_site_type_symbol
  Cu1      1.0000 0.48026  0.45623  0.31383  Biso   1.000  Cu
  Cu2      1.0000 0.51974  0.54377  0.68617  Biso   1.000  Cu
  Cu3      1.0000 0.59177  0.54026  0.19072  Biso   1.000  Cu
  Cu4      1.0000 0.40823  0.45974  0.80928  Biso   1.000  Cu
  I1       1.0000 0.64166  0.58218  0.33129  Biso   1.000  I
  I2       1.0000 0.35834  0.41782  0.66871  Biso   1.000  I
  I3       1.0000 0.43310  0.41610  0.17141  Biso   1.000  I
  I4       1.0000 0.56690  0.58390  0.82859  Biso   1.000  I
  N1       1.0000 0.59680  0.28790  0.36930  Biso   1.000  N
  N2       1.0000 0.40320  0.71210  0.63070  Biso   1.000  N
  N3       1.0000 0.28640  0.53950  0.37310  Biso   1.000  N
  N4       1.0000 0.71360  0.46050  0.62690  Biso   1.000  N
  N5       1.0000 0.48730  0.70960  0.13300  Biso   1.000  N
  N6       1.0000 0.51270  0.29040  0.86700  Biso   1.000  N
  N7       1.0000 0.78670  0.45140  0.13320  Biso   1.000  N
  N8       1.0000 0.21330  0.54860  0.86680  Biso   1.000  N
  N9       1.0000 0.23290  0.86080  0.32610  Biso   1.000  N
  N10      1.0000 0.76710  0.13920  0.67390  Biso   1.000  N
  H1       1.0000 0.29880  0.79320  0.34490  Biso   1.000  H
  H2       1.0000 0.70120  0.20680  0.65510  Biso   1.000  H
  H3       1.0000 0.15100  0.86260  0.31350  Biso   1.000  H
  H4       1.0000 0.84900  0.13740  0.68650  Biso   1.000  H
  N11      1.0000 0.82900  0.13830  0.14640  Biso   1.000  N
  N12      1.0000 0.17100  0.86170  0.85360  Biso   1.000  N
  H5       1.0000 0.74300  0.19610  0.15250  Biso   1.000  H
  H6       1.0000 0.25700  0.80390  0.84750  Biso   1.000  H
  H7       1.0000 0.89780  0.15710  0.12880  Biso   1.000  H
  H8       1.0000 0.10220  0.84290  0.87120  Biso   1.000  H
  C1       1.0000 0.72450  0.20850  0.34180  Biso   1.000  C
  C2       1.0000 0.27550  0.79150  0.65820  Biso   1.000  C
  H9       1.0000 0.76000  0.23080  0.29730  Biso   1.000  H
  H10      1.0000 0.24000  0.76920  0.70270  Biso   1.000  H
  C3       1.0000 0.80790  0.09370  0.37620  Biso   1.000  C
  C4       1.0000 0.19210  0.90630  0.62380  Biso   1.000  C
  H11      1.0000 0.89600  0.04090  0.35400  Biso   1.000  H
  H12      1.0000 0.10400  0.95910  0.64600  Biso   1.000  H
  C5       1.0000 0.76220  0.05780  0.44170  Biso   1.000  C
  C6       1.0000 0.23780  0.94220  0.55830  Biso   1.000  C
  C7       1.0000 0.63250  0.14130  0.47160  Biso   1.000  C
  C8       1.0000 0.36750  0.85870  0.52840  Biso   1.000  C
  H13      1.0000 0.59640  0.12320  0.51720  Biso   1.000  H
  H14      1.0000 0.40360  0.87680  0.48280  Biso   1.000  H
  C9       1.0000 0.55720  0.25140  0.43360  Biso   1.000  C
  C10      1.0000 0.44280  0.74860  0.56640  Biso   1.000  C
  H15      1.0000 0.46940  0.30580  0.45520  Biso   1.000  H
  H16      1.0000 0.53060  0.69420  0.54480  Biso   1.000  H
  C11      1.0000 0.85150  0.92980  0.47860  Biso   1.000  C
  C12      1.0000 0.14850  0.07020  0.52140  Biso   1.000  C
  H17      1.0000 0.94940  0.89650  0.45730  Biso   1.000  H
  H18      1.0000 0.05060  0.10350  0.54270  Biso   1.000  H
  H19      1.0000 0.85770  0.94010  0.53250  Biso   1.000  H
  H20      1.0000 0.14230  0.05990  0.46750  Biso   1.000  H
  C13      1.0000 0.78710  0.83730  0.46730  Biso   1.000  C
  C14      1.0000 0.21290  0.16270  0.53270  Biso   1.000  C
  H21      1.0000 0.77370  0.83210  0.41360  Biso   1.000  H
  H22      1.0000 0.22630  0.16790  0.58640  Biso   1.000  H
  H23      1.0000 0.69230  0.86760  0.49220  Biso   1.000  H
  H24      1.0000 0.30770  0.13240  0.50780  Biso   1.000  H
  C15      1.0000 0.88160  0.70730  0.49850  Biso   1.000  C
  C16      1.0000 0.11840  0.29270  0.50150  Biso   1.000  C
  H25      1.0000 0.89940  0.71320  0.55160  Biso   1.000  H
  H26      1.0000 0.10060  0.28680  0.44840  Biso   1.000  H
  H27      1.0000 0.82960  0.65500  0.49540  Biso   1.000  H
  H28      1.0000 0.17040  0.34500  0.50460  Biso   1.000  H
  C17      1.0000 0.27890  0.58630  0.44130  Biso   1.000  C
  C18      1.0000 0.72110  0.41370  0.55870  Biso   1.000  C
  H29      1.0000 0.36350  0.58370  0.46160  Biso   1.000  H
  H30      1.0000 0.63650  0.41630  0.53840  Biso   1.000  H
  C19      1.0000 0.15130  0.63880  0.48360  Biso   1.000  C
  C20      1.0000 0.84870  0.36120  0.51640  Biso   1.000  C
  H31      1.0000 0.15230  0.66970  0.53130  Biso   1.000  H
  H32      1.0000 0.84770  0.33030  0.46870  Biso   1.000  H
  C21      1.0000 0.02540  0.64570  0.45650  Biso   1.000  C
  C22      1.0000 0.97460  0.35430  0.54350  Biso   1.000  C
  C23      1.0000 0.03310  0.59380  0.38780  Biso   1.000  C
  C24      1.0000 0.96690  0.40620  0.61220  Biso   1.000  C
  H33      1.0000 0.95060  0.59180  0.36760  Biso   1.000  H
  H34      1.0000 0.04940  0.40820  0.63240  Biso   1.000  H
  C25      1.0000 0.16350  0.54410  0.34840  Biso   1.000  C
  C26      1.0000 0.83650  0.45590  0.65160  Biso   1.000  C
  H35      1.0000 0.16480  0.51150  0.30100  Biso   1.000  H
  H36      1.0000 0.83520  0.48850  0.69900  Biso   1.000  H
  C27      1.0000 0.46930  0.81620  0.16430  Biso   1.000  C
  C28      1.0000 0.53070  0.18380  0.83570  Biso   1.000  C
  H37      1.0000 0.51050  0.81210  0.21120  Biso   1.000  H
  H38      1.0000 0.48950  0.18790  0.78880  Biso   1.000  H
  C29      1.0000 0.39400  0.93130  0.13180  Biso   1.000  C
  C30      1.0000 0.60600  0.06870  0.86820  Biso   1.000  C
  H39      1.0000 0.38710  0.00230  0.15630  Biso   1.000  H
  H40      1.0000 0.61290  0.99770  0.84370  Biso   1.000  H
  C31      1.0000 0.32890  0.94370  0.06400  Biso   1.000  C
  C32      1.0000 0.67110  0.05630  0.93600  Biso   1.000  C
  C33      1.0000 0.35210  0.83550  0.03130  Biso   1.000  C
  C34      1.0000 0.64790  0.16450  0.96870  Biso   1.000  C
  H41      1.0000 0.31450  0.83730  0.98370  Biso   1.000  H
  H42      1.0000 0.68550  0.16270  0.01630  Biso   1.000  H
  C35      1.0000 0.43050  0.72190  0.06660  Biso   1.000  C
  C36      1.0000 0.56950  0.27810  0.93340  Biso   1.000  C
  H43      1.0000 0.44360  0.64960  0.04150  Biso   1.000  H
  H44      1.0000 0.55640  0.35040  0.95850  Biso   1.000  H
  C37      1.0000 0.23760  0.07060  0.02700  Biso   1.000  C
  C38      1.0000 0.76240  0.92940  0.97300  Biso   1.000  C
  H45      1.0000 0.23180  0.05870  0.97330  Biso   1.000  H
  H46      1.0000 0.76820  0.94130  0.02670  Biso   1.000  H
  H47      1.0000 0.13980  0.10140  0.04830  Biso   1.000  H
  H48      1.0000 0.86020  0.89860  0.95170  Biso   1.000  H
  C39      1.0000 0.29220  0.16830  0.03600  Biso   1.000  C
  C40      1.0000 0.70780  0.83170  0.96400  Biso   1.000  C
  H49      1.0000 0.38680  0.14180  0.01120  Biso   1.000  H
  H50      1.0000 0.61320  0.85820  0.98880  Biso   1.000  H
  H51      1.0000 0.30370  0.17790  0.08940  Biso   1.000  H
  H52      1.0000 0.69630  0.82210  0.91060  Biso   1.000  H
  C41      1.0000 0.18780  0.29500  0.00170  Biso   1.000  C
  C42      1.0000 0.81220  0.70500  0.99830  Biso   1.000  C
  H53      1.0000 0.23380  0.35220  0.00100  Biso   1.000  H
  H54      1.0000 0.76620  0.64780  0.99900  Biso   1.000  H
  H55      1.0000 0.16850  0.28340  0.94970  Biso   1.000  H
  H56      1.0000 0.83150  0.71660  0.05030  Biso   1.000  H
  C43      1.0000 0.79510  0.40150  0.06620  Biso   1.000  C
  C44      1.0000 0.20490  0.59850  0.93380  Biso   1.000  C
  H57      1.0000 0.71140  0.39860  0.04830  Biso   1.000  H
  H58      1.0000 0.28860  0.60140  0.95170  Biso   1.000  H
  C45      1.0000 0.91760  0.35380  0.02130  Biso   1.000  C
  C46      1.0000 0.08240  0.64620  0.97870  Biso   1.000  C
  H59      1.0000 0.91450  0.32250  0.97400  Biso   1.000  H
  H60      1.0000 0.08550  0.67750  0.02600  Biso   1.000  H
  C47      1.0000 0.04530  0.35220  0.04600  Biso   1.000  C
  C48      1.0000 0.95470  0.64780  0.95400  Biso   1.000  C
  C49      1.0000 0.03770  0.40530  0.11440  Biso   1.000  C
  C50      1.0000 0.96230  0.59470  0.88560  Biso   1.000  C
  H61      1.0000 0.12010  0.40900  0.13340  Biso   1.000  H
  H62      1.0000 0.87990  0.59100  0.86660  Biso   1.000  H
  C51      1.0000 0.90960  0.45330  0.15560  Biso   1.000  C
  C52      1.0000 0.09040  0.54670  0.84440  Biso   1.000  C
  H63      1.0000 0.90880  0.48940  0.20180  Biso   1.000  H
  H64      1.0000 0.09120  0.51060  0.79820  Biso   1.000  H
  C53      1.0000 0.25880  0.96700  0.31620  Biso   1.000  C
  C54      1.0000 0.74120  0.03300  0.68380  Biso   1.000  C
  C55      1.0000 0.38690  0.96940  0.33530  Biso   1.000  C
  C56      1.0000 0.61310  0.03060  0.66470  Biso   1.000  C
  H65      1.0000 0.46170  0.89730  0.35430  Biso   1.000  H
  H66      1.0000 0.53830  0.10270  0.64570  Biso   1.000  H
  C57      1.0000 0.40550  0.07470  0.32690  Biso   1.000  C
  C58      1.0000 0.59450  0.92530  0.67310  Biso   1.000  C
  H67      1.0000 0.49390  0.07380  0.33990  Biso   1.000  H
  H68      1.0000 0.50610  0.92620  0.66010  Biso   1.000  H
  C59      1.0000 0.30200  0.18110  0.30050  Biso   1.000  C
  C60      1.0000 0.69800  0.81890  0.69950  Biso   1.000  C
  H69      1.0000 0.31860  0.25260  0.29530  Biso   1.000  H
  H70      1.0000 0.68140  0.74740  0.70470  Biso   1.000  H
  C61      1.0000 0.17380  0.18550  0.28150  Biso   1.000  C
  C62      1.0000 0.82620  0.81450  0.71850  Biso   1.000  C
  H71      1.0000 0.10180  0.25970  0.26290  Biso   1.000  H
  H72      1.0000 0.89820  0.74030  0.73710  Biso   1.000  H
  C63      1.0000 0.14830  0.07890  0.28950  Biso   1.000  C
  C64      1.0000 0.85170  0.92110  0.71050  Biso   1.000  C
  H73      1.0000 0.05860  0.08170  0.27720  Biso   1.000  H
  H74      1.0000 0.94140  0.91830  0.72280  Biso   1.000  H
  C65      1.0000 0.85710  0.02110  0.16390  Biso   1.000  C
  C66      1.0000 0.14290  0.97890  0.83610  Biso   1.000  C
  C67      1.0000 0.99750  0.92960  0.15540  Biso   1.000  C
  C68      1.0000 0.00250  0.07040  0.84460  Biso   1.000  C
  H75      1.0000 0.06940  0.95040  0.13410  Biso   1.000  H
  H76      1.0000 0.93060  0.04960  0.86590  Biso   1.000  H
  C69      1.0000 0.03200  0.80530  0.17900  Biso   1.000  C
  C70      1.0000 0.96800  0.19470  0.82100  Biso   1.000  C
  H77      1.0000 0.12570  0.74220  0.17540  Biso   1.000  H
  H78      1.0000 0.87430  0.25780  0.82460  Biso   1.000  H
  C71      1.0000 0.91700  0.78380  0.20750  Biso   1.000  C
  C72      1.0000 0.08300  0.21620  0.79250  Biso   1.000  C
  H79      1.0000 0.93240  0.70310  0.22300  Biso   1.000  H
  H80      1.0000 0.06760  0.29690  0.77700  Biso   1.000  H
  C73      1.0000 0.78200  0.87700  0.21360  Biso   1.000  C
  C74      1.0000 0.21800  0.12300  0.78640  Biso   1.000  C
  H81      1.0000 0.70870  0.85740  0.23450  Biso   1.000  H
  H82      1.0000 0.29130  0.14260  0.76550  Biso   1.000  H
  C75      1.0000 0.74380  0.00080  0.19090  Biso   1.000  C
  C76      1.0000 0.25620  0.99920  0.80910  Biso   1.000  C
  H83      1.0000 0.64950  0.06310  0.19410  Biso   1.000  H
  H84      1.0000 0.35050  0.93690  0.80590  Biso   1.000  H
