data_image0
_cell_length_a       14.977
_cell_length_b       9.356
_cell_length_c       17.065
_cell_angle_alpha    90
_cell_angle_beta     111.532
_cell_angle_gamma    90

_symmetry_space_group_name_H-M    "P 1"
_symmetry_int_tables_number       1

loop_
  _symmetry_equiv_pos_as_xyz
  'x, y, z'

loop_
  _atom_site_label
  _atom_site_occupancy
  _atom_site_fract_x
  _atom_site_fract_y
  _atom_site_fract_z
  _atom_site_thermal_displace_type
  _atom_site_B_iso_or_equiv
  _atom_site_type_symbol
  Cu1      1.0000 0.67204  0.70063  0.09388  Biso   1.000  Cu
  Cu2      1.0000 0.82796  0.20063  0.40612  Biso   1.000  Cu
  Cu3      1.0000 0.32796  0.29937  0.90612  Biso   1.000  Cu
  Cu4      1.0000 0.17204  0.79937  0.59388  Biso   1.000  Cu
  Cu5      1.0000 0.55362  0.88679  0.37748  Biso   1.000  Cu
  Cu6      1.0000 0.94638  0.38679  0.12252  Biso   1.000  Cu
  Cu7      1.0000 0.44638  0.11321  0.62252  Biso   1.000  Cu
  Cu8      1.0000 0.05362  0.61321  0.87748  Biso   1.000  Cu
  S1       1.0000 0.47550  0.72280  0.25900  Biso   1.000  S
  S2       1.0000 0.02450  0.22280  0.24100  Biso   1.000  S
  S3       1.0000 0.52450  0.27720  0.74100  Biso   1.000  S
  S4       1.0000 0.97550  0.77720  0.75900  Biso   1.000  S
  S5       1.0000 0.00360  0.20900  0.22450  Biso   1.000  S
  S6       1.0000 0.49640  0.70900  0.27550  Biso   1.000  S
  S7       1.0000 0.99640  0.79100  0.77550  Biso   1.000  S
  S8       1.0000 0.50360  0.29100  0.72450  Biso   1.000  S
  N1       1.0000 0.59540  0.70500  0.16580  Biso   1.000  N
  N2       1.0000 0.90460  0.20500  0.33420  Biso   1.000  N
  N3       1.0000 0.40460  0.29500  0.83420  Biso   1.000  N
  N4       1.0000 0.09540  0.79500  0.66580  Biso   1.000  N
  C1       1.0000 0.54970  0.71090  0.20720  Biso   1.000  C
  C2       1.0000 0.95030  0.21090  0.29280  Biso   1.000  C
  C3       1.0000 0.45030  0.28910  0.79280  Biso   1.000  C
  C4       1.0000 0.04970  0.78910  0.70720  Biso   1.000  C
  N5       1.0000 0.68470  0.92140  0.07480  Biso   1.000  N
  N6       1.0000 0.81530  0.42140  0.42520  Biso   1.000  N
  N7       1.0000 0.31530  0.07860  0.92520  Biso   1.000  N
  N8       1.0000 0.18470  0.57860  0.57480  Biso   1.000  N
  N9       1.0000 0.57760  0.72760  0.96720  Biso   1.000  N
  N10      1.0000 0.92240  0.22760  0.53280  Biso   1.000  N
  N11      1.0000 0.42240  0.27240  0.03280  Biso   1.000  N
  N12      1.0000 0.07760  0.77240  0.46720  Biso   1.000  N
  N13      1.0000 0.53510  0.77070  0.47510  Biso   1.000  N
  N14      1.0000 0.96490  0.27070  0.02490  Biso   1.000  N
  N15      1.0000 0.46490  0.22930  0.52490  Biso   1.000  N
  N16      1.0000 0.03510  0.72930  0.97510  Biso   1.000  N
  N17      1.0000 0.41810  0.95620  0.37090  Biso   1.000  N
  N18      1.0000 0.08190  0.45620  0.12910  Biso   1.000  N
  N19      1.0000 0.58190  0.04380  0.62910  Biso   1.000  N
  N20      1.0000 0.91810  0.54380  0.87090  Biso   1.000  N
  C5       1.0000 0.73450  0.01730  0.13190  Biso   1.000  C
  C6       1.0000 0.76550  0.51730  0.36810  Biso   1.000  C
  C7       1.0000 0.26550  0.98270  0.86810  Biso   1.000  C
  C8       1.0000 0.23450  0.48270  0.63190  Biso   1.000  C
  H1       1.0000 0.77370  0.98390  0.18470  Biso   1.000  H
  H2       1.0000 0.72630  0.48390  0.31530  Biso   1.000  H
  H3       1.0000 0.22630  0.01610  0.81530  Biso   1.000  H
  H4       1.0000 0.27370  0.51610  0.68470  Biso   1.000  H
  C9       1.0000 0.73160  0.16230  0.11790  Biso   1.000  C
  C10      1.0000 0.76840  0.66230  0.38210  Biso   1.000  C
  C11      1.0000 0.26840  0.83770  0.88210  Biso   1.000  C
  C12      1.0000 0.23160  0.33770  0.61790  Biso   1.000  C
  H5       1.0000 0.76710  0.22490  0.16020  Biso   1.000  H
  H6       1.0000 0.73290  0.72490  0.33980  Biso   1.000  H
  H7       1.0000 0.23290  0.77510  0.83980  Biso   1.000  H
  H8       1.0000 0.26710  0.27510  0.66020  Biso   1.000  H
  C13      1.0000 0.67550  0.21140  0.04080  Biso   1.000  C
  C14      1.0000 0.82450  0.71140  0.45920  Biso   1.000  C
  C15      1.0000 0.32450  0.78860  0.95920  Biso   1.000  C
  C16      1.0000 0.17550  0.28860  0.54080  Biso   1.000  C
  H9       1.0000 0.67320  0.30860  0.02870  Biso   1.000  H
  H10      1.0000 0.82680  0.80860  0.47130  Biso   1.000  H
  H11      1.0000 0.32680  0.69140  0.97130  Biso   1.000  H
  H12      1.0000 0.17320  0.19140  0.52870  Biso   1.000  H
  C17      1.0000 0.62250  0.11650  0.98100  Biso   1.000  C
  C18      1.0000 0.87750  0.61650  0.51900  Biso   1.000  C
  C19      1.0000 0.37750  0.88350  0.01900  Biso   1.000  C
  C20      1.0000 0.12250  0.38350  0.48100  Biso   1.000  C
  H13      1.0000 0.58250  0.14930  0.92840  Biso   1.000  H
  H14      1.0000 0.91750  0.64930  0.57160  Biso   1.000  H
  H15      1.0000 0.41750  0.85070  0.07160  Biso   1.000  H
  H16      1.0000 0.08250  0.35070  0.42840  Biso   1.000  H
  C21      1.0000 0.62820  0.97210  0.99850  Biso   1.000  C
  C22      1.0000 0.87180  0.47210  0.50150  Biso   1.000  C
  C23      1.0000 0.37180  0.02790  0.00150  Biso   1.000  C
  C24      1.0000 0.12820  0.52790  0.49850  Biso   1.000  C
  C25      1.0000 0.57120  0.86290  0.93770  Biso   1.000  C
  C26      1.0000 0.92880  0.36290  0.56230  Biso   1.000  C
  C27      1.0000 0.42880  0.13710  0.06230  Biso   1.000  C
  C28      1.0000 0.07120  0.63710  0.43770  Biso   1.000  C
  C29      1.0000 0.51280  0.89490  0.85550  Biso   1.000  C
  C30      1.0000 0.98720  0.39490  0.64450  Biso   1.000  C
  C31      1.0000 0.48720  0.10510  0.14450  Biso   1.000  C
  C32      1.0000 0.01280  0.60510  0.35550  Biso   1.000  C
  H17      1.0000 0.50930  0.98820  0.83580  Biso   1.000  H
  H18      1.0000 0.99070  0.48820  0.66420  Biso   1.000  H
  H19      1.0000 0.49070  0.01180  0.16420  Biso   1.000  H
  H20      1.0000 0.00930  0.51180  0.33580  Biso   1.000  H
  C33      1.0000 0.46040  0.78960  0.80340  Biso   1.000  C
  C34      1.0000 0.03960  0.28960  0.69660  Biso   1.000  C
  C35      1.0000 0.53960  0.21040  0.19660  Biso   1.000  C
  C36      1.0000 0.96040  0.71040  0.30340  Biso   1.000  C
  H21      1.0000 0.42070  0.81070  0.74840  Biso   1.000  H
  H22      1.0000 0.07930  0.31070  0.75160  Biso   1.000  H
  H23      1.0000 0.57930  0.18930  0.25160  Biso   1.000  H
  H24      1.0000 0.92070  0.68930  0.24840  Biso   1.000  H
  C37      1.0000 0.46720  0.65320  0.83300  Biso   1.000  C
  C38      1.0000 0.03280  0.15320  0.66700  Biso   1.000  C
  C39      1.0000 0.53280  0.34680  0.16700  Biso   1.000  C
  C40      1.0000 0.96720  0.84680  0.33300  Biso   1.000  C
  H25      1.0000 0.43270  0.57940  0.79870  Biso   1.000  H
  H26      1.0000 0.06730  0.07940  0.70130  Biso   1.000  H
  H27      1.0000 0.56730  0.42060  0.20130  Biso   1.000  H
  H28      1.0000 0.93270  0.92060  0.29870  Biso   1.000  H
  C41      1.0000 0.52630  0.62710  0.91510  Biso   1.000  C
  C42      1.0000 0.97370  0.12710  0.58490  Biso   1.000  C
  C43      1.0000 0.47370  0.37290  0.08490  Biso   1.000  C
  C44      1.0000 0.02630  0.87290  0.41510  Biso   1.000  C
  H29      1.0000 0.53070  0.53390  0.93510  Biso   1.000  H
  H30      1.0000 0.96930  0.03390  0.56490  Biso   1.000  H
  H31      1.0000 0.46930  0.46610  0.06490  Biso   1.000  H
  H32      1.0000 0.03070  0.96610  0.43510  Biso   1.000  H
  C45      1.0000 0.59880  0.68440  0.52970  Biso   1.000  C
  C46      1.0000 0.90120  0.18440  0.97030  Biso   1.000  C
  C47      1.0000 0.40120  0.31560  0.47030  Biso   1.000  C
  C48      1.0000 0.09880  0.81560  0.02970  Biso   1.000  C
  H33      1.0000 0.65920  0.67580  0.52640  Biso   1.000  H
  H34      1.0000 0.84080  0.17580  0.97360  Biso   1.000  H
  H35      1.0000 0.34080  0.32420  0.47360  Biso   1.000  H
  H36      1.0000 0.15920  0.82420  0.02640  Biso   1.000  H
  C49      1.0000 0.57990  0.60710  0.59090  Biso   1.000  C
  C50      1.0000 0.92010  0.10710  0.90910  Biso   1.000  C
  C51      1.0000 0.42010  0.39290  0.40910  Biso   1.000  C
  C52      1.0000 0.07990  0.89290  0.09090  Biso   1.000  C
  H37      1.0000 0.62630  0.54780  0.62770  Biso   1.000  H
  H38      1.0000 0.87370  0.04780  0.87230  Biso   1.000  H
  H39      1.0000 0.37370  0.45220  0.37230  Biso   1.000  H
  H40      1.0000 0.12630  0.95220  0.12770  Biso   1.000  H
  C53      1.0000 0.49140  0.62030  0.59580  Biso   1.000  C
  C54      1.0000 0.00860  0.12030  0.90420  Biso   1.000  C
  C55      1.0000 0.50860  0.37970  0.40420  Biso   1.000  C
  C56      1.0000 0.99140  0.87970  0.09580  Biso   1.000  C
  H41      1.0000 0.47660  0.56930  0.63620  Biso   1.000  H
  H42      1.0000 0.02340  0.06930  0.86380  Biso   1.000  H
  H43      1.0000 0.52340  0.43070  0.36380  Biso   1.000  H
  H44      1.0000 0.97660  0.93070  0.13620  Biso   1.000  H
  C57      1.0000 0.42420  0.70890  0.54090  Biso   1.000  C
  C58      1.0000 0.07580  0.20890  0.95910  Biso   1.000  C
  C59      1.0000 0.57580  0.29110  0.45910  Biso   1.000  C
  C60      1.0000 0.92420  0.79110  0.04090  Biso   1.000  C
  H45      1.0000 0.36380  0.71850  0.54390  Biso   1.000  H
  H46      1.0000 0.13620  0.21850  0.95610  Biso   1.000  H
  H47      1.0000 0.63620  0.28150  0.45610  Biso   1.000  H
  H48      1.0000 0.86380  0.78150  0.04390  Biso   1.000  H
  C61      1.0000 0.44750  0.78340  0.48130  Biso   1.000  C
  C62      1.0000 0.05250  0.28340  0.01870  Biso   1.000  C
  C63      1.0000 0.55250  0.21660  0.51870  Biso   1.000  C
  C64      1.0000 0.94750  0.71660  0.98130  Biso   1.000  C
  C65      1.0000 0.38090  0.88170  0.41960  Biso   1.000  C
  C66      1.0000 0.11910  0.38170  0.08040  Biso   1.000  C
  C67      1.0000 0.61910  0.11830  0.58040  Biso   1.000  C
  C68      1.0000 0.88090  0.61830  0.91960  Biso   1.000  C
  C69      1.0000 0.28530  0.90110  0.41000  Biso   1.000  C
  C70      1.0000 0.21470  0.40110  0.09000  Biso   1.000  C
  C71      1.0000 0.71470  0.09890  0.59000  Biso   1.000  C
  C72      1.0000 0.78530  0.59890  0.91000  Biso   1.000  C
  H49      1.0000 0.25930  0.84970  0.44320  Biso   1.000  H
  H50      1.0000 0.24070  0.34970  0.05680  Biso   1.000  H
  H51      1.0000 0.74070  0.15030  0.55680  Biso   1.000  H
  H52      1.0000 0.75930  0.65030  0.94320  Biso   1.000  H
  C73      1.0000 0.22940  0.99690  0.35120  Biso   1.000  C
  C74      1.0000 0.27060  0.49690  0.14880  Biso   1.000  C
  C75      1.0000 0.77060  0.00310  0.64880  Biso   1.000  C
  C76      1.0000 0.72940  0.50310  0.85120  Biso   1.000  C
  H53      1.0000 0.16580  0.01120  0.34530  Biso   1.000  H
  H54      1.0000 0.33420  0.51120  0.15470  Biso   1.000  H
  H55      1.0000 0.83420  0.98880  0.65470  Biso   1.000  H
  H56      1.0000 0.66580  0.48880  0.84530  Biso   1.000  H
  C77      1.0000 0.26610  0.07000  0.30210  Biso   1.000  C
  C78      1.0000 0.23390  0.57000  0.19790  Biso   1.000  C
  C79      1.0000 0.73390  0.93000  0.69790  Biso   1.000  C
  C80      1.0000 0.76610  0.43000  0.80210  Biso   1.000  C
  H57      1.0000 0.22880  0.13390  0.26160  Biso   1.000  H
  H58      1.0000 0.27120  0.63390  0.23840  Biso   1.000  H
  H59      1.0000 0.77120  0.86610  0.73840  Biso   1.000  H
  H60      1.0000 0.72880  0.36610  0.76160  Biso   1.000  H
  C81      1.0000 0.36100  0.04670  0.31420  Biso   1.000  C
  C82      1.0000 0.13900  0.54670  0.18580  Biso   1.000  C
  C83      1.0000 0.63900  0.95330  0.68580  Biso   1.000  C
  C84      1.0000 0.86100  0.45330  0.81420  Biso   1.000  C
  H61      1.0000 0.38690  0.09730  0.28060  Biso   1.000  H
  H62      1.0000 0.11310  0.59730  0.21940  Biso   1.000  H
  H63      1.0000 0.61310  0.90270  0.71940  Biso   1.000  H
  H64      1.0000 0.88690  0.40270  0.78060  Biso   1.000  H
  N21      1.0000 0.83910  0.49610  0.11950  Biso   1.000  N
  N22      1.0000 0.66090  0.99610  0.38050  Biso   1.000  N
  N23      1.0000 0.16090  0.50390  0.88050  Biso   1.000  N
  N24      1.0000 0.33910  0.00390  0.61950  Biso   1.000  N
  C85      1.0000 0.77510  0.56960  0.11300  Biso   1.000  C
  C86      1.0000 0.72490  0.06960  0.38700  Biso   1.000  C
  C87      1.0000 0.22490  0.43040  0.88700  Biso   1.000  C
  C88      1.0000 0.27510  0.93040  0.61300  Biso   1.000  C
