data_image0
_cell_length_a       13.046
_cell_length_b       13.47
_cell_length_c       13.538
_cell_angle_alpha    90
_cell_angle_beta     90.044
_cell_angle_gamma    90

_symmetry_space_group_name_H-M    "P 1"
_symmetry_int_tables_number       1

loop_
  _symmetry_equiv_pos_as_xyz
  'x, y, z'

loop_
  _atom_site_label
  _atom_site_occupancy
  _atom_site_fract_x
  _atom_site_fract_y
  _atom_site_fract_z
  _atom_site_thermal_displace_type
  _atom_site_B_iso_or_equiv
  _atom_site_type_symbol
  Cu1      1.0000 0.08441  0.73813  0.04132  Biso   1.000  Cu
  Cu2      1.0000 0.41559  0.23813  0.45868  Biso   1.000  Cu
  Cu3      1.0000 0.91559  0.26187  0.95868  Biso   1.000  Cu
  Cu4      1.0000 0.58441  0.76187  0.54132  Biso   1.000  Cu
  Cu5      1.0000 0.45032  0.76203  0.95137  Biso   1.000  Cu
  Cu6      1.0000 0.04968  0.26203  0.54863  Biso   1.000  Cu
  Cu7      1.0000 0.54968  0.23797  0.04863  Biso   1.000  Cu
  Cu8      1.0000 0.95032  0.73797  0.45137  Biso   1.000  Cu
  C1       1.0000 0.30890  0.75200  0.97670  Biso   1.000  C
  C2       1.0000 0.19110  0.25200  0.52330  Biso   1.000  C
  C3       1.0000 0.69110  0.24800  0.02330  Biso   1.000  C
  C4       1.0000 0.80890  0.74800  0.47670  Biso   1.000  C
  N1       1.0000 0.00190  0.68360  0.32530  Biso   1.000  N
  N2       1.0000 0.49810  0.18360  0.17470  Biso   1.000  N
  N3       1.0000 0.99810  0.31640  0.67470  Biso   1.000  N
  N4       1.0000 0.50190  0.81640  0.82530  Biso   1.000  N
  N5       1.0000 0.95950  0.73312  0.94490  Biso   1.000  N
  N6       1.0000 0.54050  0.23312  0.55510  Biso   1.000  N
  N7       1.0000 0.04050  0.26688  0.05510  Biso   1.000  N
  N8       1.0000 0.45950  0.76688  0.44490  Biso   1.000  N
  N9       1.0000 0.00240  0.86301  0.08980  Biso   1.000  N
  N10      1.0000 0.49760  0.36301  0.41020  Biso   1.000  N
  N11      1.0000 0.99760  0.13699  0.91020  Biso   1.000  N
  N12      1.0000 0.50240  0.63699  0.58980  Biso   1.000  N
  N13      1.0000 0.54334  0.82320  0.06500  Biso   1.000  N
  N14      1.0000 0.95666  0.32320  0.43500  Biso   1.000  N
  N15      1.0000 0.45666  0.17680  0.93500  Biso   1.000  N
  N16      1.0000 0.04334  0.67680  0.56500  Biso   1.000  N
  N17      1.0000 0.55910  0.64667  0.97187  Biso   1.000  N
  N18      1.0000 0.94090  0.14667  0.52813  Biso   1.000  N
  N19      1.0000 0.44090  0.35333  0.02813  Biso   1.000  N
  N20      1.0000 0.05910  0.85333  0.47187  Biso   1.000  N
  N21      1.0000 0.22320  0.74724  0.99410  Biso   1.000  N
  N22      1.0000 0.27680  0.24724  0.50590  Biso   1.000  N
  N23      1.0000 0.77680  0.25276  0.00590  Biso   1.000  N
  N24      1.0000 0.72320  0.75276  0.49410  Biso   1.000  N
  C5       1.0000 0.03380  0.65220  0.25270  Biso   1.000  C
  C6       1.0000 0.46620  0.15220  0.24730  Biso   1.000  C
  C7       1.0000 0.96620  0.34780  0.74730  Biso   1.000  C
  C8       1.0000 0.53380  0.84780  0.75270  Biso   1.000  C
  C9       1.0000 0.93640  0.66860  0.87380  Biso   1.000  C
  C10      1.0000 0.56360  0.16860  0.62620  Biso   1.000  C
  C11      1.0000 0.06360  0.33140  0.12620  Biso   1.000  C
  C12      1.0000 0.43640  0.83140  0.37380  Biso   1.000  C
  H1       1.0000 0.97740  0.61250  0.86750  Biso   1.000  H
  H2       1.0000 0.52260  0.11250  0.63250  Biso   1.000  H
  H3       1.0000 0.02260  0.38750  0.13250  Biso   1.000  H
  H4       1.0000 0.47740  0.88750  0.36750  Biso   1.000  H
  C13      1.0000 0.85670  0.67930  0.80950  Biso   1.000  C
  C14      1.0000 0.64330  0.17930  0.69050  Biso   1.000  C
  C15      1.0000 0.14330  0.32070  0.19050  Biso   1.000  C
  C16      1.0000 0.35670  0.82070  0.30950  Biso   1.000  C
  H5       1.0000 0.84510  0.63240  0.76030  Biso   1.000  H
  H6       1.0000 0.65490  0.13240  0.73970  Biso   1.000  H
  H7       1.0000 0.15490  0.36760  0.23970  Biso   1.000  H
  H8       1.0000 0.34510  0.86760  0.26030  Biso   1.000  H
  C17      1.0000 0.79360  0.76080  0.81850  Biso   1.000  C
  C18      1.0000 0.70640  0.26080  0.68150  Biso   1.000  C
  C19      1.0000 0.20640  0.23920  0.18150  Biso   1.000  C
  C20      1.0000 0.29360  0.73920  0.31850  Biso   1.000  C
  H9       1.0000 0.73900  0.76970  0.77520  Biso   1.000  H
  H10      1.0000 0.76100  0.26970  0.72480  Biso   1.000  H
  H11      1.0000 0.26100  0.23030  0.22480  Biso   1.000  H
  H12      1.0000 0.23900  0.73030  0.27520  Biso   1.000  H
  C21      1.0000 0.81220  0.82950  0.89290  Biso   1.000  C
  C22      1.0000 0.68780  0.32950  0.60710  Biso   1.000  C
  C23      1.0000 0.18780  0.17050  0.10710  Biso   1.000  C
  C24      1.0000 0.31220  0.67050  0.39290  Biso   1.000  C
  C25      1.0000 0.75000  0.91760  0.90760  Biso   1.000  C
  C26      1.0000 0.75000  0.41760  0.59240  Biso   1.000  C
  C27      1.0000 0.25000  0.08240  0.09240  Biso   1.000  C
  C28      1.0000 0.25000  0.58240  0.40760  Biso   1.000  C
  H13      1.0000 0.69400  0.92960  0.86670  Biso   1.000  H
  H14      1.0000 0.80600  0.42960  0.63330  Biso   1.000  H
  H15      1.0000 0.30600  0.07040  0.13330  Biso   1.000  H
  H16      1.0000 0.19400  0.57040  0.36670  Biso   1.000  H
  C29      1.0000 0.77310  0.98190  0.98000  Biso   1.000  C
  C30      1.0000 0.72690  0.48190  0.52000  Biso   1.000  C
  C31      1.0000 0.22690  0.01810  0.02000  Biso   1.000  C
  C32      1.0000 0.27310  0.51810  0.48000  Biso   1.000  C
  H17      1.0000 0.73250  0.03800  0.98810  Biso   1.000  H
  H18      1.0000 0.76750  0.53800  0.51190  Biso   1.000  H
  H19      1.0000 0.26750  0.96200  0.01190  Biso   1.000  H
  H20      1.0000 0.23250  0.46200  0.48810  Biso   1.000  H
  C33      1.0000 0.85830  0.96700  0.04510  Biso   1.000  C
  C34      1.0000 0.64170  0.46700  0.45490  Biso   1.000  C
  C35      1.0000 0.14170  0.03300  0.95490  Biso   1.000  C
  C36      1.0000 0.35830  0.53300  0.54510  Biso   1.000  C
  C37      1.0000 0.88440  0.03270  0.12070  Biso   1.000  C
  C38      1.0000 0.61560  0.53270  0.37930  Biso   1.000  C
  C39      1.0000 0.11560  0.96730  0.87930  Biso   1.000  C
  C40      1.0000 0.38440  0.46730  0.62070  Biso   1.000  C
  H21      1.0000 0.84550  0.08960  0.13110  Biso   1.000  H
  H22      1.0000 0.65450  0.58960  0.36890  Biso   1.000  H
  H23      1.0000 0.15450  0.91040  0.86890  Biso   1.000  H
  H24      1.0000 0.34550  0.41040  0.63110  Biso   1.000  H
  C41      1.0000 0.96670  0.01330  0.17900  Biso   1.000  C
  C42      1.0000 0.53330  0.51330  0.32100  Biso   1.000  C
  C43      1.0000 0.03330  0.98670  0.82100  Biso   1.000  C
  C44      1.0000 0.46670  0.48670  0.67900  Biso   1.000  C
  H25      1.0000 0.98450  0.05630  0.22990  Biso   1.000  H
  H26      1.0000 0.51550  0.55630  0.27010  Biso   1.000  H
  H27      1.0000 0.01550  0.94370  0.77010  Biso   1.000  H
  H28      1.0000 0.48450  0.44370  0.72990  Biso   1.000  H
  C45      1.0000 0.02540  0.92630  0.16100  Biso   1.000  C
  C46      1.0000 0.47460  0.42630  0.33900  Biso   1.000  C
  C47      1.0000 0.97460  0.07370  0.83900  Biso   1.000  C
  C48      1.0000 0.52540  0.57370  0.66100  Biso   1.000  C
  H29      1.0000 0.08200  0.91350  0.20080  Biso   1.000  H
  H30      1.0000 0.41800  0.41350  0.29920  Biso   1.000  H
  H31      1.0000 0.91800  0.08650  0.79920  Biso   1.000  H
  H32      1.0000 0.58200  0.58650  0.70080  Biso   1.000  H
  C49      1.0000 0.92020  0.88240  0.03300  Biso   1.000  C
  C50      1.0000 0.57980  0.38240  0.46700  Biso   1.000  C
  C51      1.0000 0.07980  0.11760  0.96700  Biso   1.000  C
  C52      1.0000 0.42020  0.61760  0.53300  Biso   1.000  C
  C53      1.0000 0.89620  0.81280  0.95420  Biso   1.000  C
  C54      1.0000 0.60380  0.31280  0.54580  Biso   1.000  C
  C55      1.0000 0.10380  0.18720  0.04580  Biso   1.000  C
  C56      1.0000 0.39620  0.68720  0.45420  Biso   1.000  C
  C57      1.0000 0.53710  0.91020  0.11220  Biso   1.000  C
  C58      1.0000 0.96290  0.41020  0.38780  Biso   1.000  C
  C59      1.0000 0.46290  0.08980  0.88780  Biso   1.000  C
  C60      1.0000 0.03710  0.58980  0.61220  Biso   1.000  C
  H33      1.0000 0.48490  0.95360  0.09430  Biso   1.000  H
  H34      1.0000 0.01510  0.45360  0.40570  Biso   1.000  H
  H35      1.0000 0.51510  0.04640  0.90570  Biso   1.000  H
  H36      1.0000 0.98490  0.54640  0.59430  Biso   1.000  H
  C61      1.0000 0.60440  0.93920  0.18650  Biso   1.000  C
  C62      1.0000 0.89560  0.43920  0.31350  Biso   1.000  C
  C63      1.0000 0.39560  0.06080  0.81350  Biso   1.000  C
  C64      1.0000 0.10440  0.56080  0.68650  Biso   1.000  C
  H37      1.0000 0.59680  0.00080  0.21670  Biso   1.000  H
  H38      1.0000 0.90320  0.50080  0.28330  Biso   1.000  H
  H39      1.0000 0.40320  0.99920  0.78330  Biso   1.000  H
  H40      1.0000 0.09680  0.49920  0.71670  Biso   1.000  H
  C65      1.0000 0.68120  0.87760  0.21490  Biso   1.000  C
  C66      1.0000 0.81880  0.37760  0.28510  Biso   1.000  C
  C67      1.0000 0.31880  0.12240  0.78510  Biso   1.000  C
  C68      1.0000 0.18120  0.62240  0.71490  Biso   1.000  C
  H41      1.0000 0.72530  0.89540  0.26590  Biso   1.000  H
  H42      1.0000 0.77470  0.39540  0.23410  Biso   1.000  H
  H43      1.0000 0.27470  0.10460  0.73410  Biso   1.000  H
  H44      1.0000 0.22530  0.60460  0.76590  Biso   1.000  H
  C69      1.0000 0.69290  0.78560  0.16530  Biso   1.000  C
  C70      1.0000 0.80710  0.28560  0.33470  Biso   1.000  C
  C71      1.0000 0.30710  0.21440  0.83470  Biso   1.000  C
  C72      1.0000 0.19290  0.71440  0.66530  Biso   1.000  C
  C73      1.0000 0.77590  0.71850  0.18770  Biso   1.000  C
  C74      1.0000 0.72410  0.21850  0.31230  Biso   1.000  C
  C75      1.0000 0.22410  0.28150  0.81230  Biso   1.000  C
  C76      1.0000 0.27590  0.78150  0.68770  Biso   1.000  C
  H45      1.0000 0.82190  0.73320  0.23820  Biso   1.000  H
  H46      1.0000 0.67810  0.23320  0.26180  Biso   1.000  H
  H47      1.0000 0.17810  0.26680  0.76180  Biso   1.000  H
  H48      1.0000 0.32190  0.76680  0.73820  Biso   1.000  H
  C77      1.0000 0.78650  0.63450  0.13510  Biso   1.000  C
  C78      1.0000 0.71350  0.13450  0.36490  Biso   1.000  C
  C79      1.0000 0.21350  0.36550  0.86490  Biso   1.000  C
  C80      1.0000 0.28650  0.86550  0.63510  Biso   1.000  C
  H49      1.0000 0.84240  0.59370  0.14780  Biso   1.000  H
  H50      1.0000 0.65760  0.09370  0.35220  Biso   1.000  H
  H51      1.0000 0.15760  0.40630  0.85220  Biso   1.000  H
  H52      1.0000 0.34240  0.90630  0.64780  Biso   1.000  H
  C81      1.0000 0.71570  0.60580  0.06110  Biso   1.000  C
  C82      1.0000 0.78430  0.10580  0.43890  Biso   1.000  C
  C83      1.0000 0.28430  0.39420  0.93890  Biso   1.000  C
  C84      1.0000 0.21570  0.89420  0.56110  Biso   1.000  C
  C85      1.0000 0.72260  0.51740  0.00630  Biso   1.000  C
  C86      1.0000 0.77740  0.01740  0.49370  Biso   1.000  C
  C87      1.0000 0.27740  0.48260  0.99370  Biso   1.000  C
  C88      1.0000 0.22260  0.98260  0.50630  Biso   1.000  C
  H53      1.0000 0.77700  0.47400  0.01680  Biso   1.000  H
  H54      1.0000 0.72300  0.97400  0.48320  Biso   1.000  H
  H55      1.0000 0.22300  0.52600  0.98320  Biso   1.000  H
  H56      1.0000 0.27700  0.02600  0.51680  Biso   1.000  H
  C89      1.0000 0.64910  0.49550  0.93780  Biso   1.000  C
  C90      1.0000 0.85090  0.99550  0.56220  Biso   1.000  C
  C91      1.0000 0.35090  0.50450  0.06220  Biso   1.000  C
  C92      1.0000 0.14910  0.00450  0.43780  Biso   1.000  C
  H57      1.0000 0.65300  0.43700  0.90150  Biso   1.000  H
  H58      1.0000 0.84700  0.93700  0.59850  Biso   1.000  H
  H59      1.0000 0.34700  0.56300  0.09850  Biso   1.000  H
  H60      1.0000 0.15300  0.06300  0.40150  Biso   1.000  H
  C93      1.0000 0.56800  0.56160  0.92250  Biso   1.000  C
  C94      1.0000 0.93200  0.06160  0.57750  Biso   1.000  C
  C95      1.0000 0.43200  0.43840  0.07750  Biso   1.000  C
  C96      1.0000 0.06800  0.93840  0.42250  Biso   1.000  C
  H61      1.0000 0.51820  0.54550  0.87600  Biso   1.000  H
  H62      1.0000 0.98180  0.04550  0.62400  Biso   1.000  H
  H63      1.0000 0.48180  0.45450  0.12400  Biso   1.000  H
  H64      1.0000 0.01820  0.95450  0.37600  Biso   1.000  H
  C97      1.0000 0.63130  0.66910  0.03990  Biso   1.000  C
  C98      1.0000 0.86870  0.16910  0.46010  Biso   1.000  C
  C99      1.0000 0.36870  0.33090  0.96010  Biso   1.000  C
  C100     1.0000 0.13130  0.83090  0.53990  Biso   1.000  C
  C101     1.0000 0.62240  0.76170  0.09290  Biso   1.000  C
  C102     1.0000 0.87760  0.26170  0.40710  Biso   1.000  C
  C103     1.0000 0.37760  0.23830  0.90710  Biso   1.000  C
  C104     1.0000 0.12240  0.73830  0.59290  Biso   1.000  C
  S1       1.0000 0.08145  0.60266  0.15161  Biso   1.000  S
  S2       1.0000 0.41855  0.10266  0.34839  Biso   1.000  S
  S3       1.0000 0.91855  0.39734  0.84839  Biso   1.000  S
  S4       1.0000 0.58145  0.89734  0.65161  Biso   1.000  S
