data_image0
_cell_length_a       12.974
_cell_length_b       13.674
_cell_length_c       17.935
_cell_angle_alpha    88.72
_cell_angle_beta     87.49
_cell_angle_gamma    75.69

_symmetry_space_group_name_H-M    "P 1"
_symmetry_int_tables_number       1

loop_
  _symmetry_equiv_pos_as_xyz
  'x, y, z'

loop_
  _atom_site_label
  _atom_site_occupancy
  _atom_site_fract_x
  _atom_site_fract_y
  _atom_site_fract_z
  _atom_site_thermal_displace_type
  _atom_site_B_iso_or_equiv
  _atom_site_type_symbol
  Cu1      1.0000 0.52070  0.53160  0.12715  Biso   1.000  Cu
  Cu2      1.0000 0.47930  0.46840  0.87285  Biso   1.000  Cu
  Cu3      1.0000 0.75760  0.46311  0.24902  Biso   1.000  Cu
  Cu4      1.0000 0.24240  0.53689  0.75098  Biso   1.000  Cu
  Cu5      1.0000 0.00430  0.61591  0.62839  Biso   1.000  Cu
  Cu6      1.0000 0.99570  0.38409  0.37161  Biso   1.000  Cu
  Si1      1.0000 0.74620  0.98700  0.24710  Biso   1.000  Si
  Si2      1.0000 0.25380  0.01300  0.75290  Biso   1.000  Si
  W1       1.0000 0.58608  0.90662  0.38752  Biso   1.000  W
  W2       1.0000 0.41392  0.09338  0.61248  Biso   1.000  W
  W3       1.0000 0.71495  0.08069  0.43026  Biso   1.000  W
  W4       1.0000 0.28505  0.91931  0.56974  Biso   1.000  W
  W5       1.0000 0.50760  0.14318  0.31995  Biso   1.000  W
  W6       1.0000 0.49240  0.85682  0.68005  Biso   1.000  W
  W7       1.0000 0.60215  0.81544  0.19298  Biso   1.000  W
  W8       1.0000 0.39785  0.18456  0.80702  Biso   1.000  W
  W9       1.0000 0.83581  0.73734  0.31223  Biso   1.000  W
  W10      1.0000 0.16419  0.26266  0.68777  Biso   1.000  W
  W11      1.0000 0.96585  0.90605  0.36205  Biso   1.000  W
  W12      1.0000 0.03415  0.09395  0.63795  Biso   1.000  W
  W13      1.0000 0.88986  0.16502  0.28638  Biso   1.000  W
  W14      1.0000 0.11014  0.83498  0.71362  Biso   1.000  W
  W15      1.0000 0.67846  0.23689  0.17860  Biso   1.000  W
  W16      1.0000 0.32154  0.76311  0.82140  Biso   1.000  W
  W17      1.0000 0.53363  0.05080  0.12493  Biso   1.000  W
  W18      1.0000 0.46637  0.94920  0.87507  Biso   1.000  W
  W19      1.0000 0.99013  0.82330  0.18440  Biso   1.000  W
  W20      1.0000 0.00987  0.17670  0.81560  Biso   1.000  W
  W21      1.0000 0.90403  0.08346  0.10913  Biso   1.000  W
  W22      1.0000 0.09597  0.91654  0.89087  Biso   1.000  W
  W23      1.0000 0.75985  0.89226  0.06284  Biso   1.000  W
  W24      1.0000 0.24015  0.10774  0.93716  Biso   1.000  W
  C1       1.0000 0.34460  0.62760  0.22410  Biso   1.000  C
  C2       1.0000 0.65540  0.37240  0.77590  Biso   1.000  C
  H1       1.0000 0.33770  0.68100  0.19010  Biso   1.000  H
  H2       1.0000 0.66230  0.31900  0.80990  Biso   1.000  H
  C3       1.0000 0.28140  0.64010  0.28600  Biso   1.000  C
  C4       1.0000 0.71860  0.35990  0.71400  Biso   1.000  C
  H3       1.0000 0.23150  0.70100  0.29410  Biso   1.000  H
  H4       1.0000 0.76850  0.29900  0.70590  Biso   1.000  H
  C5       1.0000 0.29080  0.56110  0.33840  Biso   1.000  C
  C6       1.0000 0.70920  0.43890  0.66160  Biso   1.000  C
  C7       1.0000 0.36000  0.47530  0.32140  Biso   1.000  C
  C8       1.0000 0.64000  0.52470  0.67860  Biso   1.000  C
  H5       1.0000 0.36490  0.42050  0.35390  Biso   1.000  H
  H6       1.0000 0.63510  0.57950  0.64610  Biso   1.000  H
  C9       1.0000 0.42550  0.46300  0.25760  Biso   1.000  C
  C10      1.0000 0.57450  0.53700  0.74240  Biso   1.000  C
  H7       1.0000 0.47430  0.40180  0.24810  Biso   1.000  H
  H8       1.0000 0.52570  0.59820  0.75190  Biso   1.000  H
  C11      1.0000 0.66970  0.46370  0.00690  Biso   1.000  C
  C12      1.0000 0.33030  0.53630  0.99310  Biso   1.000  C
  H9       1.0000 0.67320  0.39980  0.02710  Biso   1.000  H
  H10      1.0000 0.32680  0.60020  0.97290  Biso   1.000  H
  C13      1.0000 0.73260  0.47340  0.94380  Biso   1.000  C
  C14      1.0000 0.26740  0.52660  0.05620  Biso   1.000  C
  H11      1.0000 0.78150  0.41690  0.92480  Biso   1.000  H
  H12      1.0000 0.21850  0.58310  0.07520  Biso   1.000  H
  C15      1.0000 0.72340  0.56550  0.90940  Biso   1.000  C
  C16      1.0000 0.27660  0.43450  0.09060  Biso   1.000  C
  C17      1.0000 0.65170  0.64880  0.94330  Biso   1.000  C
  C18      1.0000 0.34830  0.35120  0.05670  Biso   1.000  C
  H13      1.0000 0.64490  0.71320  0.92310  Biso   1.000  H
  H14      1.0000 0.35510  0.28680  0.07690  Biso   1.000  H
  C19      1.0000 0.59000  0.63480  0.00800  Biso   1.000  C
  C20      1.0000 0.41000  0.36520  0.99200  Biso   1.000  C
  H15      1.0000 0.53960  0.68900  0.02860  Biso   1.000  H
  H16      1.0000 0.46040  0.31100  0.97140  Biso   1.000  H
  C21      1.0000 0.61700  0.56470  0.36160  Biso   1.000  C
  C22      1.0000 0.38300  0.43530  0.63840  Biso   1.000  C
  H17      1.0000 0.62850  0.62240  0.33800  Biso   1.000  H
  H18      1.0000 0.37150  0.37760  0.66200  Biso   1.000  H
  C23      1.0000 0.54780  0.57730  0.42570  Biso   1.000  C
  C24      1.0000 0.45220  0.42270  0.57430  Biso   1.000  C
  H19      1.0000 0.51240  0.64190  0.44090  Biso   1.000  H
  H20      1.0000 0.48760  0.35810  0.55910  Biso   1.000  H
  C25      1.0000 0.53260  0.49500  0.46590  Biso   1.000  C
  C26      1.0000 0.46740  0.50500  0.53410  Biso   1.000  C
  C27      1.0000 0.58870  0.40370  0.43820  Biso   1.000  C
  C28      1.0000 0.41130  0.59630  0.56180  Biso   1.000  C
  H21      1.0000 0.58540  0.34500  0.46440  Biso   1.000  H
  H22      1.0000 0.41460  0.65500  0.53560  Biso   1.000  H
  C29      1.0000 0.64920  0.39640  0.37350  Biso   1.000  C
  C30      1.0000 0.35080  0.60360  0.62650  Biso   1.000  C
  H23      1.0000 0.68120  0.33200  0.35620  Biso   1.000  H
  H24      1.0000 0.31880  0.66800  0.64380  Biso   1.000  H
  C31      1.0000 0.90700  0.39120  0.13020  Biso   1.000  C
  C32      1.0000 0.09300  0.60880  0.86980  Biso   1.000  C
  H25      1.0000 0.90900  0.32710  0.14970  Biso   1.000  H
  H26      1.0000 0.09100  0.67290  0.85030  Biso   1.000  H
  C33      1.0000 0.97290  0.40190  0.06690  Biso   1.000  C
  C34      1.0000 0.02710  0.59810  0.93310  Biso   1.000  C
  H27      1.0000 0.02120  0.34490  0.04820  Biso   1.000  H
  H28      1.0000 0.97880  0.65510  0.95180  Biso   1.000  H
  C35      1.0000 0.96800  0.49200  0.03280  Biso   1.000  C
  C36      1.0000 0.03200  0.50800  0.96720  Biso   1.000  C
  C37      1.0000 0.90380  0.57680  0.06700  Biso   1.000  C
  C38      1.0000 0.09620  0.42320  0.93300  Biso   1.000  C
  H29      1.0000 0.90190  0.64140  0.04860  Biso   1.000  H
  H30      1.0000 0.09810  0.35860  0.95140  Biso   1.000  H
  C39      1.0000 0.84050  0.56110  0.13180  Biso   1.000  C
  C40      1.0000 0.15950  0.43890  0.86820  Biso   1.000  C
  H31      1.0000 0.79570  0.61770  0.15390  Biso   1.000  H
  H32      1.0000 0.20430  0.38230  0.84610  Biso   1.000  H
  C41      1.0000 0.12940  0.51050  0.51100  Biso   1.000  C
  C42      1.0000 0.87060  0.48950  0.48900  Biso   1.000  C
  H33      1.0000 0.11500  0.45490  0.53620  Biso   1.000  H
  H34      1.0000 0.88500  0.54510  0.46380  Biso   1.000  H
  C43      1.0000 0.19020  0.49260  0.44310  Biso   1.000  C
  C44      1.0000 0.80980  0.50740  0.55690  Biso   1.000  C
  H35      1.0000 0.20900  0.42860  0.42240  Biso   1.000  H
  H36      1.0000 0.79100  0.57140  0.57760  Biso   1.000  H
  C45      1.0000 0.22140  0.57300  0.40810  Biso   1.000  C
  C46      1.0000 0.77860  0.42700  0.59190  Biso   1.000  C
  C47      1.0000 0.18150  0.66670  0.44290  Biso   1.000  C
  C48      1.0000 0.81850  0.33330  0.55710  Biso   1.000  C
  H37      1.0000 0.19820  0.72310  0.42040  Biso   1.000  H
  H38      1.0000 0.80180  0.27690  0.57960  Biso   1.000  H
  C49      1.0000 0.11950  0.68090  0.50830  Biso   1.000  C
  C50      1.0000 0.88050  0.31910  0.49170  Biso   1.000  C
  H39      1.0000 0.09750  0.74480  0.52910  Biso   1.000  H
  H40      1.0000 0.90250  0.25520  0.47090  Biso   1.000  H
  C51      1.0000 0.84050  0.67890  0.74370  Biso   1.000  C
  C52      1.0000 0.15950  0.32110  0.25630  Biso   1.000  C
  H41      1.0000 0.83060  0.74170  0.72030  Biso   1.000  H
  H42      1.0000 0.16940  0.25830  0.27970  Biso   1.000  H
  C53      1.0000 0.78020  0.66890  0.80540  Biso   1.000  C
  C54      1.0000 0.21980  0.33110  0.19460  Biso   1.000  C
  H43      1.0000 0.72950  0.72410  0.82440  Biso   1.000  H
  H44      1.0000 0.27050  0.27590  0.17560  Biso   1.000  H
  C55      1.0000 0.79450  0.57730  0.83900  Biso   1.000  C
  C56      1.0000 0.20550  0.42270  0.16100  Biso   1.000  C
  C57      1.0000 0.86370  0.49810  0.81170  Biso   1.000  C
  C58      1.0000 0.13630  0.50190  0.18830  Biso   1.000  C
  H45      1.0000 0.87260  0.43500  0.83450  Biso   1.000  H
  H46      1.0000 0.12740  0.56500  0.16550  Biso   1.000  H
  C59      1.0000 0.92220  0.51130  0.74880  Biso   1.000  C
  C60      1.0000 0.07780  0.48870  0.25120  Biso   1.000  C
  H47      1.0000 0.96980  0.45520  0.72830  Biso   1.000  H
  H48      1.0000 0.03020  0.54480  0.27170  Biso   1.000  H
  N1       1.0000 0.41730  0.54150  0.20930  Biso   1.000  N
  N2       1.0000 0.58270  0.45850  0.79070  Biso   1.000  N
  N3       1.0000 0.60450  0.54380  0.03900  Biso   1.000  N
  N4       1.0000 0.39550  0.45620  0.96100  Biso   1.000  N
  N5       1.0000 0.66600  0.47560  0.33270  Biso   1.000  N
  N6       1.0000 0.33400  0.52440  0.66730  Biso   1.000  N
  N7       1.0000 0.84160  0.47120  0.16230  Biso   1.000  N
  N8       1.0000 0.15840  0.52880  0.83770  Biso   1.000  N
  N9       1.0000 0.09080  0.60120  0.54190  Biso   1.000  N
  N10      1.0000 0.90920  0.39880  0.45810  Biso   1.000  N
  N11      1.0000 0.91420  0.60070  0.71540  Biso   1.000  N
  N12      1.0000 0.08580  0.39930  0.28460  Biso   1.000  N
  O1       1.0000 0.50150  0.92410  0.14880  Biso   1.000  O
  O2       1.0000 0.49850  0.07590  0.85120  Biso   1.000  O
  O3       1.0000 0.53850  0.71600  0.19030  Biso   1.000  O
  O4       1.0000 0.46150  0.28400  0.80970  Biso   1.000  O
  O5       1.0000 0.68010  0.79830  0.09810  Biso   1.000  O
  O6       1.0000 0.31990  0.20170  0.90190  Biso   1.000  O
  O7       1.0000 0.87950  0.82520  0.11880  Biso   1.000  O
  O8       1.0000 0.12050  0.17480  0.88120  Biso   1.000  O
  O9       1.0000 0.98370  0.95640  0.14970  Biso   1.000  O
  O10      1.0000 0.01630  0.04360  0.85030  Biso   1.000  O
  O11      1.0000 0.98530  0.10530  0.03700  Biso   1.000  O
  O12      1.0000 0.01470  0.89470  0.96300  Biso   1.000  O
  O13      1.0000 0.09780  0.75460  0.13630  Biso   1.000  O
  O14      1.0000 0.90220  0.24540  0.86370  Biso   1.000  O
  O15      1.0000 0.95890  0.14660  0.19080  Biso   1.000  O
  O16      1.0000 0.04110  0.85340  0.80920  Biso   1.000  O
  O17      1.0000 0.78930  0.20250  0.10250  Biso   1.000  O
  O18      1.0000 0.21070  0.79750  0.89750  Biso   1.000  O
  O19      1.0000 0.78020  0.27060  0.24090  Biso   1.000  O
  O20      1.0000 0.21980  0.72940  0.75910  Biso   1.000  O
  O21      1.0000 0.61620  0.35700  0.14820  Biso   1.000  O
  O22      1.0000 0.38380  0.64300  0.85180  Biso   1.000  O
  O23      1.0000 0.96490  0.03350  0.31570  Biso   1.000  O
  O24      1.0000 0.03510  0.96650  0.68430  Biso   1.000  O
  O25      1.0000 0.78850  0.15610  0.36470  Biso   1.000  O
  O26      1.0000 0.21150  0.84390  0.63530  Biso   1.000  O
  O27      1.0000 0.58900  0.22120  0.26420  Biso   1.000  O
  O28      1.0000 0.41100  0.77880  0.73580  Biso   1.000  O
  O29      1.0000 0.48830  0.08940  0.22670  Biso   1.000  O
  O30      1.0000 0.51170  0.91060  0.77330  Biso   1.000  O
  O31      1.0000 0.73130  0.74870  0.24010  Biso   1.000  O
  O32      1.0000 0.26870  0.25130  0.75990  Biso   1.000  O
  O33      1.0000 0.55500  0.86720  0.28920  Biso   1.000  O
  O34      1.0000 0.44500  0.13280  0.71080  Biso   1.000  O
  O35      1.0000 0.39000  0.22950  0.33350  Biso   1.000  O
  O36      1.0000 0.61000  0.77050  0.66650  Biso   1.000  O
  O37      1.0000 0.47300  0.03040  0.37040  Biso   1.000  O
  O38      1.0000 0.52700  0.96960  0.62960  Biso   1.000  O
  O39      1.0000 0.58170  0.16690  0.40470  Biso   1.000  O
  O40      1.0000 0.41830  0.83310  0.59530  Biso   1.000  O
  O41      1.0000 0.64280  0.97880  0.45940  Biso   1.000  O
  O42      1.0000 0.35720  0.02120  0.54060  Biso   1.000  O
  O43      1.0000 0.72120  0.81130  0.37510  Biso   1.000  O
  O44      1.0000 0.27880  0.18870  0.62490  Biso   1.000  O
  O45      1.0000 0.93100  0.78040  0.37850  Biso   1.000  O
  O46      1.0000 0.06900  0.21960  0.62150  Biso   1.000  O
  O47      1.0000 0.06010  0.89770  0.42870  Biso   1.000  O
  O48      1.0000 0.93990  0.10230  0.57130  Biso   1.000  O
  O49      1.0000 0.60830  0.15430  0.12710  Biso   1.000  O
  O50      1.0000 0.39170  0.84570  0.87290  Biso   1.000  O
  O51      1.0000 0.51820  0.84100  0.44210  Biso   1.000  O
  O52      1.0000 0.48180  0.15900  0.55790  Biso   1.000  O
  O53      1.0000 0.84240  0.97490  0.41790  Biso   1.000  O
  O54      1.0000 0.15760  0.02510  0.58210  Biso   1.000  O
  O55      1.0000 0.82250  0.00650  0.06510  Biso   1.000  O
  O56      1.0000 0.17750  0.99350  0.93490  Biso   1.000  O
  O57      1.0000 0.42350  0.11040  0.07830  Biso   1.000  O
  O58      1.0000 0.57650  0.88960  0.92170  Biso   1.000  O
  O59      1.0000 0.72720  0.12710  0.51520  Biso   1.000  O
  O60      1.0000 0.27280  0.87290  0.48480  Biso   1.000  O
  O61      1.0000 0.78910  0.08500  0.21820  Biso   1.000  O
  O62      1.0000 0.21090  0.91500  0.78180  Biso   1.000  O
  O63      1.0000 0.84640  0.89640  0.26780  Biso   1.000  O
  O64      1.0000 0.15360  0.10360  0.73220  Biso   1.000  O
  O65      1.0000 0.68290  0.95070  0.18050  Biso   1.000  O
  O66      1.0000 0.31710  0.04930  0.81950  Biso   1.000  O
  O67      1.0000 0.67020  0.01830  0.31920  Biso   1.000  O
  O68      1.0000 0.32980  0.98170  0.68080  Biso   1.000  O
  O69      1.0000 0.05210  0.84650  0.27560  Biso   1.000  O
  O70      1.0000 0.94790  0.15350  0.72440  Biso   1.000  O
  O71      1.0000 0.84610  0.61610  0.34260  Biso   1.000  O
  O72      1.0000 0.15390  0.38390  0.65740  Biso   1.000  O
  O73      1.0000 0.79760  0.84740  0.97580  Biso   1.000  O
  O74      1.0000 0.20240  0.15260  0.02420  Biso   1.000  O
  O75      1.0000 0.62460  0.98710  0.04740  Biso   1.000  O
  O76      1.0000 0.37540  0.01290  0.95260  Biso   1.000  O
  O77      1.0000 0.03790  0.76020  0.67420  Biso   1.000  O
  O78      1.0000 0.96210  0.23980  0.32580  Biso   1.000  O
  O79      1.0000 0.94620  0.71610  0.23670  Biso   1.000  O
  O80      1.0000 0.05380  0.28390  0.76330  Biso   1.000  O
