data_image0
_cell_length_a       3.7249
_cell_length_b       6.8465
_cell_length_c       7.4723
_cell_angle_alpha    106.514
_cell_angle_beta     97.56
_cell_angle_gamma    91.716

_symmetry_space_group_name_H-M    "P 1"
_symmetry_int_tables_number       1

loop_
  _symmetry_equiv_pos_as_xyz
  'x, y, z'

loop_
  _atom_site_label
  _atom_site_occupancy
  _atom_site_fract_x
  _atom_site_fract_y
  _atom_site_fract_z
  _atom_site_thermal_displace_type
  _atom_site_B_iso_or_equiv
  _atom_site_type_symbol
  Cu1      1.0000 0.20393  0.44772  0.34607  Biso   1.000  Cu
  Cu2      1.0000 0.79607  0.55228  0.65393  Biso   1.000  Cu
  Cl1      1.0000 0.29053  0.34135  0.63919  Biso   1.000  Cl
  Cl2      1.0000 0.70947  0.65865  0.36081  Biso   1.000  Cl
  N1       1.0000 0.08040  0.18440  0.14440  Biso   1.000  N
  N2       1.0000 0.91960  0.81560  0.85560  Biso   1.000  N
  C1       1.0000 0.89170  0.17600  0.97510  Biso   1.000  C
  C2       1.0000 0.10830  0.82400  0.02490  Biso   1.000  C
  H1       1.0000 0.80970  0.29840  0.95330  Biso   1.000  H
  H2       1.0000 0.19030  0.70160  0.04670  Biso   1.000  H
  C3       1.0000 0.18540  0.00530  0.16730  Biso   1.000  C
  C4       1.0000 0.81460  0.99470  0.83270  Biso   1.000  C
  H3       1.0000 0.31640  0.00390  0.28490  Biso   1.000  H
  H4       1.0000 0.68360  0.99610  0.71510  Biso   1.000  H
