data_image0
_cell_length_a       5.4595
_cell_length_b       14.8087
_cell_length_c       9.6136
_cell_angle_alpha    90
_cell_angle_beta     90.072
_cell_angle_gamma    90

_symmetry_space_group_name_H-M    "P 1"
_symmetry_int_tables_number       1

loop_
  _symmetry_equiv_pos_as_xyz
  'x, y, z'

loop_
  _atom_site_label
  _atom_site_occupancy
  _atom_site_fract_x
  _atom_site_fract_y
  _atom_site_fract_z
  _atom_site_thermal_displace_type
  _atom_site_B_iso_or_equiv
  _atom_site_type_symbol
  Cu1      1.0000 0.74566  0.49689  0.48986  Biso   1.000  Cu
  Cu2      1.0000 0.75434  0.99689  0.01014  Biso   1.000  Cu
  Cu3      1.0000 0.25434  0.50311  0.51014  Biso   1.000  Cu
  Cu4      1.0000 0.24566  0.00311  0.98986  Biso   1.000  Cu
  I1       1.0000 0.51819  0.43532  0.71534  Biso   1.000  I
  I2       1.0000 0.98181  0.93532  0.78466  Biso   1.000  I
  I3       1.0000 0.48181  0.56468  0.28466  Biso   1.000  I
  I4       1.0000 0.01819  0.06468  0.21534  Biso   1.000  I
  S1       1.0000 0.00794  0.37734  0.43597  Biso   1.000  S
  S2       1.0000 0.49206  0.87734  0.06403  Biso   1.000  S
  S3       1.0000 0.99206  0.62266  0.56403  Biso   1.000  S
  S4       1.0000 0.50794  0.12266  0.93597  Biso   1.000  S
  N1       1.0000 0.92470  0.41069  0.15880  Biso   1.000  N
  N2       1.0000 0.57530  0.91069  0.34120  Biso   1.000  N
  N3       1.0000 0.07530  0.58931  0.84120  Biso   1.000  N
  N4       1.0000 0.42470  0.08931  0.65880  Biso   1.000  N
  H1       1.0000 0.81360  0.43810  0.17130  Biso   1.000  H
  H2       1.0000 0.68640  0.93810  0.32870  Biso   1.000  H
  H3       1.0000 0.18640  0.56190  0.82870  Biso   1.000  H
  H4       1.0000 0.31360  0.06190  0.67130  Biso   1.000  H
  N5       1.0000 0.23950  0.32780  0.19670  Biso   1.000  N
  N6       1.0000 0.26050  0.82780  0.30330  Biso   1.000  N
  N7       1.0000 0.76050  0.67220  0.80330  Biso   1.000  N
  N8       1.0000 0.73950  0.17220  0.69670  Biso   1.000  N
  C1       1.0000 0.05730  0.37320  0.26120  Biso   1.000  C
  C2       1.0000 0.44270  0.87320  0.23880  Biso   1.000  C
  C3       1.0000 0.94270  0.62680  0.73880  Biso   1.000  C
  C4       1.0000 0.55730  0.12680  0.76120  Biso   1.000  C
  C5       1.0000 0.02030  0.39020  0.03090  Biso   1.000  C
  C6       1.0000 0.47970  0.89020  0.46910  Biso   1.000  C
  C7       1.0000 0.97970  0.60980  0.96910  Biso   1.000  C
  C8       1.0000 0.52030  0.10980  0.53090  Biso   1.000  C
  H5       1.0000 0.92780  0.41210  0.93780  Biso   1.000  H
  H6       1.0000 0.57220  0.91210  0.56220  Biso   1.000  H
  H7       1.0000 0.07220  0.58790  0.06220  Biso   1.000  H
  H8       1.0000 0.42780  0.08790  0.43780  Biso   1.000  H
  C9       1.0000 0.21850  0.33820  0.05480  Biso   1.000  C
  C10      1.0000 0.28150  0.83820  0.44520  Biso   1.000  C
  C11      1.0000 0.78150  0.66180  0.94520  Biso   1.000  C
  C12      1.0000 0.71850  0.16180  0.55480  Biso   1.000  C
  H9       1.0000 0.32850  0.31340  0.99710  Biso   1.000  H
  H10      1.0000 0.17150  0.81340  0.50290  Biso   1.000  H
  H11      1.0000 0.67150  0.68660  0.00290  Biso   1.000  H
  H12      1.0000 0.82850  0.18660  0.49710  Biso   1.000  H
  C13      1.0000 0.43070  0.27750  0.26900  Biso   1.000  C
  C14      1.0000 0.06930  0.77750  0.23100  Biso   1.000  C
  C15      1.0000 0.56930  0.72250  0.73100  Biso   1.000  C
  C16      1.0000 0.93070  0.22250  0.76900  Biso   1.000  C
  H13      1.0000 0.51230  0.31790  0.33690  Biso   1.000  H
  H14      1.0000 0.98770  0.81790  0.16310  Biso   1.000  H
  H15      1.0000 0.48770  0.68210  0.66310  Biso   1.000  H
  H16      1.0000 0.01230  0.18210  0.83690  Biso   1.000  H
  H17      1.0000 0.35800  0.22870  0.32210  Biso   1.000  H
  H18      1.0000 0.14200  0.72870  0.17790  Biso   1.000  H
  H19      1.0000 0.64200  0.77130  0.67790  Biso   1.000  H
  H20      1.0000 0.85800  0.27130  0.82210  Biso   1.000  H
  H21      1.0000 0.54050  0.25830  0.21100  Biso   1.000  H
  H22      1.0000 0.95950  0.75830  0.28900  Biso   1.000  H
  H23      1.0000 0.45950  0.74170  0.78900  Biso   1.000  H
  H24      1.0000 0.04050  0.24170  0.71100  Biso   1.000  H
