data_image0
_cell_length_a       6.543
_cell_length_b       12.19
_cell_length_c       12.043
_cell_angle_alpha    90
_cell_angle_beta     105.3
_cell_angle_gamma    90

_symmetry_space_group_name_H-M    "P 1"
_symmetry_int_tables_number       1

loop_
  _symmetry_equiv_pos_as_xyz
  'x, y, z'

loop_
  _atom_site_label
  _atom_site_occupancy
  _atom_site_fract_x
  _atom_site_fract_y
  _atom_site_fract_z
  _atom_site_thermal_displace_type
  _atom_site_B_iso_or_equiv
  _atom_site_type_symbol
  Cu1      1.0000 0.93363  0.12059  0.49838  Biso   1.000  Cu
  Cu2      1.0000 0.56637  0.62059  0.00162  Biso   1.000  Cu
  Cu3      1.0000 0.06637  0.87941  0.50162  Biso   1.000  Cu
  Cu4      1.0000 0.43363  0.37941  0.99838  Biso   1.000  Cu
  P1       1.0000 0.62890  0.20331  0.46538  Biso   1.000  P
  P2       1.0000 0.87110  0.70331  0.03462  Biso   1.000  P
  P3       1.0000 0.37110  0.79669  0.53462  Biso   1.000  P
  P4       1.0000 0.12890  0.29669  0.96538  Biso   1.000  P
  N1       1.0000 0.38700  0.38415  0.48734  Biso   1.000  N
  N2       1.0000 0.11300  0.88415  0.01266  Biso   1.000  N
  N3       1.0000 0.61300  0.61585  0.51266  Biso   1.000  N
  N4       1.0000 0.88700  0.11585  0.98734  Biso   1.000  N
  N5       1.0000 0.19916  0.20613  0.46660  Biso   1.000  N
  N6       1.0000 0.30084  0.70613  0.03340  Biso   1.000  N
  N7       1.0000 0.80084  0.79387  0.53340  Biso   1.000  N
  N8       1.0000 0.69916  0.29387  0.96660  Biso   1.000  N
  N9       1.0000 0.29120  0.29205  0.29826  Biso   1.000  N
  N10      1.0000 0.20880  0.79205  0.20174  Biso   1.000  N
  N11      1.0000 0.70880  0.70795  0.70174  Biso   1.000  N
  N12      1.0000 0.79120  0.20795  0.79826  Biso   1.000  N
  C1       1.0000 0.39660  0.13893  0.50170  Biso   1.000  C
  C2       1.0000 0.10340  0.63893  0.99830  Biso   1.000  C
  C3       1.0000 0.60340  0.86107  0.49830  Biso   1.000  C
  C4       1.0000 0.89660  0.36107  0.00170  Biso   1.000  C
  H1       1.0000 0.36960  0.06650  0.46340  Biso   1.000  H
  H2       1.0000 0.13040  0.56650  0.03660  Biso   1.000  H
  H3       1.0000 0.63040  0.93350  0.53660  Biso   1.000  H
  H4       1.0000 0.86960  0.43350  0.96340  Biso   1.000  H
  H5       1.0000 0.43150  0.12640  0.58580  Biso   1.000  H
  H6       1.0000 0.06850  0.62640  0.91420  Biso   1.000  H
  H7       1.0000 0.56850  0.87360  0.41420  Biso   1.000  H
  H8       1.0000 0.93150  0.37360  0.08580  Biso   1.000  H
  C5       1.0000 0.14070  0.22545  0.33932  Biso   1.000  C
  C6       1.0000 0.35930  0.72545  0.16068  Biso   1.000  C
  C7       1.0000 0.85930  0.77455  0.66068  Biso   1.000  C
  C8       1.0000 0.64070  0.27455  0.83932  Biso   1.000  C
  H9       1.0000 0.12630  0.15350  0.29990  Biso   1.000  H
  H10      1.0000 0.37370  0.65350  0.20010  Biso   1.000  H
  H11      1.0000 0.87370  0.84650  0.70010  Biso   1.000  H
  H12      1.0000 0.62630  0.34650  0.79990  Biso   1.000  H
  H13      1.0000 0.00050  0.26180  0.31690  Biso   1.000  H
  H14      1.0000 0.49950  0.76180  0.18310  Biso   1.000  H
  H15      1.0000 0.99950  0.73820  0.68310  Biso   1.000  H
  H16      1.0000 0.50050  0.23820  0.81690  Biso   1.000  H
  C9       1.0000 0.23300  0.31601  0.52357  Biso   1.000  C
  C10      1.0000 0.26700  0.81601  0.97643  Biso   1.000  C
  C11      1.0000 0.76700  0.68399  0.47643  Biso   1.000  C
  C12      1.0000 0.73300  0.18399  0.02357  Biso   1.000  C
  H17      1.0000 0.09580  0.35530  0.50650  Biso   1.000  H
  H18      1.0000 0.40420  0.85530  0.99350  Biso   1.000  H
  H19      1.0000 0.90420  0.64470  0.49350  Biso   1.000  H
  H20      1.0000 0.59580  0.14470  0.00650  Biso   1.000  H
  H21      1.0000 0.28140  0.30540  0.60800  Biso   1.000  H
  H22      1.0000 0.21860  0.80540  0.89200  Biso   1.000  H
  H23      1.0000 0.71860  0.69460  0.39200  Biso   1.000  H
  H24      1.0000 0.78140  0.19460  0.10800  Biso   1.000  H
  C13      1.0000 0.60390  0.34073  0.52585  Biso   1.000  C
  C14      1.0000 0.89610  0.84073  0.97415  Biso   1.000  C
  C15      1.0000 0.39610  0.65927  0.47415  Biso   1.000  C
  C16      1.0000 0.10390  0.15927  0.02585  Biso   1.000  C
  H25      1.0000 0.64600  0.33620  0.61090  Biso   1.000  H
  H26      1.0000 0.85400  0.83620  0.88910  Biso   1.000  H
  H27      1.0000 0.35400  0.66380  0.38910  Biso   1.000  H
  H28      1.0000 0.14600  0.16380  0.11090  Biso   1.000  H
  H29      1.0000 0.70220  0.39200  0.50240  Biso   1.000  H
  H30      1.0000 0.79780  0.89200  0.99760  Biso   1.000  H
  H31      1.0000 0.29780  0.60800  0.49760  Biso   1.000  H
  H32      1.0000 0.20220  0.10800  0.00240  Biso   1.000  H
  C17      1.0000 0.49570  0.23446  0.31238  Biso   1.000  C
  C18      1.0000 0.00430  0.73446  0.18762  Biso   1.000  C
  C19      1.0000 0.50430  0.76554  0.68762  Biso   1.000  C
  C20      1.0000 0.99570  0.26554  0.81238  Biso   1.000  C
  H33      1.0000 0.59060  0.28060  0.28010  Biso   1.000  H
  H34      1.0000 0.90940  0.78060  0.21990  Biso   1.000  H
  H35      1.0000 0.40940  0.71940  0.71990  Biso   1.000  H
  H36      1.0000 0.09060  0.21940  0.78010  Biso   1.000  H
  H37      1.0000 0.47070  0.16510  0.26810  Biso   1.000  H
  H38      1.0000 0.02930  0.66510  0.23190  Biso   1.000  H
  H39      1.0000 0.52930  0.83490  0.73190  Biso   1.000  H
  H40      1.0000 0.97070  0.33490  0.76810  Biso   1.000  H
  C21      1.0000 0.32160  0.39746  0.36153  Biso   1.000  C
  C22      1.0000 0.17840  0.89746  0.13847  Biso   1.000  C
  C23      1.0000 0.67840  0.60254  0.63847  Biso   1.000  C
  C24      1.0000 0.82160  0.10254  0.86153  Biso   1.000  C
  H41      1.0000 0.43050  0.44090  0.33750  Biso   1.000  H
  H42      1.0000 0.06950  0.94090  0.16250  Biso   1.000  H
  H43      1.0000 0.56950  0.55910  0.66250  Biso   1.000  H
  H44      1.0000 0.93050  0.05910  0.83750  Biso   1.000  H
  H45      1.0000 0.18740  0.43940  0.34000  Biso   1.000  H
  H46      1.0000 0.31260  0.93940  0.16000  Biso   1.000  H
  H47      1.0000 0.81260  0.56060  0.66000  Biso   1.000  H
  H48      1.0000 0.68740  0.06060  0.84000  Biso   1.000  H
  N13      1.0000 0.06630  0.01034  0.62530  Biso   1.000  N
  N14      1.0000 0.43370  0.51034  0.87470  Biso   1.000  N
  N15      1.0000 0.93370  0.98966  0.37470  Biso   1.000  N
  N16      1.0000 0.56630  0.48966  0.12530  Biso   1.000  N
  N17      1.0000 0.19240  0.01803  0.71365  Biso   1.000  N
  N18      1.0000 0.30760  0.51803  0.78635  Biso   1.000  N
  N19      1.0000 0.80760  0.98197  0.28635  Biso   1.000  N
  N20      1.0000 0.69240  0.48197  0.21365  Biso   1.000  N
  N21      1.0000 0.31750  0.02372  0.80458  Biso   1.000  N
  N22      1.0000 0.18250  0.52372  0.69542  Biso   1.000  N
  N23      1.0000 0.68250  0.97628  0.19542  Biso   1.000  N
  N24      1.0000 0.81750  0.47628  0.30458  Biso   1.000  N
