data_image0
_cell_length_a       17.636
_cell_length_b       17.636
_cell_length_c       13.5345
_cell_angle_alpha    90
_cell_angle_beta     90
_cell_angle_gamma    90

_symmetry_space_group_name_H-M    "P 1"
_symmetry_int_tables_number       1

loop_
  _symmetry_equiv_pos_as_xyz
  'x, y, z'

loop_
  _atom_site_label
  _atom_site_occupancy
  _atom_site_fract_x
  _atom_site_fract_y
  _atom_site_fract_z
  _atom_site_thermal_displace_type
  _atom_site_B_iso_or_equiv
  _atom_site_type_symbol
  Cu1      1.0000 0.26454  0.51394  0.04693  Biso   1.000  Cu
  Cu2      1.0000 0.23546  0.48606  0.54693  Biso   1.000  Cu
  Cu3      1.0000 0.23606  0.51454  0.29693  Biso   1.000  Cu
  Cu4      1.0000 0.26394  0.48546  0.79693  Biso   1.000  Cu
  Cu5      1.0000 0.76454  0.01394  0.54693  Biso   1.000  Cu
  Cu6      1.0000 0.73546  0.98606  0.04693  Biso   1.000  Cu
  Cu7      1.0000 0.73606  0.01454  0.79693  Biso   1.000  Cu
  Cu8      1.0000 0.76394  0.98546  0.29693  Biso   1.000  Cu
  Cu9      1.0000 0.73546  0.48606  0.95307  Biso   1.000  Cu
  Cu10     1.0000 0.76454  0.51394  0.45307  Biso   1.000  Cu
  Cu11     1.0000 0.26394  0.98546  0.20307  Biso   1.000  Cu
  Cu12     1.0000 0.23606  0.01454  0.70307  Biso   1.000  Cu
  Cu13     1.0000 0.23546  0.98606  0.45307  Biso   1.000  Cu
  Cu14     1.0000 0.26454  0.01394  0.95307  Biso   1.000  Cu
  Cu15     1.0000 0.76394  0.48546  0.70307  Biso   1.000  Cu
  Cu16     1.0000 0.73606  0.51454  0.20307  Biso   1.000  Cu
  Cl1      1.0000 0.25754  0.41198  0.94105  Biso   1.000  Cl
  Cl2      1.0000 0.24246  0.58802  0.44105  Biso   1.000  Cl
  Cl3      1.0000 0.33802  0.50754  0.19105  Biso   1.000  Cl
  Cl4      1.0000 0.16198  0.49246  0.69105  Biso   1.000  Cl
  Cl5      1.0000 0.75754  0.91198  0.44105  Biso   1.000  Cl
  Cl6      1.0000 0.74246  0.08802  0.94105  Biso   1.000  Cl
  Cl7      1.0000 0.83802  0.00754  0.69105  Biso   1.000  Cl
  Cl8      1.0000 0.66198  0.99246  0.19105  Biso   1.000  Cl
  Cl9      1.0000 0.74246  0.58802  0.05895  Biso   1.000  Cl
  Cl10     1.0000 0.75754  0.41198  0.55895  Biso   1.000  Cl
  Cl11     1.0000 0.16198  0.99246  0.30895  Biso   1.000  Cl
  Cl12     1.0000 0.33802  0.00754  0.80895  Biso   1.000  Cl
  Cl13     1.0000 0.24246  0.08802  0.55895  Biso   1.000  Cl
  Cl14     1.0000 0.25754  0.91198  0.05895  Biso   1.000  Cl
  Cl15     1.0000 0.66198  0.49246  0.80895  Biso   1.000  Cl
  Cl16     1.0000 0.83802  0.50754  0.30895  Biso   1.000  Cl
  N1       1.0000 0.33113  0.66669  0.96540  Biso   1.000  N
  N2       1.0000 0.16887  0.33331  0.46540  Biso   1.000  N
  N3       1.0000 0.08331  0.58113  0.21540  Biso   1.000  N
  N4       1.0000 0.41669  0.41887  0.71540  Biso   1.000  N
  N5       1.0000 0.83113  0.16669  0.46540  Biso   1.000  N
  N6       1.0000 0.66887  0.83331  0.96540  Biso   1.000  N
  N7       1.0000 0.58331  0.08113  0.71540  Biso   1.000  N
  N8       1.0000 0.91669  0.91887  0.21540  Biso   1.000  N
  N9       1.0000 0.66887  0.33331  0.03460  Biso   1.000  N
  N10      1.0000 0.83113  0.66669  0.53460  Biso   1.000  N
  N11      1.0000 0.41669  0.91887  0.28460  Biso   1.000  N
  N12      1.0000 0.08331  0.08113  0.78460  Biso   1.000  N
  N13      1.0000 0.16887  0.83331  0.53460  Biso   1.000  N
  N14      1.0000 0.33113  0.16669  0.03460  Biso   1.000  N
  N15      1.0000 0.91669  0.41887  0.78460  Biso   1.000  N
  N16      1.0000 0.58331  0.58113  0.28460  Biso   1.000  N
  N17      1.0000 0.30205  0.59782  0.94800  Biso   1.000  N
  N18      1.0000 0.19795  0.40218  0.44800  Biso   1.000  N
  N19      1.0000 0.15218  0.55205  0.19800  Biso   1.000  N
  N20      1.0000 0.34782  0.44795  0.69800  Biso   1.000  N
  N21      1.0000 0.80205  0.09782  0.44800  Biso   1.000  N
  N22      1.0000 0.69795  0.90218  0.94800  Biso   1.000  N
  N23      1.0000 0.65218  0.05205  0.69800  Biso   1.000  N
  N24      1.0000 0.84782  0.94795  0.19800  Biso   1.000  N
  N25      1.0000 0.69795  0.40218  0.05200  Biso   1.000  N
  N26      1.0000 0.80205  0.59782  0.55200  Biso   1.000  N
  N27      1.0000 0.34782  0.94795  0.30200  Biso   1.000  N
  N28      1.0000 0.15218  0.05205  0.80200  Biso   1.000  N
  N29      1.0000 0.19795  0.90218  0.55200  Biso   1.000  N
  N30      1.0000 0.30205  0.09782  0.05200  Biso   1.000  N
  N31      1.0000 0.84782  0.44795  0.80200  Biso   1.000  N
  N32      1.0000 0.65218  0.55205  0.30200  Biso   1.000  N
  N33      1.0000 0.29545  0.58868  0.85170  Biso   1.000  N
  N34      1.0000 0.20455  0.41132  0.35170  Biso   1.000  N
  N35      1.0000 0.16132  0.54545  0.10170  Biso   1.000  N
  N36      1.0000 0.33868  0.45455  0.60170  Biso   1.000  N
  N37      1.0000 0.79545  0.08868  0.35170  Biso   1.000  N
  N38      1.0000 0.70455  0.91132  0.85170  Biso   1.000  N
  N39      1.0000 0.66132  0.04545  0.60170  Biso   1.000  N
  N40      1.0000 0.83868  0.95455  0.10170  Biso   1.000  N
  N41      1.0000 0.70455  0.41132  0.14830  Biso   1.000  N
  N42      1.0000 0.79545  0.58868  0.64830  Biso   1.000  N
  N43      1.0000 0.33868  0.95455  0.39830  Biso   1.000  N
  N44      1.0000 0.16132  0.04545  0.89830  Biso   1.000  N
  N45      1.0000 0.20455  0.91132  0.64830  Biso   1.000  N
  N46      1.0000 0.29545  0.08868  0.14830  Biso   1.000  N
  N47      1.0000 0.83868  0.45455  0.89830  Biso   1.000  N
  N48      1.0000 0.66132  0.54545  0.39830  Biso   1.000  N
  C1       1.0000 0.32020  0.65350  0.80650  Biso   1.000  C
  C2       1.0000 0.17980  0.34650  0.30650  Biso   1.000  C
  C3       1.0000 0.09650  0.57020  0.05650  Biso   1.000  C
  C4       1.0000 0.40350  0.42980  0.55650  Biso   1.000  C
  C5       1.0000 0.82020  0.15350  0.30650  Biso   1.000  C
  C6       1.0000 0.67980  0.84650  0.80650  Biso   1.000  C
  C7       1.0000 0.59650  0.07020  0.55650  Biso   1.000  C
  C8       1.0000 0.90350  0.92980  0.05650  Biso   1.000  C
  C9       1.0000 0.67980  0.34650  0.19350  Biso   1.000  C
  C10      1.0000 0.82020  0.65350  0.69350  Biso   1.000  C
  C11      1.0000 0.40350  0.92980  0.44350  Biso   1.000  C
  C12      1.0000 0.09650  0.07020  0.94350  Biso   1.000  C
  C13      1.0000 0.17980  0.84650  0.69350  Biso   1.000  C
  C14      1.0000 0.32020  0.15350  0.19350  Biso   1.000  C
  C15      1.0000 0.90350  0.42980  0.94350  Biso   1.000  C
  C16      1.0000 0.59650  0.57020  0.44350  Biso   1.000  C
  C17      1.0000 0.34250  0.70400  0.87900  Biso   1.000  C
  C18      1.0000 0.15750  0.29600  0.37900  Biso   1.000  C
  C19      1.0000 0.04600  0.59250  0.12900  Biso   1.000  C
  C20      1.0000 0.45400  0.40750  0.62900  Biso   1.000  C
  C21      1.0000 0.84250  0.20400  0.37900  Biso   1.000  C
  C22      1.0000 0.65750  0.79600  0.87900  Biso   1.000  C
  C23      1.0000 0.54600  0.09250  0.62900  Biso   1.000  C
  C24      1.0000 0.95400  0.90750  0.12900  Biso   1.000  C
  C25      1.0000 0.65750  0.29600  0.12100  Biso   1.000  C
  C26      1.0000 0.84250  0.70400  0.62100  Biso   1.000  C
  C27      1.0000 0.45400  0.90750  0.37100  Biso   1.000  C
  C28      1.0000 0.04600  0.09250  0.87100  Biso   1.000  C
  C29      1.0000 0.15750  0.79600  0.62100  Biso   1.000  C
  C30      1.0000 0.34250  0.20400  0.12100  Biso   1.000  C
  C31      1.0000 0.95400  0.40750  0.87100  Biso   1.000  C
  C32      1.0000 0.54600  0.59250  0.37100  Biso   1.000  C
  C33      1.0000 0.36860  0.77670  0.85680  Biso   1.000  C
  C34      1.0000 0.13140  0.22330  0.35680  Biso   1.000  C
  C35      1.0000 0.97330  0.61860  0.10680  Biso   1.000  C
  C36      1.0000 0.52670  0.38140  0.60680  Biso   1.000  C
  C37      1.0000 0.86860  0.27670  0.35680  Biso   1.000  C
  C38      1.0000 0.63140  0.72330  0.85680  Biso   1.000  C
  C39      1.0000 0.47330  0.11860  0.60680  Biso   1.000  C
  C40      1.0000 0.02670  0.88140  0.10680  Biso   1.000  C
  C41      1.0000 0.63140  0.22330  0.14320  Biso   1.000  C
  C42      1.0000 0.86860  0.77670  0.64320  Biso   1.000  C
  C43      1.0000 0.52670  0.88140  0.39320  Biso   1.000  C
  C44      1.0000 0.97330  0.11860  0.89320  Biso   1.000  C
  C45      1.0000 0.13140  0.72330  0.64320  Biso   1.000  C
  C46      1.0000 0.36860  0.27670  0.14320  Biso   1.000  C
  C47      1.0000 0.02670  0.38140  0.89320  Biso   1.000  C
  C48      1.0000 0.47330  0.61860  0.39320  Biso   1.000  C
  H1       1.0000 0.38290  0.81090  0.90560  Biso   1.000  H
  H2       1.0000 0.11710  0.18910  0.40560  Biso   1.000  H
  H3       1.0000 0.93910  0.63290  0.15560  Biso   1.000  H
  H4       1.0000 0.56090  0.36710  0.65560  Biso   1.000  H
  H5       1.0000 0.88290  0.31090  0.40560  Biso   1.000  H
  H6       1.0000 0.61710  0.68910  0.90560  Biso   1.000  H
  H7       1.0000 0.43910  0.13290  0.65560  Biso   1.000  H
  H8       1.0000 0.06090  0.86710  0.15560  Biso   1.000  H
  H9       1.0000 0.61710  0.18910  0.09440  Biso   1.000  H
  H10      1.0000 0.88290  0.81090  0.59440  Biso   1.000  H
  H11      1.0000 0.56090  0.86710  0.34440  Biso   1.000  H
  H12      1.0000 0.93910  0.13290  0.84440  Biso   1.000  H
  H13      1.0000 0.11710  0.68910  0.59440  Biso   1.000  H
  H14      1.0000 0.38290  0.31090  0.09440  Biso   1.000  H
  H15      1.0000 0.06090  0.36710  0.84440  Biso   1.000  H
  H16      1.0000 0.43910  0.63290  0.34440  Biso   1.000  H
  C49      1.0000 0.37190  0.79420  0.75910  Biso   1.000  C
  C50      1.0000 0.12810  0.20580  0.25910  Biso   1.000  C
  C51      1.0000 0.95580  0.62190  0.00910  Biso   1.000  C
  C52      1.0000 0.54420  0.37810  0.50910  Biso   1.000  C
  C53      1.0000 0.87190  0.29420  0.25910  Biso   1.000  C
  C54      1.0000 0.62810  0.70580  0.75910  Biso   1.000  C
  C55      1.0000 0.45580  0.12190  0.50910  Biso   1.000  C
  C56      1.0000 0.04420  0.87810  0.00910  Biso   1.000  C
  C57      1.0000 0.62810  0.20580  0.24090  Biso   1.000  C
  C58      1.0000 0.87190  0.79420  0.74090  Biso   1.000  C
  C59      1.0000 0.54420  0.87810  0.49090  Biso   1.000  C
  C60      1.0000 0.95580  0.12190  0.99090  Biso   1.000  C
  C61      1.0000 0.12810  0.70580  0.74090  Biso   1.000  C
  C62      1.0000 0.37190  0.29420  0.24090  Biso   1.000  C
  C63      1.0000 0.04420  0.37810  0.99090  Biso   1.000  C
  C64      1.0000 0.45580  0.62190  0.49090  Biso   1.000  C
  H17      1.0000 0.38880  0.84210  0.74080  Biso   1.000  H
  H18      1.0000 0.11120  0.15790  0.24080  Biso   1.000  H
  H19      1.0000 0.90790  0.63880  0.99080  Biso   1.000  H
  H20      1.0000 0.59210  0.36120  0.49080  Biso   1.000  H
  H21      1.0000 0.88880  0.34210  0.24080  Biso   1.000  H
  H22      1.0000 0.61120  0.65790  0.74080  Biso   1.000  H
  H23      1.0000 0.40790  0.13880  0.49080  Biso   1.000  H
  H24      1.0000 0.09210  0.86120  0.99080  Biso   1.000  H
  H25      1.0000 0.61120  0.15790  0.25920  Biso   1.000  H
  H26      1.0000 0.88880  0.84210  0.75920  Biso   1.000  H
  H27      1.0000 0.59210  0.86120  0.50920  Biso   1.000  H
  H28      1.0000 0.90790  0.13880  0.00920  Biso   1.000  H
  H29      1.0000 0.11120  0.65790  0.75920  Biso   1.000  H
  H30      1.0000 0.38880  0.34210  0.25920  Biso   1.000  H
  H31      1.0000 0.09210  0.36120  0.00920  Biso   1.000  H
  H32      1.0000 0.40790  0.63880  0.50920  Biso   1.000  H
  C65      1.0000 0.35090  0.74340  0.68550  Biso   1.000  C
  C66      1.0000 0.14910  0.25660  0.18550  Biso   1.000  C
  C67      1.0000 0.00660  0.60090  0.93550  Biso   1.000  C
  C68      1.0000 0.49340  0.39910  0.43550  Biso   1.000  C
  C69      1.0000 0.85090  0.24340  0.18550  Biso   1.000  C
  C70      1.0000 0.64910  0.75660  0.68550  Biso   1.000  C
  C71      1.0000 0.50660  0.10090  0.43550  Biso   1.000  C
  C72      1.0000 0.99340  0.89910  0.93550  Biso   1.000  C
  C73      1.0000 0.64910  0.25660  0.31450  Biso   1.000  C
  C74      1.0000 0.85090  0.74340  0.81450  Biso   1.000  C
  C75      1.0000 0.49340  0.89910  0.56450  Biso   1.000  C
  C76      1.0000 0.00660  0.10090  0.06450  Biso   1.000  C
  C77      1.0000 0.14910  0.75660  0.81450  Biso   1.000  C
  C78      1.0000 0.35090  0.24340  0.31450  Biso   1.000  C
  C79      1.0000 0.99340  0.39910  0.06450  Biso   1.000  C
  C80      1.0000 0.50660  0.60090  0.56450  Biso   1.000  C
  H33      1.0000 0.35520  0.75820  0.61980  Biso   1.000  H
  H34      1.0000 0.14480  0.24180  0.11980  Biso   1.000  H
  H35      1.0000 0.99180  0.60520  0.86980  Biso   1.000  H
  H36      1.0000 0.50820  0.39480  0.36980  Biso   1.000  H
  H37      1.0000 0.85520  0.25820  0.11980  Biso   1.000  H
  H38      1.0000 0.64480  0.74180  0.61980  Biso   1.000  H
  H39      1.0000 0.49180  0.10520  0.36980  Biso   1.000  H
  H40      1.0000 0.00820  0.89480  0.86980  Biso   1.000  H
  H41      1.0000 0.64480  0.24180  0.38020  Biso   1.000  H
  H42      1.0000 0.85520  0.75820  0.88020  Biso   1.000  H
  H43      1.0000 0.50820  0.89480  0.63020  Biso   1.000  H
  H44      1.0000 0.99180  0.10520  0.13020  Biso   1.000  H
  H45      1.0000 0.14480  0.74180  0.88020  Biso   1.000  H
  H46      1.0000 0.35520  0.25820  0.38020  Biso   1.000  H
  H47      1.0000 0.00820  0.39480  0.13020  Biso   1.000  H
  H48      1.0000 0.49180  0.60520  0.63020  Biso   1.000  H
  C81      1.0000 0.32410  0.67260  0.70630  Biso   1.000  C
  C82      1.0000 0.17590  0.32740  0.20630  Biso   1.000  C
  C83      1.0000 0.07740  0.57410  0.95630  Biso   1.000  C
  C84      1.0000 0.42260  0.42590  0.45630  Biso   1.000  C
  C85      1.0000 0.82410  0.17260  0.20630  Biso   1.000  C
  C86      1.0000 0.67590  0.82740  0.70630  Biso   1.000  C
  C87      1.0000 0.57740  0.07410  0.45630  Biso   1.000  C
  C88      1.0000 0.92260  0.92590  0.95630  Biso   1.000  C
  C89      1.0000 0.67590  0.32740  0.29370  Biso   1.000  C
  C90      1.0000 0.82410  0.67260  0.79370  Biso   1.000  C
  C91      1.0000 0.42260  0.92590  0.54370  Biso   1.000  C
  C92      1.0000 0.07740  0.07410  0.04370  Biso   1.000  C
  C93      1.0000 0.17590  0.82740  0.79370  Biso   1.000  C
  C94      1.0000 0.32410  0.17260  0.29370  Biso   1.000  C
  C95      1.0000 0.92260  0.42590  0.04370  Biso   1.000  C
  C96      1.0000 0.57740  0.57410  0.54370  Biso   1.000  C
  H49      1.0000 0.30930  0.63910  0.65690  Biso   1.000  H
  H50      1.0000 0.19070  0.36090  0.15690  Biso   1.000  H
  H51      1.0000 0.11090  0.55930  0.90690  Biso   1.000  H
  H52      1.0000 0.38910  0.44070  0.40690  Biso   1.000  H
  H53      1.0000 0.80930  0.13910  0.15690  Biso   1.000  H
  H54      1.0000 0.69070  0.86090  0.65690  Biso   1.000  H
  H55      1.0000 0.61090  0.05930  0.40690  Biso   1.000  H
  H56      1.0000 0.88910  0.94070  0.90690  Biso   1.000  H
  H57      1.0000 0.69070  0.36090  0.34310  Biso   1.000  H
  H58      1.0000 0.80930  0.63910  0.84310  Biso   1.000  H
  H59      1.0000 0.38910  0.94070  0.59310  Biso   1.000  H
  H60      1.0000 0.11090  0.05930  0.09310  Biso   1.000  H
  H61      1.0000 0.19070  0.86090  0.84310  Biso   1.000  H
  H62      1.0000 0.30930  0.13910  0.34310  Biso   1.000  H
  H63      1.0000 0.88910  0.44070  0.09310  Biso   1.000  H
  H64      1.0000 0.61090  0.55930  0.59310  Biso   1.000  H
  C97      1.0000 0.34320  0.69200  0.06680  Biso   1.000  C
  C98      1.0000 0.15680  0.30800  0.56680  Biso   1.000  C
  C99      1.0000 0.05800  0.59320  0.31680  Biso   1.000  C
  C100     1.0000 0.44200  0.40680  0.81680  Biso   1.000  C
  C101     1.0000 0.84320  0.19200  0.56680  Biso   1.000  C
  C102     1.0000 0.65680  0.80800  0.06680  Biso   1.000  C
  C103     1.0000 0.55800  0.09320  0.81680  Biso   1.000  C
  C104     1.0000 0.94200  0.90680  0.31680  Biso   1.000  C
  C105     1.0000 0.65680  0.30800  0.93320  Biso   1.000  C
  C106     1.0000 0.84320  0.69200  0.43320  Biso   1.000  C
  C107     1.0000 0.44200  0.90680  0.18320  Biso   1.000  C
  C108     1.0000 0.05800  0.09320  0.68320  Biso   1.000  C
  C109     1.0000 0.15680  0.80800  0.43320  Biso   1.000  C
  C110     1.0000 0.34320  0.19200  0.93320  Biso   1.000  C
  C111     1.0000 0.94200  0.40680  0.68320  Biso   1.000  C
  C112     1.0000 0.55800  0.59320  0.18320  Biso   1.000  C
  H65      1.0000 0.37830  0.73430  0.06660  Biso   1.000  H
  H66      1.0000 0.12170  0.26570  0.56660  Biso   1.000  H
  H67      1.0000 0.01570  0.62830  0.31660  Biso   1.000  H
  H68      1.0000 0.48430  0.37170  0.81660  Biso   1.000  H
  H69      1.0000 0.87830  0.23430  0.56660  Biso   1.000  H
  H70      1.0000 0.62170  0.76570  0.06660  Biso   1.000  H
  H71      1.0000 0.51570  0.12830  0.81660  Biso   1.000  H
  H72      1.0000 0.98430  0.87170  0.31660  Biso   1.000  H
  H73      1.0000 0.62170  0.26570  0.93340  Biso   1.000  H
  H74      1.0000 0.87830  0.73430  0.43340  Biso   1.000  H
  H75      1.0000 0.48430  0.87170  0.18340  Biso   1.000  H
  H76      1.0000 0.01570  0.12830  0.68340  Biso   1.000  H
  H77      1.0000 0.12170  0.76570  0.43340  Biso   1.000  H
  H78      1.0000 0.37830  0.23430  0.93340  Biso   1.000  H
  H79      1.0000 0.98430  0.37170  0.68340  Biso   1.000  H
  H80      1.0000 0.51570  0.62830  0.18340  Biso   1.000  H
  H81      1.0000 0.36620  0.65120  0.10430  Biso   1.000  H
  H82      1.0000 0.13380  0.34880  0.60430  Biso   1.000  H
  H83      1.0000 0.09880  0.61620  0.35430  Biso   1.000  H
  H84      1.0000 0.40120  0.38380  0.85430  Biso   1.000  H
  H85      1.0000 0.86620  0.15120  0.60430  Biso   1.000  H
  H86      1.0000 0.63380  0.84880  0.10430  Biso   1.000  H
  H87      1.0000 0.59880  0.11620  0.85430  Biso   1.000  H
  H88      1.0000 0.90120  0.88380  0.35430  Biso   1.000  H
  H89      1.0000 0.63380  0.34880  0.89570  Biso   1.000  H
  H90      1.0000 0.86620  0.65120  0.39570  Biso   1.000  H
  H91      1.0000 0.40120  0.88380  0.14570  Biso   1.000  H
  H92      1.0000 0.09880  0.11620  0.64570  Biso   1.000  H
  H93      1.0000 0.13380  0.84880  0.39570  Biso   1.000  H
  H94      1.0000 0.36620  0.15120  0.89570  Biso   1.000  H
  H95      1.0000 0.90120  0.38380  0.64570  Biso   1.000  H
  H96      1.0000 0.59880  0.61620  0.14570  Biso   1.000  H
  C113     1.0000 0.27170  0.71570  0.11660  Biso   1.000  C
  C114     1.0000 0.22830  0.28430  0.61660  Biso   1.000  C
  C115     1.0000 0.03430  0.52170  0.36660  Biso   1.000  C
  C116     1.0000 0.46570  0.47830  0.86660  Biso   1.000  C
  C117     1.0000 0.77170  0.21570  0.61660  Biso   1.000  C
  C118     1.0000 0.72830  0.78430  0.11660  Biso   1.000  C
  C119     1.0000 0.53430  0.02170  0.86660  Biso   1.000  C
  C120     1.0000 0.96570  0.97830  0.36660  Biso   1.000  C
  C121     1.0000 0.72830  0.28430  0.88340  Biso   1.000  C
  C122     1.0000 0.77170  0.71570  0.38340  Biso   1.000  C
  C123     1.0000 0.46570  0.97830  0.13340  Biso   1.000  C
  C124     1.0000 0.03430  0.02170  0.63340  Biso   1.000  C
  C125     1.0000 0.22830  0.78430  0.38340  Biso   1.000  C
  C126     1.0000 0.27170  0.21570  0.88340  Biso   1.000  C
  C127     1.0000 0.96570  0.47830  0.63340  Biso   1.000  C
  C128     1.0000 0.53430  0.52170  0.13340  Biso   1.000  C
  H97      1.0000 0.23540  0.67450  0.11370  Biso   1.000  H
  H98      1.0000 0.26460  0.32550  0.61370  Biso   1.000  H
  H99      1.0000 0.07550  0.48540  0.36370  Biso   1.000  H
  H100     1.0000 0.42450  0.51460  0.86370  Biso   1.000  H
  H101     1.0000 0.73540  0.17450  0.61370  Biso   1.000  H
  H102     1.0000 0.76460  0.82550  0.11370  Biso   1.000  H
  H103     1.0000 0.57550  0.98540  0.86370  Biso   1.000  H
  H104     1.0000 0.92450  0.01460  0.36370  Biso   1.000  H
  H105     1.0000 0.76460  0.32550  0.88630  Biso   1.000  H
  H106     1.0000 0.73540  0.67450  0.38630  Biso   1.000  H
  H107     1.0000 0.42450  0.01460  0.13630  Biso   1.000  H
  H108     1.0000 0.07550  0.98540  0.63630  Biso   1.000  H
  H109     1.0000 0.26460  0.82550  0.38630  Biso   1.000  H
  H110     1.0000 0.23540  0.17450  0.88630  Biso   1.000  H
  H111     1.0000 0.92450  0.51460  0.63630  Biso   1.000  H
  H112     1.0000 0.57550  0.48540  0.13630  Biso   1.000  H
  H113     1.0000 0.25030  0.75880  0.08180  Biso   1.000  H
  H114     1.0000 0.24970  0.24120  0.58180  Biso   1.000  H
  H115     1.0000 0.99120  0.50030  0.33180  Biso   1.000  H
  H116     1.0000 0.50880  0.49970  0.83180  Biso   1.000  H
  H117     1.0000 0.75030  0.25880  0.58180  Biso   1.000  H
  H118     1.0000 0.74970  0.74120  0.08180  Biso   1.000  H
  H119     1.0000 0.49120  0.00030  0.83180  Biso   1.000  H
  H120     1.0000 0.00880  0.99970  0.33180  Biso   1.000  H
  H121     1.0000 0.74970  0.24120  0.91820  Biso   1.000  H
  H122     1.0000 0.75030  0.75880  0.41820  Biso   1.000  H
  H123     1.0000 0.50880  0.99970  0.16820  Biso   1.000  H
  H124     1.0000 0.99120  0.00030  0.66820  Biso   1.000  H
  H125     1.0000 0.24970  0.74120  0.41820  Biso   1.000  H
  H126     1.0000 0.25030  0.25880  0.91820  Biso   1.000  H
  H127     1.0000 0.00880  0.49970  0.66820  Biso   1.000  H
  H128     1.0000 0.49120  0.50030  0.16820  Biso   1.000  H
  C129     1.0000 0.28530  0.73720  0.22380  Biso   1.000  C
  C130     1.0000 0.21470  0.26280  0.72380  Biso   1.000  C
  C131     1.0000 0.01280  0.53530  0.47380  Biso   1.000  C
  C132     1.0000 0.48720  0.46470  0.97380  Biso   1.000  C
  C133     1.0000 0.78530  0.23720  0.72380  Biso   1.000  C
  C134     1.0000 0.71470  0.76280  0.22380  Biso   1.000  C
  C135     1.0000 0.51280  0.03530  0.97380  Biso   1.000  C
  C136     1.0000 0.98720  0.96470  0.47380  Biso   1.000  C
  C137     1.0000 0.71470  0.26280  0.77620  Biso   1.000  C
  C138     1.0000 0.78530  0.73720  0.27620  Biso   1.000  C
  C139     1.0000 0.48720  0.96470  0.02620  Biso   1.000  C
  C140     1.0000 0.01280  0.03530  0.52620  Biso   1.000  C
  C141     1.0000 0.21470  0.76280  0.27620  Biso   1.000  C
  C142     1.0000 0.28530  0.23720  0.77620  Biso   1.000  C
  C143     1.0000 0.98720  0.46470  0.52620  Biso   1.000  C
  C144     1.0000 0.51280  0.53530  0.02620  Biso   1.000  C
  H129     1.0000 0.30610  0.69380  0.25840  Biso   1.000  H
  H130     1.0000 0.19390  0.30620  0.75840  Biso   1.000  H
  H131     1.0000 0.05620  0.55610  0.50840  Biso   1.000  H
  H132     1.0000 0.44380  0.44390  0.00840  Biso   1.000  H
  H133     1.0000 0.80610  0.19380  0.75840  Biso   1.000  H
  H134     1.0000 0.69390  0.80620  0.25840  Biso   1.000  H
  H135     1.0000 0.55620  0.05610  0.00840  Biso   1.000  H
  H136     1.0000 0.94380  0.94390  0.50840  Biso   1.000  H
  H137     1.0000 0.69390  0.30620  0.74160  Biso   1.000  H
  H138     1.0000 0.80610  0.69380  0.24160  Biso   1.000  H
  H139     1.0000 0.44380  0.94390  0.99160  Biso   1.000  H
  H140     1.0000 0.05620  0.05610  0.49160  Biso   1.000  H
  H141     1.0000 0.19390  0.80620  0.24160  Biso   1.000  H
  H142     1.0000 0.30610  0.19380  0.74160  Biso   1.000  H
  H143     1.0000 0.94380  0.44390  0.49160  Biso   1.000  H
  H144     1.0000 0.55620  0.55610  0.99160  Biso   1.000  H
  H145     1.0000 0.32260  0.77750  0.22640  Biso   1.000  H
  H146     1.0000 0.17740  0.22250  0.72640  Biso   1.000  H
  H147     1.0000 0.97250  0.57260  0.47640  Biso   1.000  H
  H148     1.0000 0.52750  0.42740  0.97640  Biso   1.000  H
  H149     1.0000 0.82260  0.27750  0.72640  Biso   1.000  H
  H150     1.0000 0.67740  0.72250  0.22640  Biso   1.000  H
  H151     1.0000 0.47250  0.07260  0.97640  Biso   1.000  H
  H152     1.0000 0.02750  0.92740  0.47640  Biso   1.000  H
  H153     1.0000 0.67740  0.22250  0.77360  Biso   1.000  H
  H154     1.0000 0.82260  0.77750  0.27360  Biso   1.000  H
  H155     1.0000 0.52750  0.92740  0.02360  Biso   1.000  H
  H156     1.0000 0.97250  0.07260  0.52360  Biso   1.000  H
  H157     1.0000 0.17740  0.72250  0.27360  Biso   1.000  H
  H158     1.0000 0.32260  0.27750  0.77360  Biso   1.000  H
  H159     1.0000 0.02750  0.42740  0.52360  Biso   1.000  H
  H160     1.0000 0.47250  0.57260  0.02360  Biso   1.000  H
