data_image0
_cell_length_a       18.117
_cell_length_b       9.9315
_cell_length_c       18.113
_cell_angle_alpha    90
_cell_angle_beta     90.704
_cell_angle_gamma    90

_symmetry_space_group_name_H-M    "P 1"
_symmetry_int_tables_number       1

loop_
  _symmetry_equiv_pos_as_xyz
  'x, y, z'

loop_
  _atom_site_label
  _atom_site_occupancy
  _atom_site_fract_x
  _atom_site_fract_y
  _atom_site_fract_z
  _atom_site_thermal_displace_type
  _atom_site_B_iso_or_equiv
  _atom_site_type_symbol
  S1       1.0000 0.90300  0.62560  0.30620  Biso   1.000  S
  S2       1.0000 0.09700  0.62560  0.19380  Biso   1.000  S
  S3       1.0000 0.40300  0.12560  0.30620  Biso   1.000  S
  S4       1.0000 0.59700  0.12560  0.19380  Biso   1.000  S
  S5       1.0000 0.09700  0.37440  0.69380  Biso   1.000  S
  S6       1.0000 0.90300  0.37440  0.80620  Biso   1.000  S
  S7       1.0000 0.59700  0.87440  0.69380  Biso   1.000  S
  S8       1.0000 0.40300  0.87440  0.80620  Biso   1.000  S
  C1       1.0000 0.86110  0.53010  0.24210  Biso   1.000  C
  C2       1.0000 0.13890  0.53010  0.25790  Biso   1.000  C
  C3       1.0000 0.36110  0.03010  0.24210  Biso   1.000  C
  C4       1.0000 0.63890  0.03010  0.25790  Biso   1.000  C
  C5       1.0000 0.13890  0.46990  0.75790  Biso   1.000  C
  C6       1.0000 0.86110  0.46990  0.74210  Biso   1.000  C
  C7       1.0000 0.63890  0.96990  0.75790  Biso   1.000  C
  C8       1.0000 0.36110  0.96990  0.74210  Biso   1.000  C
  C9       1.0000 0.88640  0.51500  0.16370  Biso   1.000  C
  C10      1.0000 0.11360  0.51500  0.33630  Biso   1.000  C
  C11      1.0000 0.38640  0.01500  0.16370  Biso   1.000  C
  C12      1.0000 0.61360  0.01500  0.33630  Biso   1.000  C
  C13      1.0000 0.11360  0.48500  0.83630  Biso   1.000  C
  C14      1.0000 0.88640  0.48500  0.66370  Biso   1.000  C
  C15      1.0000 0.61360  0.98500  0.83630  Biso   1.000  C
  C16      1.0000 0.38640  0.98500  0.66370  Biso   1.000  C
  C17      1.0000 0.83570  0.41470  0.12860  Biso   1.000  C
  C18      1.0000 0.16430  0.41470  0.37140  Biso   1.000  C
  C19      1.0000 0.33570  0.91470  0.12860  Biso   1.000  C
  C20      1.0000 0.66430  0.91470  0.37140  Biso   1.000  C
  C21      1.0000 0.16430  0.58530  0.87140  Biso   1.000  C
  C22      1.0000 0.83570  0.58530  0.62860  Biso   1.000  C
  C23      1.0000 0.66430  0.08530  0.87140  Biso   1.000  C
  C24      1.0000 0.33570  0.08530  0.62860  Biso   1.000  C
  C25      1.0000 0.77570  0.38990  0.18280  Biso   1.000  C
  C26      1.0000 0.22430  0.38990  0.31720  Biso   1.000  C
  C27      1.0000 0.27570  0.88990  0.18280  Biso   1.000  C
  C28      1.0000 0.72430  0.88990  0.31720  Biso   1.000  C
  C29      1.0000 0.22430  0.61010  0.81720  Biso   1.000  C
  C30      1.0000 0.77570  0.61010  0.68280  Biso   1.000  C
  C31      1.0000 0.72430  0.11010  0.81720  Biso   1.000  C
  C32      1.0000 0.27570  0.11010  0.68280  Biso   1.000  C
  N1       1.0000 0.80090  0.45820  0.25060  Biso   1.000  N
  N2       1.0000 0.19910  0.45820  0.24940  Biso   1.000  N
  N3       1.0000 0.30090  0.95820  0.25060  Biso   1.000  N
  N4       1.0000 0.69910  0.95820  0.24940  Biso   1.000  N
  N5       1.0000 0.19910  0.54180  0.74940  Biso   1.000  N
  N6       1.0000 0.80090  0.54180  0.75060  Biso   1.000  N
  N7       1.0000 0.69910  0.04180  0.74940  Biso   1.000  N
  N8       1.0000 0.30090  0.04180  0.75060  Biso   1.000  N
  C33      1.0000 0.75920  0.44660  0.31770  Biso   1.000  C
  C34      1.0000 0.24080  0.44660  0.18230  Biso   1.000  C
  C35      1.0000 0.25920  0.94660  0.31770  Biso   1.000  C
  C36      1.0000 0.74080  0.94660  0.18230  Biso   1.000  C
  C37      1.0000 0.24080  0.55340  0.68230  Biso   1.000  C
  C38      1.0000 0.75920  0.55340  0.81770  Biso   1.000  C
  C39      1.0000 0.74080  0.05340  0.68230  Biso   1.000  C
  C40      1.0000 0.25920  0.05340  0.81770  Biso   1.000  C
  C41      1.0000 0.77290  0.31240  0.35720  Biso   1.000  C
  C42      1.0000 0.22710  0.31240  0.14280  Biso   1.000  C
  C43      1.0000 0.27290  0.81240  0.35720  Biso   1.000  C
  C44      1.0000 0.72710  0.81240  0.14280  Biso   1.000  C
  C45      1.0000 0.22710  0.68760  0.64280  Biso   1.000  C
  C46      1.0000 0.77290  0.68760  0.85720  Biso   1.000  C
  C47      1.0000 0.72710  0.18760  0.64280  Biso   1.000  C
  C48      1.0000 0.27290  0.18760  0.85720  Biso   1.000  C
  N9       1.0000 0.84910  0.30060  0.38410  Biso   1.000  N
  N10      1.0000 0.15090  0.30060  0.11590  Biso   1.000  N
  N11      1.0000 0.34910  0.80060  0.38410  Biso   1.000  N
  N12      1.0000 0.65090  0.80060  0.11590  Biso   1.000  N
  N13      1.0000 0.15090  0.69940  0.61590  Biso   1.000  N
  N14      1.0000 0.84910  0.69940  0.88410  Biso   1.000  N
  N15      1.0000 0.65090  0.19940  0.61590  Biso   1.000  N
  N16      1.0000 0.34910  0.19940  0.88410  Biso   1.000  N
  C49      1.0000 0.87170  0.36480  0.45380  Biso   1.000  C
  C50      1.0000 0.12830  0.36480  0.04620  Biso   1.000  C
  C51      1.0000 0.37170  0.86480  0.45380  Biso   1.000  C
  C52      1.0000 0.62830  0.86480  0.04620  Biso   1.000  C
  C53      1.0000 0.12830  0.63520  0.54620  Biso   1.000  C
  C54      1.0000 0.87170  0.63520  0.95380  Biso   1.000  C
  C55      1.0000 0.62830  0.13520  0.54620  Biso   1.000  C
  C56      1.0000 0.37170  0.13520  0.95380  Biso   1.000  C
  C57      1.0000 0.95500  0.34240  0.45650  Biso   1.000  C
  C58      1.0000 0.04500  0.34240  0.04350  Biso   1.000  C
  C59      1.0000 0.45500  0.84240  0.45650  Biso   1.000  C
  C60      1.0000 0.54500  0.84240  0.04350  Biso   1.000  C
  C61      1.0000 0.04500  0.65760  0.54350  Biso   1.000  C
  C62      1.0000 0.95500  0.65760  0.95650  Biso   1.000  C
  C63      1.0000 0.54500  0.15760  0.54350  Biso   1.000  C
  C64      1.0000 0.45500  0.15760  0.95650  Biso   1.000  C
  C65      1.0000 0.97010  0.23580  0.39930  Biso   1.000  C
  C66      1.0000 0.02990  0.23580  0.10070  Biso   1.000  C
  C67      1.0000 0.47010  0.73580  0.39930  Biso   1.000  C
  C68      1.0000 0.52990  0.73580  0.10070  Biso   1.000  C
  C69      1.0000 0.02990  0.76420  0.60070  Biso   1.000  C
  C70      1.0000 0.97010  0.76420  0.89930  Biso   1.000  C
  C71      1.0000 0.52990  0.26420  0.60070  Biso   1.000  C
  C72      1.0000 0.47010  0.26420  0.89930  Biso   1.000  C
  C73      1.0000 0.90100  0.22790  0.35300  Biso   1.000  C
  C74      1.0000 0.09900  0.22790  0.14700  Biso   1.000  C
  C75      1.0000 0.40100  0.72790  0.35300  Biso   1.000  C
  C76      1.0000 0.59900  0.72790  0.14700  Biso   1.000  C
  C77      1.0000 0.09900  0.77210  0.64700  Biso   1.000  C
  C78      1.0000 0.90100  0.77210  0.85300  Biso   1.000  C
  C79      1.0000 0.59900  0.27210  0.64700  Biso   1.000  C
  C80      1.0000 0.40100  0.27210  0.85300  Biso   1.000  C
  S9       1.0000 0.89150  0.13610  0.27610  Biso   1.000  S
  S10      1.0000 0.10850  0.13610  0.22390  Biso   1.000  S
  S11      1.0000 0.39150  0.63610  0.27610  Biso   1.000  S
  S12      1.0000 0.60850  0.63610  0.22390  Biso   1.000  S
  S13      1.0000 0.10850  0.86390  0.72390  Biso   1.000  S
  S14      1.0000 0.89150  0.86390  0.77610  Biso   1.000  S
  S15      1.0000 0.60850  0.36390  0.72390  Biso   1.000  S
  S16      1.0000 0.39150  0.36390  0.77610  Biso   1.000  S
  C81      1.0000 0.61570  0.37700  0.03740  Biso   1.000  C
  C82      1.0000 0.38430  0.37700  0.46260  Biso   1.000  C
  C83      1.0000 0.11570  0.87700  0.03740  Biso   1.000  C
  C84      1.0000 0.88430  0.87700  0.46260  Biso   1.000  C
  C85      1.0000 0.38430  0.62300  0.96260  Biso   1.000  C
  C86      1.0000 0.61570  0.62300  0.53740  Biso   1.000  C
  C87      1.0000 0.88430  0.12300  0.96260  Biso   1.000  C
  C88      1.0000 0.11570  0.12300  0.53740  Biso   1.000  C
  N17      1.0000 0.67800  0.44010  0.00300  Biso   1.000  N
  N18      1.0000 0.32200  0.44010  0.49700  Biso   1.000  N
  N19      1.0000 0.17800  0.94010  0.00300  Biso   1.000  N
  N20      1.0000 0.82200  0.94010  0.49700  Biso   1.000  N
  N21      1.0000 0.32200  0.55990  0.99700  Biso   1.000  N
  N22      1.0000 0.67800  0.55990  0.50300  Biso   1.000  N
  N23      1.0000 0.82200  0.05990  0.99700  Biso   1.000  N
  N24      1.0000 0.17800  0.05990  0.50300  Biso   1.000  N
  O1       1.0000 0.69340  0.55300  0.01860  Biso   1.000  O
  O2       1.0000 0.30660  0.55300  0.48140  Biso   1.000  O
  O3       1.0000 0.19340  0.05300  0.01860  Biso   1.000  O
  O4       1.0000 0.80660  0.05300  0.48140  Biso   1.000  O
  O5       1.0000 0.30660  0.44700  0.98140  Biso   1.000  O
  O6       1.0000 0.69340  0.44700  0.51860  Biso   1.000  O
  O7       1.0000 0.80660  0.94700  0.98140  Biso   1.000  O
  O8       1.0000 0.19340  0.94700  0.51860  Biso   1.000  O
  O9       1.0000 0.71390  0.37460  0.96100  Biso   1.000  O
  O10      1.0000 0.28610  0.37460  0.53900  Biso   1.000  O
  O11      1.0000 0.21390  0.87460  0.96100  Biso   1.000  O
  O12      1.0000 0.78610  0.87460  0.53900  Biso   1.000  O
  O13      1.0000 0.28610  0.62540  0.03900  Biso   1.000  O
  O14      1.0000 0.71390  0.62540  0.46100  Biso   1.000  O
  O15      1.0000 0.78610  0.12540  0.03900  Biso   1.000  O
  O16      1.0000 0.21390  0.12540  0.46100  Biso   1.000  O
  H1       1.0000 0.88350  0.60050  0.13800  Biso   1.000  H
  H2       1.0000 0.11650  0.60050  0.36200  Biso   1.000  H
  H3       1.0000 0.38350  0.10050  0.13800  Biso   1.000  H
  H4       1.0000 0.61650  0.10050  0.36200  Biso   1.000  H
  H5       1.0000 0.11650  0.39950  0.86200  Biso   1.000  H
  H6       1.0000 0.88350  0.39950  0.63800  Biso   1.000  H
  H7       1.0000 0.61650  0.89950  0.86200  Biso   1.000  H
  H8       1.0000 0.38350  0.89950  0.63800  Biso   1.000  H
  H9       1.0000 0.93700  0.48310  0.16260  Biso   1.000  H
  H10      1.0000 0.06300  0.48310  0.33740  Biso   1.000  H
  H11      1.0000 0.43700  0.98310  0.16260  Biso   1.000  H
  H12      1.0000 0.56300  0.98310  0.33740  Biso   1.000  H
  H13      1.0000 0.06300  0.51690  0.83740  Biso   1.000  H
  H14      1.0000 0.93700  0.51690  0.66260  Biso   1.000  H
  H15      1.0000 0.56300  0.01690  0.83740  Biso   1.000  H
  H16      1.0000 0.43700  0.01690  0.66260  Biso   1.000  H
  H17      1.0000 0.86190  0.33190  0.11810  Biso   1.000  H
  H18      1.0000 0.13810  0.33190  0.38190  Biso   1.000  H
  H19      1.0000 0.36190  0.83190  0.11810  Biso   1.000  H
  H20      1.0000 0.63810  0.83190  0.38190  Biso   1.000  H
  H21      1.0000 0.13810  0.66810  0.88190  Biso   1.000  H
  H22      1.0000 0.86190  0.66810  0.61810  Biso   1.000  H
  H23      1.0000 0.63810  0.16810  0.88190  Biso   1.000  H
  H24      1.0000 0.36190  0.16810  0.61810  Biso   1.000  H
  H25      1.0000 0.81530  0.45000  0.08280  Biso   1.000  H
  H26      1.0000 0.18470  0.45000  0.41720  Biso   1.000  H
  H27      1.0000 0.31530  0.95000  0.08280  Biso   1.000  H
  H28      1.0000 0.68470  0.95000  0.41720  Biso   1.000  H
  H29      1.0000 0.18470  0.55000  0.91720  Biso   1.000  H
  H30      1.0000 0.81530  0.55000  0.58280  Biso   1.000  H
  H31      1.0000 0.68470  0.05000  0.91720  Biso   1.000  H
  H32      1.0000 0.31530  0.05000  0.58280  Biso   1.000  H
  H33      1.0000 0.72930  0.42730  0.16530  Biso   1.000  H
  H34      1.0000 0.27070  0.42730  0.33470  Biso   1.000  H
  H35      1.0000 0.22930  0.92730  0.16530  Biso   1.000  H
  H36      1.0000 0.77070  0.92730  0.33470  Biso   1.000  H
  H37      1.0000 0.27070  0.57270  0.83470  Biso   1.000  H
  H38      1.0000 0.72930  0.57270  0.66530  Biso   1.000  H
  H39      1.0000 0.77070  0.07270  0.83470  Biso   1.000  H
  H40      1.0000 0.22930  0.07270  0.66530  Biso   1.000  H
  H41      1.0000 0.76930  0.29420  0.19140  Biso   1.000  H
  H42      1.0000 0.23070  0.29420  0.30860  Biso   1.000  H
  H43      1.0000 0.26930  0.79420  0.19140  Biso   1.000  H
  H44      1.0000 0.73070  0.79420  0.30860  Biso   1.000  H
  H45      1.0000 0.23070  0.70580  0.80860  Biso   1.000  H
  H46      1.0000 0.76930  0.70580  0.69140  Biso   1.000  H
  H47      1.0000 0.73070  0.20580  0.80860  Biso   1.000  H
  H48      1.0000 0.26930  0.20580  0.69140  Biso   1.000  H
  H49      1.0000 0.70700  0.45480  0.30590  Biso   1.000  H
  H50      1.0000 0.29300  0.45480  0.19410  Biso   1.000  H
  H51      1.0000 0.20700  0.95480  0.30590  Biso   1.000  H
  H52      1.0000 0.79300  0.95480  0.19410  Biso   1.000  H
  H53      1.0000 0.29300  0.54520  0.69410  Biso   1.000  H
  H54      1.0000 0.70700  0.54520  0.80590  Biso   1.000  H
  H55      1.0000 0.79300  0.04520  0.69410  Biso   1.000  H
  H56      1.0000 0.20700  0.04520  0.80590  Biso   1.000  H
  H57      1.0000 0.77250  0.51990  0.35060  Biso   1.000  H
  H58      1.0000 0.22750  0.51990  0.14940  Biso   1.000  H
  H59      1.0000 0.27250  0.01990  0.35060  Biso   1.000  H
  H60      1.0000 0.72750  0.01990  0.14940  Biso   1.000  H
  H61      1.0000 0.22750  0.48010  0.64940  Biso   1.000  H
  H62      1.0000 0.77250  0.48010  0.85060  Biso   1.000  H
  H63      1.0000 0.72750  0.98010  0.64940  Biso   1.000  H
  H64      1.0000 0.27250  0.98010  0.85060  Biso   1.000  H
  H65      1.0000 0.73960  0.30490  0.39860  Biso   1.000  H
  H66      1.0000 0.26040  0.30490  0.10140  Biso   1.000  H
  H67      1.0000 0.23960  0.80490  0.39860  Biso   1.000  H
  H68      1.0000 0.76040  0.80490  0.10140  Biso   1.000  H
  H69      1.0000 0.26040  0.69510  0.60140  Biso   1.000  H
  H70      1.0000 0.73960  0.69510  0.89860  Biso   1.000  H
  H71      1.0000 0.76040  0.19510  0.60140  Biso   1.000  H
  H72      1.0000 0.23960  0.19510  0.89860  Biso   1.000  H
  H73      1.0000 0.76220  0.23890  0.32350  Biso   1.000  H
  H74      1.0000 0.23780  0.23890  0.17650  Biso   1.000  H
  H75      1.0000 0.26220  0.73890  0.32350  Biso   1.000  H
  H76      1.0000 0.73780  0.73890  0.17650  Biso   1.000  H
  H77      1.0000 0.23780  0.76110  0.67650  Biso   1.000  H
  H78      1.0000 0.76220  0.76110  0.82350  Biso   1.000  H
  H79      1.0000 0.73780  0.26110  0.67650  Biso   1.000  H
  H80      1.0000 0.26220  0.26110  0.82350  Biso   1.000  H
  H81      1.0000 0.84790  0.32260  0.49550  Biso   1.000  H
  H82      1.0000 0.15210  0.32260  0.00450  Biso   1.000  H
  H83      1.0000 0.34790  0.82260  0.49550  Biso   1.000  H
  H84      1.0000 0.65210  0.82260  0.00450  Biso   1.000  H
  H85      1.0000 0.15210  0.67740  0.50450  Biso   1.000  H
  H86      1.0000 0.84790  0.67740  0.99550  Biso   1.000  H
  H87      1.0000 0.65210  0.17740  0.50450  Biso   1.000  H
  H88      1.0000 0.34790  0.17740  0.99550  Biso   1.000  H
  H89      1.0000 0.85990  0.46010  0.45350  Biso   1.000  H
  H90      1.0000 0.14010  0.46010  0.04650  Biso   1.000  H
  H91      1.0000 0.35990  0.96010  0.45350  Biso   1.000  H
  H92      1.0000 0.64010  0.96010  0.04650  Biso   1.000  H
  H93      1.0000 0.14010  0.53990  0.54650  Biso   1.000  H
  H94      1.0000 0.85990  0.53990  0.95350  Biso   1.000  H
  H95      1.0000 0.64010  0.03990  0.54650  Biso   1.000  H
  H96      1.0000 0.35990  0.03990  0.95350  Biso   1.000  H
  H97      1.0000 0.98110  0.42490  0.44500  Biso   1.000  H
  H98      1.0000 0.01890  0.42490  0.05500  Biso   1.000  H
  H99      1.0000 0.48110  0.92490  0.44500  Biso   1.000  H
  H100     1.0000 0.51890  0.92490  0.05500  Biso   1.000  H
  H101     1.0000 0.01890  0.57510  0.55500  Biso   1.000  H
  H102     1.0000 0.98110  0.57510  0.94500  Biso   1.000  H
  H103     1.0000 0.51890  0.07510  0.55500  Biso   1.000  H
  H104     1.0000 0.48110  0.07510  0.94500  Biso   1.000  H
  H105     1.0000 0.97070  0.31200  0.50520  Biso   1.000  H
  H106     1.0000 0.02930  0.31200  0.99480  Biso   1.000  H
  H107     1.0000 0.47070  0.81200  0.50520  Biso   1.000  H
  H108     1.0000 0.52930  0.81200  0.99480  Biso   1.000  H
  H109     1.0000 0.02930  0.68800  0.49480  Biso   1.000  H
  H110     1.0000 0.97070  0.68800  0.00520  Biso   1.000  H
  H111     1.0000 0.52930  0.18800  0.49480  Biso   1.000  H
  H112     1.0000 0.47070  0.18800  0.00520  Biso   1.000  H
  H113     1.0000 0.01190  0.26090  0.36940  Biso   1.000  H
  H114     1.0000 0.98810  0.26090  0.13060  Biso   1.000  H
  H115     1.0000 0.51190  0.76090  0.36940  Biso   1.000  H
  H116     1.0000 0.48810  0.76090  0.13060  Biso   1.000  H
  H117     1.0000 0.98810  0.73910  0.63060  Biso   1.000  H
  H118     1.0000 0.01190  0.73910  0.86940  Biso   1.000  H
  H119     1.0000 0.48810  0.23910  0.63060  Biso   1.000  H
  H120     1.0000 0.51190  0.23910  0.86940  Biso   1.000  H
  H121     1.0000 0.98040  0.14990  0.42270  Biso   1.000  H
  H122     1.0000 0.01960  0.14990  0.07730  Biso   1.000  H
  H123     1.0000 0.48040  0.64990  0.42270  Biso   1.000  H
  H124     1.0000 0.51960  0.64990  0.07730  Biso   1.000  H
  H125     1.0000 0.01960  0.85010  0.57730  Biso   1.000  H
  H126     1.0000 0.98040  0.85010  0.92270  Biso   1.000  H
  H127     1.0000 0.51960  0.35010  0.57730  Biso   1.000  H
  H128     1.0000 0.48040  0.35010  0.92270  Biso   1.000  H
  H129     1.0000 0.61050  0.28660  0.01930  Biso   1.000  H
  H130     1.0000 0.38950  0.28660  0.48070  Biso   1.000  H
  H131     1.0000 0.11050  0.78660  0.01930  Biso   1.000  H
  H132     1.0000 0.88950  0.78660  0.48070  Biso   1.000  H
  H133     1.0000 0.38950  0.71340  0.98070  Biso   1.000  H
  H134     1.0000 0.61050  0.71340  0.51930  Biso   1.000  H
  H135     1.0000 0.88950  0.21340  0.98070  Biso   1.000  H
  H136     1.0000 0.11050  0.21340  0.51930  Biso   1.000  H
  H137     1.0000 0.57170  0.42720  0.02590  Biso   1.000  H
  H138     1.0000 0.42830  0.42720  0.47410  Biso   1.000  H
  H139     1.0000 0.07170  0.92720  0.02590  Biso   1.000  H
  H140     1.0000 0.92830  0.92720  0.47410  Biso   1.000  H
  H141     1.0000 0.42830  0.57280  0.97410  Biso   1.000  H
  H142     1.0000 0.57170  0.57280  0.52590  Biso   1.000  H
  H143     1.0000 0.92830  0.07280  0.97410  Biso   1.000  H
  H144     1.0000 0.07170  0.07280  0.52590  Biso   1.000  H
  H145     1.0000 0.62330  0.37520  0.08990  Biso   1.000  H
  H146     1.0000 0.37670  0.37520  0.41010  Biso   1.000  H
  H147     1.0000 0.12330  0.87520  0.08990  Biso   1.000  H
  H148     1.0000 0.87670  0.87520  0.41010  Biso   1.000  H
  H149     1.0000 0.37670  0.62480  0.91010  Biso   1.000  H
  H150     1.0000 0.62330  0.62480  0.58990  Biso   1.000  H
  H151     1.0000 0.87670  0.12480  0.91010  Biso   1.000  H
  H152     1.0000 0.12330  0.12480  0.58990  Biso   1.000  H
  Cu1      1.0000 0.00000  0.02740  0.25000  Biso   1.000  Cu
  Cu2      1.0000 0.50000  0.52740  0.25000  Biso   1.000  Cu
  Cu3      1.0000 0.00000  0.97260  0.75000  Biso   1.000  Cu
  Cu4      1.0000 0.50000  0.47260  0.75000  Biso   1.000  Cu
  Br1      1.0000 0.05030  0.88160  0.35630  Biso   1.000  Br
  Br2      1.0000 0.94970  0.88160  0.14370  Biso   1.000  Br
  Br3      1.0000 0.55030  0.38160  0.35630  Biso   1.000  Br
  Br4      1.0000 0.44970  0.38160  0.14370  Biso   1.000  Br
  Br5      1.0000 0.94970  0.11840  0.64370  Biso   1.000  Br
  Br6      1.0000 0.05030  0.11840  0.85630  Biso   1.000  Br
  Br7      1.0000 0.44970  0.61840  0.64370  Biso   1.000  Br
  Br8      1.0000 0.55030  0.61840  0.85630  Biso   1.000  Br
  Cu5      1.0000 0.00000  0.73530  0.25000  Biso   1.000  Cu
  Cu6      1.0000 0.50000  0.23530  0.25000  Biso   1.000  Cu
  Cu7      1.0000 0.00000  0.26470  0.75000  Biso   1.000  Cu
  Cu8      1.0000 0.50000  0.76470  0.75000  Biso   1.000  Cu
