data_image0
_cell_length_a       10.4075
_cell_length_b       11.0056
_cell_length_c       18.3138
_cell_angle_alpha    76.021
_cell_angle_beta     80.764
_cell_angle_gamma    73.239

_symmetry_space_group_name_H-M    "P 1"
_symmetry_int_tables_number       1

loop_
  _symmetry_equiv_pos_as_xyz
  'x, y, z'

loop_
  _atom_site_label
  _atom_site_occupancy
  _atom_site_fract_x
  _atom_site_fract_y
  _atom_site_fract_z
  _atom_site_thermal_displace_type
  _atom_site_B_iso_or_equiv
  _atom_site_type_symbol
  Cu1      1.0000 0.20521  0.77368  0.39415  Biso   1.000  Cu
  Cu2      1.0000 0.79479  0.22632  0.60585  Biso   1.000  Cu
  N1       1.0000 0.02240  0.77190  0.39810  Biso   1.000  N
  N2       1.0000 0.97760  0.22810  0.60190  Biso   1.000  N
  N3       1.0000 0.37650  0.80560  0.35840  Biso   1.000  N
  N4       1.0000 0.62350  0.19440  0.64160  Biso   1.000  N
  N5       1.0000 0.75240  0.35290  0.49450  Biso   1.000  N
  N6       1.0000 0.24760  0.64710  0.50550  Biso   1.000  N
  C1       1.0000 0.92410  0.81110  0.45330  Biso   1.000  C
  C2       1.0000 0.07590  0.18890  0.54670  Biso   1.000  C
  C3       1.0000 0.96280  0.71960  0.35980  Biso   1.000  C
  C4       1.0000 0.03720  0.28040  0.64020  Biso   1.000  C
  C5       1.0000 0.80610  0.78100  0.44580  Biso   1.000  C
  C6       1.0000 0.19390  0.21900  0.55420  Biso   1.000  C
  C7       1.0000 0.92960  0.86720  0.51160  Biso   1.000  C
  C8       1.0000 0.07040  0.13280  0.48840  Biso   1.000  C
  N7       1.0000 0.83420  0.72160  0.38440  Biso   1.000  N
  N8       1.0000 0.16580  0.27840  0.61560  Biso   1.000  N
  H1       1.0000 0.00730  0.68390  0.31860  Biso   1.000  H
  H2       1.0000 0.99270  0.31610  0.68140  Biso   1.000  H
  C9       1.0000 0.69110  0.81140  0.49500  Biso   1.000  C
  C10      1.0000 0.30890  0.18860  0.50500  Biso   1.000  C
  H3       1.0000 0.00910  0.88380  0.51840  Biso   1.000  H
  H4       1.0000 0.99090  0.11620  0.48160  Biso   1.000  H
  C11      1.0000 0.81500  0.89810  0.55950  Biso   1.000  C
  C12      1.0000 0.18500  0.10190  0.44050  Biso   1.000  C
  B1       1.0000 0.75310  0.65950  0.34770  Biso   1.000  B
  B2       1.0000 0.24690  0.34050  0.65230  Biso   1.000  B
  H5       1.0000 0.61200  0.79290  0.48940  Biso   1.000  H
  H6       1.0000 0.38800  0.20710  0.51060  Biso   1.000  H
  C13      1.0000 0.69750  0.86970  0.55220  Biso   1.000  C
  C14      1.0000 0.30250  0.13030  0.44780  Biso   1.000  C
  H7       1.0000 0.81660  0.93940  0.59790  Biso   1.000  H
  H8       1.0000 0.18340  0.06060  0.40210  Biso   1.000  H
  N9       1.0000 0.60440  0.74580  0.34640  Biso   1.000  N
  N10      1.0000 0.39560  0.25420  0.65360  Biso   1.000  N
  N11      1.0000 0.74260  0.52410  0.39650  Biso   1.000  N
  N12      1.0000 0.25740  0.47590  0.60350  Biso   1.000  N
  H9       1.0000 0.62210  0.89020  0.58630  Biso   1.000  H
  H10      1.0000 0.37790  0.10980  0.41370  Biso   1.000  H
  C15      1.0000 0.56390  0.86620  0.29770  Biso   1.000  C
  C16      1.0000 0.43610  0.13380  0.70230  Biso   1.000  C
  C17      1.0000 0.48810  0.71920  0.37880  Biso   1.000  C
  C18      1.0000 0.51190  0.28080  0.62120  Biso   1.000  C
  C19      1.0000 0.69870  0.43250  0.37360  Biso   1.000  C
  C20      1.0000 0.30130  0.56750  0.62640  Biso   1.000  C
  C21      1.0000 0.77430  0.46900  0.46900  Biso   1.000  C
  C22      1.0000 0.22570  0.53100  0.53100  Biso   1.000  C
  C23      1.0000 0.42480  0.90210  0.30670  Biso   1.000  C
  C24      1.0000 0.57520  0.09790  0.69330  Biso   1.000  C
  C25      1.0000 0.64060  0.94140  0.24690  Biso   1.000  C
  C26      1.0000 0.35940  0.05860  0.75310  Biso   1.000  C
  H11      1.0000 0.48640  0.64300  0.41420  Biso   1.000  H
  H12      1.0000 0.51360  0.35700  0.58580  Biso   1.000  H
  C27      1.0000 0.70600  0.32470  0.43290  Biso   1.000  C
  C28      1.0000 0.29400  0.67530  0.56710  Biso   1.000  C
  C29      1.0000 0.65310  0.43640  0.30550  Biso   1.000  C
  C30      1.0000 0.34690  0.56360  0.69450  Biso   1.000  C
  H13      1.0000 0.80830  0.50960  0.49770  Biso   1.000  H
  H14      1.0000 0.19170  0.49040  0.50230  Biso   1.000  H
  C31      1.0000 0.35020  0.01640  0.26340  Biso   1.000  C
  C32      1.0000 0.64980  0.98360  0.73660  Biso   1.000  C
  H15      1.0000 0.73440  0.91720  0.24250  Biso   1.000  H
  H16      1.0000 0.26560  0.08280  0.75750  Biso   1.000  H
  C33      1.0000 0.56850  0.05330  0.20400  Biso   1.000  C
  C34      1.0000 0.43150  0.94670  0.79600  Biso   1.000  C
  C35      1.0000 0.66690  0.21870  0.42720  Biso   1.000  C
  C36      1.0000 0.33310  0.78130  0.57280  Biso   1.000  C
  H17      1.0000 0.64780  0.50770  0.26560  Biso   1.000  H
  H18      1.0000 0.35220  0.49230  0.73440  Biso   1.000  H
  C37      1.0000 0.61690  0.33010  0.30110  Biso   1.000  C
  C38      1.0000 0.38310  0.66990  0.69890  Biso   1.000  C
  H19      1.0000 0.25650  0.04110  0.26820  Biso   1.000  H
  H20      1.0000 0.74350  0.95890  0.73180  Biso   1.000  H
  C39      1.0000 0.42690  0.08920  0.21330  Biso   1.000  C
  C40      1.0000 0.57310  0.91080  0.78670  Biso   1.000  C
  H21      1.0000 0.61400  0.10610  0.16830  Biso   1.000  H
  H22      1.0000 0.38600  0.89390  0.83170  Biso   1.000  H
  H23      1.0000 0.66870  0.14820  0.46740  Biso   1.000  H
  H24      1.0000 0.33130  0.85180  0.53260  Biso   1.000  H
  C41      1.0000 0.62480  0.22200  0.35880  Biso   1.000  C
  C42      1.0000 0.37520  0.77800  0.64120  Biso   1.000  C
  H25      1.0000 0.58490  0.32980  0.25660  Biso   1.000  H
  H26      1.0000 0.41510  0.67020  0.74340  Biso   1.000  H
  H27      1.0000 0.38210  0.16670  0.18390  Biso   1.000  H
  H28      1.0000 0.61790  0.83330  0.81610  Biso   1.000  H
  H29      1.0000 0.60140  0.15060  0.35160  Biso   1.000  H
  H30      1.0000 0.39860  0.84940  0.64840  Biso   1.000  H
  Cu3      1.0000 0.17835  0.28887  0.90276  Biso   1.000  Cu
  Cu4      1.0000 0.82165  0.71113  0.09724  Biso   1.000  Cu
  N13      1.0000 0.35950  0.29180  0.90490  Biso   1.000  N
  N14      1.0000 0.64050  0.70820  0.09510  Biso   1.000  N
  N15      1.0000 0.58690  0.23610  0.89420  Biso   1.000  N
  N16      1.0000 0.41310  0.76390  0.10580  Biso   1.000  N
  N17      1.0000 0.79140  0.03940  0.90140  Biso   1.000  N
  N18      1.0000 0.20860  0.96060  0.09860  Biso   1.000  N
  N19      1.0000 0.82050  0.26370  0.85430  Biso   1.000  N
  N20      1.0000 0.17950  0.73630  0.14570  Biso   1.000  N
  C43      1.0000 0.47160  0.24360  0.86730  Biso   1.000  C
  C44      1.0000 0.52840  0.75640  0.13270  Biso   1.000  C
  H31      1.0000 0.47220  0.21530  0.82340  Biso   1.000  H
  H32      1.0000 0.52780  0.78470  0.17660  Biso   1.000  H
  N21      1.0000 0.83710  0.85860  0.99200  Biso   1.000  N
  N22      1.0000 0.16290  0.14140  0.00800  Biso   1.000  N
  C45      1.0000 0.54220  0.28390  0.95940  Biso   1.000  C
  C46      1.0000 0.45780  0.71610  0.04060  Biso   1.000  C
  C47      1.0000 0.61460  0.30190  0.01260  Biso   1.000  C
  C48      1.0000 0.38540  0.69810  0.98740  Biso   1.000  C
  H33      1.0000 0.70840  0.27910  0.00800  Biso   1.000  H
  H34      1.0000 0.29160  0.72090  0.99200  Biso   1.000  H
  C49      1.0000 0.73410  0.45490  0.74960  Biso   1.000  C
  C50      1.0000 0.26590  0.54510  0.25040  Biso   1.000  C
  H35      1.0000 0.65970  0.43040  0.74190  Biso   1.000  H
  H36      1.0000 0.34030  0.56960  0.25810  Biso   1.000  H
  C51      1.0000 0.75750  0.97690  0.97280  Biso   1.000  C
  C52      1.0000 0.24250  0.02310  0.02720  Biso   1.000  C
  H37      1.0000 0.68570  0.01370  0.00480  Biso   1.000  H
  H38      1.0000 0.31430  0.98630  0.99520  Biso   1.000  H
  C53      1.0000 0.40310  0.32010  0.96680  Biso   1.000  C
  C54      1.0000 0.59690  0.67990  0.03320  Biso   1.000  C
  B3       1.0000 0.72480  0.17740  0.85800  Biso   1.000  B
  B4       1.0000 0.27520  0.82260  0.14200  Biso   1.000  B
  H39      1.0000 0.71590  0.17270  0.80630  Biso   1.000  H
  H40      1.0000 0.28410  0.82730  0.19370  Biso   1.000  H
  C55      1.0000 0.93200  0.41660  0.81370  Biso   1.000  C
  C56      1.0000 0.06800  0.58340  0.18630  Biso   1.000  C
  C57      1.0000 0.82130  0.37960  0.80450  Biso   1.000  C
  C58      1.0000 0.17870  0.62040  0.19550  Biso   1.000  C
  C59      1.0000 0.54070  0.35440  0.07150  Biso   1.000  C
  C60      1.0000 0.45930  0.64560  0.92850  Biso   1.000  C
  H41      1.0000 0.58640  0.36730  0.10750  Biso   1.000  H
  H42      1.0000 0.41360  0.63270  0.89250  Biso   1.000  H
  C61      1.0000 0.93050  0.84220  0.92920  Biso   1.000  C
  C62      1.0000 0.06950  0.15780  0.07080  Biso   1.000  C
  C63      1.0000 0.93330  0.23770  0.88910  Biso   1.000  C
  C64      1.0000 0.06670  0.76230  0.11090  Biso   1.000  C
  H43      1.0000 0.95920  0.16250  0.92550  Biso   1.000  H
  H44      1.0000 0.04080  0.83750  0.07450  Biso   1.000  H
  C65      1.0000 0.32860  0.37140  0.02830  Biso   1.000  C
  C66      1.0000 0.67140  0.62860  0.97170  Biso   1.000  C
  H45      1.0000 0.23490  0.39230  0.03400  Biso   1.000  H
  H46      1.0000 0.76510  0.60770  0.96600  Biso   1.000  H
  C67      1.0000 0.90200  0.95240  0.87130  Biso   1.000  C
  C68      1.0000 0.09800  0.04760  0.12870  Biso   1.000  C
  C69      1.0000 0.07920  0.85820  0.79120  Biso   1.000  C
  C70      1.0000 0.92080  0.14180  0.20880  Biso   1.000  C
  H47      1.0000 0.12980  0.86090  0.74440  Biso   1.000  H
  H48      1.0000 0.87020  0.13910  0.25560  Biso   1.000  H
  C71      1.0000 0.03390  0.73620  0.91640  Biso   1.000  C
  C72      1.0000 0.96610  0.26380  0.08360  Biso   1.000  C
  H49      1.0000 0.05100  0.66030  0.95330  Biso   1.000  H
  H50      1.0000 0.94900  0.33970  0.04670  Biso   1.000  H
  C73      1.0000 0.97810  0.96140  0.80300  Biso   1.000  C
  C74      1.0000 0.02190  0.03860  0.19700  Biso   1.000  C
  H51      1.0000 0.96030  0.03680  0.76590  Biso   1.000  H
  H52      1.0000 0.03970  0.96320  0.23410  Biso   1.000  H
  C75      1.0000 0.96400  0.53080  0.76960  Biso   1.000  C
  C76      1.0000 0.03600  0.46920  0.23040  Biso   1.000  C
  C77      1.0000 0.40040  0.38960  0.08020  Biso   1.000  C
  C78      1.0000 0.59960  0.61040  0.91980  Biso   1.000  C
  H53      1.0000 0.35480  0.42550  0.12110  Biso   1.000  H
  H54      1.0000 0.64520  0.57450  0.87890  Biso   1.000  H
  C79      1.0000 0.76450  0.56670  0.70800  Biso   1.000  C
  C80      1.0000 0.23550  0.43330  0.29200  Biso   1.000  C
  H55      1.0000 0.70700  0.62020  0.67250  Biso   1.000  H
  H56      1.0000 0.29300  0.37980  0.32750  Biso   1.000  H
  C81      1.0000 0.11020  0.74510  0.84870  Biso   1.000  C
  C82      1.0000 0.88980  0.25490  0.15130  Biso   1.000  C
  H57      1.0000 0.18350  0.67630  0.84010  Biso   1.000  H
  H58      1.0000 0.81650  0.32370  0.15990  Biso   1.000  H
  N23      1.0000 0.00370  0.32220  0.86950  Biso   1.000  N
  N24      1.0000 0.99630  0.67780  0.13050  Biso   1.000  N
  C83      1.0000 0.87670  0.60330  0.71650  Biso   1.000  C
  C84      1.0000 0.12330  0.39670  0.28350  Biso   1.000  C
  H59      1.0000 0.89360  0.67870  0.68570  Biso   1.000  H
  H60      1.0000 0.10640  0.32130  0.31430  Biso   1.000  H
  H61      1.0000 0.96720  0.58520  0.80350  Biso   1.000  H
  H62      1.0000 0.03280  0.41480  0.19650  Biso   1.000  H
  H63      1.0000 0.05360  0.50660  0.74380  Biso   1.000  H
  H64      1.0000 0.94640  0.49340  0.25620  Biso   1.000  H
