data_image0
_cell_length_a       10.901
_cell_length_b       10.901
_cell_length_c       17.403
_cell_angle_alpha    90
_cell_angle_beta     90
_cell_angle_gamma    90

_symmetry_space_group_name_H-M    "P 1"
_symmetry_int_tables_number       1

loop_
  _symmetry_equiv_pos_as_xyz
  'x, y, z'

loop_
  _atom_site_label
  _atom_site_occupancy
  _atom_site_fract_x
  _atom_site_fract_y
  _atom_site_fract_z
  _atom_site_thermal_displace_type
  _atom_site_B_iso_or_equiv
  _atom_site_type_symbol
  Cu1      1.0000 0.50000  0.00000  0.75000  Biso   1.000  Cu
  Cu2      1.0000 0.00000  0.50000  0.75000  Biso   1.000  Cu
  Cu3      1.0000 0.00000  0.50000  0.25000  Biso   1.000  Cu
  Cu4      1.0000 0.50000  0.00000  0.25000  Biso   1.000  Cu
  S1       1.0000 0.55881  0.86181  0.65802  Biso   1.000  S
  S2       1.0000 0.13819  0.55881  0.65802  Biso   1.000  S
  S3       1.0000 0.86181  0.44119  0.65802  Biso   1.000  S
  S4       1.0000 0.05881  0.36181  0.15802  Biso   1.000  S
  S5       1.0000 0.63819  0.05881  0.15802  Biso   1.000  S
  S6       1.0000 0.36181  0.94119  0.15802  Biso   1.000  S
  S7       1.0000 0.44119  0.13819  0.65802  Biso   1.000  S
  S8       1.0000 0.94119  0.63819  0.15802  Biso   1.000  S
  S9       1.0000 0.44119  0.13819  0.34198  Biso   1.000  S
  S10      1.0000 0.86181  0.44119  0.34198  Biso   1.000  S
  S11      1.0000 0.13819  0.55881  0.34198  Biso   1.000  S
  S12      1.0000 0.94119  0.63819  0.84198  Biso   1.000  S
  S13      1.0000 0.36181  0.94119  0.84198  Biso   1.000  S
  S14      1.0000 0.63819  0.05881  0.84198  Biso   1.000  S
  S15      1.0000 0.55881  0.86181  0.34198  Biso   1.000  S
  S16      1.0000 0.05881  0.36181  0.84198  Biso   1.000  S
  S17      1.0000 0.62960  0.73930  0.50000  Biso   1.000  S
  S18      1.0000 0.26070  0.62960  0.50000  Biso   1.000  S
  S19      1.0000 0.73930  0.37040  0.50000  Biso   1.000  S
  S20      1.0000 0.12960  0.23930  0.00000  Biso   1.000  S
  S21      1.0000 0.76070  0.12960  0.00000  Biso   1.000  S
  S22      1.0000 0.23930  0.87040  0.00000  Biso   1.000  S
  S23      1.0000 0.37040  0.26070  0.50000  Biso   1.000  S
  S24      1.0000 0.87040  0.76070  0.00000  Biso   1.000  S
  P1       1.0000 0.00000  0.00000  0.33470  Biso   1.000  P
  P2       1.0000 0.50000  0.50000  0.83470  Biso   1.000  P
  P3       1.0000 0.00000  0.00000  0.66530  Biso   1.000  P
  P4       1.0000 0.50000  0.50000  0.16530  Biso   1.000  P
  F1       1.0000 0.00000  0.00000  0.24320  Biso   1.000  F
  F2       1.0000 0.50000  0.50000  0.74320  Biso   1.000  F
  F3       1.0000 0.00000  0.00000  0.75680  Biso   1.000  F
  F4       1.0000 0.50000  0.50000  0.25680  Biso   1.000  F
  F5       1.0000 0.85920  0.03500  0.33360  Biso   1.000  F
  F6       1.0000 0.96500  0.85920  0.33360  Biso   1.000  F
  F7       1.0000 0.03500  0.14080  0.33360  Biso   1.000  F
  F8       1.0000 0.35920  0.53500  0.83360  Biso   1.000  F
  F9       1.0000 0.46500  0.35920  0.83360  Biso   1.000  F
  F10      1.0000 0.53500  0.64080  0.83360  Biso   1.000  F
  F11      1.0000 0.14080  0.96500  0.33360  Biso   1.000  F
  F12      1.0000 0.64080  0.46500  0.83360  Biso   1.000  F
  F13      1.0000 0.14080  0.96500  0.66640  Biso   1.000  F
  F14      1.0000 0.03500  0.14080  0.66640  Biso   1.000  F
  F15      1.0000 0.96500  0.85920  0.66640  Biso   1.000  F
  F16      1.0000 0.64080  0.46500  0.16640  Biso   1.000  F
  F17      1.0000 0.53500  0.64080  0.16640  Biso   1.000  F
  F18      1.0000 0.46500  0.35920  0.16640  Biso   1.000  F
  F19      1.0000 0.85920  0.03500  0.66640  Biso   1.000  F
  F20      1.0000 0.35920  0.53500  0.16640  Biso   1.000  F
  F21      1.0000 0.00000  0.00000  0.42360  Biso   1.000  F
  F22      1.0000 0.50000  0.50000  0.92360  Biso   1.000  F
  F23      1.0000 0.00000  0.00000  0.57640  Biso   1.000  F
  F24      1.0000 0.50000  0.50000  0.07640  Biso   1.000  F
  C1       1.0000 0.52590  0.94130  0.57020  Biso   1.000  C
  C2       1.0000 0.05870  0.52590  0.57020  Biso   1.000  C
  C3       1.0000 0.94130  0.47410  0.57020  Biso   1.000  C
  C4       1.0000 0.02590  0.44130  0.07020  Biso   1.000  C
  C5       1.0000 0.55870  0.02590  0.07020  Biso   1.000  C
  C6       1.0000 0.44130  0.97410  0.07020  Biso   1.000  C
  C7       1.0000 0.47410  0.05870  0.57020  Biso   1.000  C
  C8       1.0000 0.97410  0.55870  0.07020  Biso   1.000  C
  C9       1.0000 0.47410  0.05870  0.42980  Biso   1.000  C
  C10      1.0000 0.94130  0.47410  0.42980  Biso   1.000  C
  C11      1.0000 0.05870  0.52590  0.42980  Biso   1.000  C
  C12      1.0000 0.97410  0.55870  0.92980  Biso   1.000  C
  C13      1.0000 0.44130  0.97410  0.92980  Biso   1.000  C
  C14      1.0000 0.55870  0.02590  0.92980  Biso   1.000  C
  C15      1.0000 0.52590  0.94130  0.42980  Biso   1.000  C
  C16      1.0000 0.02590  0.44130  0.92980  Biso   1.000  C
  C17      1.0000 0.55380  0.88360  0.50000  Biso   1.000  C
  C18      1.0000 0.11640  0.55380  0.50000  Biso   1.000  C
  C19      1.0000 0.88360  0.44620  0.50000  Biso   1.000  C
  C20      1.0000 0.05380  0.38360  0.00000  Biso   1.000  C
  C21      1.0000 0.61640  0.05380  0.00000  Biso   1.000  C
  C22      1.0000 0.38360  0.94620  0.00000  Biso   1.000  C
  C23      1.0000 0.44620  0.11640  0.50000  Biso   1.000  C
  C24      1.0000 0.94620  0.61640  0.00000  Biso   1.000  C
  C25      1.0000 0.43090  0.75540  0.66030  Biso   1.000  C
  C26      1.0000 0.24460  0.43090  0.66030  Biso   1.000  C
  C27      1.0000 0.75540  0.56910  0.66030  Biso   1.000  C
  C28      1.0000 0.93090  0.25540  0.16030  Biso   1.000  C
  C29      1.0000 0.74460  0.93090  0.16030  Biso   1.000  C
  C30      1.0000 0.25540  0.06910  0.16030  Biso   1.000  C
  C31      1.0000 0.56910  0.24460  0.66030  Biso   1.000  C
  C32      1.0000 0.06910  0.74460  0.16030  Biso   1.000  C
  C33      1.0000 0.56910  0.24460  0.33970  Biso   1.000  C
  C34      1.0000 0.75540  0.56910  0.33970  Biso   1.000  C
  C35      1.0000 0.24460  0.43090  0.33970  Biso   1.000  C
  C36      1.0000 0.06910  0.74460  0.83970  Biso   1.000  C
  C37      1.0000 0.25540  0.06910  0.83970  Biso   1.000  C
  C38      1.0000 0.74460  0.93090  0.83970  Biso   1.000  C
  C39      1.0000 0.43090  0.75540  0.33970  Biso   1.000  C
  C40      1.0000 0.93090  0.25540  0.83970  Biso   1.000  C
  C41      1.0000 0.78550  0.79250  0.50000  Biso   1.000  C
  C42      1.0000 0.20750  0.78550  0.50000  Biso   1.000  C
  C43      1.0000 0.79250  0.21450  0.50000  Biso   1.000  C
  C44      1.0000 0.28550  0.29250  0.00000  Biso   1.000  C
  C45      1.0000 0.70750  0.28550  0.00000  Biso   1.000  C
  C46      1.0000 0.29250  0.71450  0.00000  Biso   1.000  C
  C47      1.0000 0.21450  0.20750  0.50000  Biso   1.000  C
  C48      1.0000 0.71450  0.70750  0.00000  Biso   1.000  C
  H1       1.0000 0.35790  0.79930  0.66010  Biso   1.000  H
  H2       1.0000 0.20070  0.35790  0.66010  Biso   1.000  H
  H3       1.0000 0.79930  0.64210  0.66010  Biso   1.000  H
  H4       1.0000 0.85790  0.29930  0.16010  Biso   1.000  H
  H5       1.0000 0.70070  0.85790  0.16010  Biso   1.000  H
  H6       1.0000 0.29930  0.14210  0.16010  Biso   1.000  H
  H7       1.0000 0.64210  0.20070  0.66010  Biso   1.000  H
  H8       1.0000 0.14210  0.70070  0.16010  Biso   1.000  H
  H9       1.0000 0.64210  0.20070  0.33990  Biso   1.000  H
  H10      1.0000 0.79930  0.64210  0.33990  Biso   1.000  H
  H11      1.0000 0.20070  0.35790  0.33990  Biso   1.000  H
  H12      1.0000 0.14210  0.70070  0.83990  Biso   1.000  H
  H13      1.0000 0.29930  0.14210  0.83990  Biso   1.000  H
  H14      1.0000 0.70070  0.85790  0.83990  Biso   1.000  H
  H15      1.0000 0.35790  0.79930  0.33990  Biso   1.000  H
  H16      1.0000 0.85790  0.29930  0.83990  Biso   1.000  H
  H17      1.0000 0.43770  0.72090  0.71070  Biso   1.000  H
  H18      1.0000 0.27910  0.43770  0.71070  Biso   1.000  H
  H19      1.0000 0.72090  0.56230  0.71070  Biso   1.000  H
  H20      1.0000 0.93770  0.22090  0.21070  Biso   1.000  H
  H21      1.0000 0.77910  0.93770  0.21070  Biso   1.000  H
  H22      1.0000 0.22090  0.06230  0.21070  Biso   1.000  H
  H23      1.0000 0.56230  0.27910  0.71070  Biso   1.000  H
  H24      1.0000 0.06230  0.77910  0.21070  Biso   1.000  H
  H25      1.0000 0.56230  0.27910  0.28930  Biso   1.000  H
  H26      1.0000 0.72090  0.56230  0.28930  Biso   1.000  H
  H27      1.0000 0.27910  0.43770  0.28930  Biso   1.000  H
  H28      1.0000 0.06230  0.77910  0.78930  Biso   1.000  H
  H29      1.0000 0.22090  0.06230  0.78930  Biso   1.000  H
  H30      1.0000 0.77910  0.93770  0.78930  Biso   1.000  H
  H31      1.0000 0.43770  0.72090  0.28930  Biso   1.000  H
  H32      1.0000 0.93770  0.22090  0.78930  Biso   1.000  H
  H33      1.0000 0.44330  0.69940  0.61990  Biso   1.000  H
  H34      1.0000 0.30060  0.44330  0.61990  Biso   1.000  H
  H35      1.0000 0.69940  0.55670  0.61990  Biso   1.000  H
  H36      1.0000 0.94330  0.19940  0.11990  Biso   1.000  H
  H37      1.0000 0.80060  0.94330  0.11990  Biso   1.000  H
  H38      1.0000 0.19940  0.05670  0.11990  Biso   1.000  H
  H39      1.0000 0.55670  0.30060  0.61990  Biso   1.000  H
  H40      1.0000 0.05670  0.80060  0.11990  Biso   1.000  H
  H41      1.0000 0.55670  0.30060  0.38010  Biso   1.000  H
  H42      1.0000 0.69940  0.55670  0.38010  Biso   1.000  H
  H43      1.0000 0.30060  0.44330  0.38010  Biso   1.000  H
  H44      1.0000 0.05670  0.80060  0.88010  Biso   1.000  H
  H45      1.0000 0.19940  0.05670  0.88010  Biso   1.000  H
  H46      1.0000 0.80060  0.94330  0.88010  Biso   1.000  H
  H47      1.0000 0.44330  0.69940  0.38010  Biso   1.000  H
  H48      1.0000 0.94330  0.19940  0.88010  Biso   1.000  H
  H49      1.0000 0.80710  0.83940  0.45700  Biso   1.000  H
  H50      1.0000 0.16060  0.80710  0.45700  Biso   1.000  H
  H51      1.0000 0.83940  0.19290  0.45700  Biso   1.000  H
  H52      1.0000 0.30710  0.33940  0.95700  Biso   1.000  H
  H53      1.0000 0.66060  0.30710  0.95700  Biso   1.000  H
  H54      1.0000 0.33940  0.69290  0.95700  Biso   1.000  H
  H55      1.0000 0.19290  0.16060  0.45700  Biso   1.000  H
  H56      1.0000 0.69290  0.66060  0.95700  Biso   1.000  H
  H57      1.0000 0.19290  0.16060  0.54300  Biso   1.000  H
  H58      1.0000 0.83940  0.19290  0.54300  Biso   1.000  H
  H59      1.0000 0.16060  0.80710  0.54300  Biso   1.000  H
  H60      1.0000 0.69290  0.66060  0.04300  Biso   1.000  H
  H61      1.0000 0.33940  0.69290  0.04300  Biso   1.000  H
  H62      1.0000 0.66060  0.30710  0.04300  Biso   1.000  H
  H63      1.0000 0.80710  0.83940  0.54300  Biso   1.000  H
  H64      1.0000 0.30710  0.33940  0.04300  Biso   1.000  H
  H65      1.0000 0.84280  0.71530  0.50000  Biso   1.000  H
  H66      1.0000 0.28470  0.84280  0.50000  Biso   1.000  H
  H67      1.0000 0.71530  0.15720  0.50000  Biso   1.000  H
  H68      1.0000 0.34280  0.21530  0.00000  Biso   1.000  H
  H69      1.0000 0.78470  0.34280  0.00000  Biso   1.000  H
  H70      1.0000 0.21530  0.65720  0.00000  Biso   1.000  H
  H71      1.0000 0.15720  0.28470  0.50000  Biso   1.000  H
  H72      1.0000 0.65720  0.78470  0.00000  Biso   1.000  H
