data_image0
_cell_length_a       6.883
_cell_length_b       11.96
_cell_length_c       7.958
_cell_angle_alpha    90
_cell_angle_beta     107.2
_cell_angle_gamma    90

_symmetry_space_group_name_H-M    "P 1"
_symmetry_int_tables_number       1

loop_
  _symmetry_equiv_pos_as_xyz
  'x, y, z'

loop_
  _atom_site_label
  _atom_site_occupancy
  _atom_site_fract_x
  _atom_site_fract_y
  _atom_site_fract_z
  _atom_site_thermal_displace_type
  _atom_site_B_iso_or_equiv
  _atom_site_type_symbol
  C1       1.0000 0.29250  0.41010  0.18860  Biso   1.000  C
  C2       1.0000 0.70750  0.91010  0.81140  Biso   1.000  C
  C3       1.0000 0.70750  0.58990  0.81140  Biso   1.000  C
  C4       1.0000 0.29250  0.08990  0.18860  Biso   1.000  C
  Cu1      1.0000 0.31640  0.75000  0.03700  Biso   1.000  Cu
  Cu2      1.0000 0.68360  0.25000  0.96300  Biso   1.000  Cu
  Cu3      1.0000 0.05680  0.75000  0.38020  Biso   1.000  Cu
  Cu4      1.0000 0.94320  0.25000  0.61980  Biso   1.000  Cu
  C5       1.0000 0.77530  0.75000  0.24950  Biso   1.000  C
  C6       1.0000 0.22470  0.25000  0.75050  Biso   1.000  C
  C7       1.0000 0.22040  0.75000  0.78510  Biso   1.000  C
  C8       1.0000 0.77960  0.25000  0.21490  Biso   1.000  C
  C9       1.0000 0.27130  0.50680  0.09220  Biso   1.000  C
  C10      1.0000 0.72870  0.00680  0.90780  Biso   1.000  C
  C11      1.0000 0.72870  0.49320  0.90780  Biso   1.000  C
  C12      1.0000 0.27130  0.99320  0.09220  Biso   1.000  C
  C13      1.0000 0.22390  0.51610  0.40680  Biso   1.000  C
  C14      1.0000 0.77610  0.01610  0.59320  Biso   1.000  C
  C15      1.0000 0.77610  0.48390  0.59320  Biso   1.000  C
  C16      1.0000 0.22390  0.98390  0.40680  Biso   1.000  C
  C17      1.0000 0.26660  0.41460  0.34990  Biso   1.000  C
  C18      1.0000 0.73340  0.91460  0.65010  Biso   1.000  C
  C19      1.0000 0.73340  0.58540  0.65010  Biso   1.000  C
  C20      1.0000 0.26660  0.08540  0.34990  Biso   1.000  C
  H1       1.0000 0.28700  0.50800  0.97200  Biso   1.000  H
  H2       1.0000 0.71300  0.00800  0.02800  Biso   1.000  H
  H3       1.0000 0.71300  0.49200  0.02800  Biso   1.000  H
  H4       1.0000 0.28700  0.99200  0.97200  Biso   1.000  H
  H5       1.0000 0.20300  0.53100  0.52400  Biso   1.000  H
  H6       1.0000 0.79700  0.03100  0.47600  Biso   1.000  H
  H7       1.0000 0.79700  0.46900  0.47600  Biso   1.000  H
  H8       1.0000 0.20300  0.96900  0.52400  Biso   1.000  H
  H9       1.0000 0.27700  0.35100  0.43400  Biso   1.000  H
  H10      1.0000 0.72300  0.85100  0.56600  Biso   1.000  H
  H11      1.0000 0.72300  0.64900  0.56600  Biso   1.000  H
  H12      1.0000 0.27700  0.14900  0.43400  Biso   1.000  H
  H13      1.0000 0.32200  0.34300  0.12700  Biso   1.000  H
  H14      1.0000 0.67800  0.84300  0.87300  Biso   1.000  H
  H15      1.0000 0.67800  0.65700  0.87300  Biso   1.000  H
  H16      1.0000 0.32200  0.15700  0.12700  Biso   1.000  H
  N1       1.0000 0.60410  0.75000  0.17330  Biso   1.000  N
  N2       1.0000 0.39590  0.25000  0.82670  Biso   1.000  N
  N3       1.0000 0.16680  0.75000  0.63350  Biso   1.000  N
  N4       1.0000 0.83320  0.25000  0.36650  Biso   1.000  N
  N5       1.0000 0.23300  0.60520  0.15350  Biso   1.000  N
  N6       1.0000 0.76700  0.10520  0.84650  Biso   1.000  N
  N7       1.0000 0.76700  0.39480  0.84650  Biso   1.000  N
  N8       1.0000 0.23300  0.89480  0.15350  Biso   1.000  N
  N9       1.0000 0.20490  0.60940  0.31310  Biso   1.000  N
  N10      1.0000 0.79510  0.10940  0.68690  Biso   1.000  N
  N11      1.0000 0.79510  0.39060  0.68690  Biso   1.000  N
  N12      1.0000 0.20490  0.89060  0.31310  Biso   1.000  N
