data_image0
_cell_length_a       10.408
_cell_length_b       8.249
_cell_length_c       20.662
_cell_angle_alpha    90
_cell_angle_beta     108.99
_cell_angle_gamma    90

_symmetry_space_group_name_H-M    "P 1"
_symmetry_int_tables_number       1

loop_
  _symmetry_equiv_pos_as_xyz
  'x, y, z'

loop_
  _atom_site_label
  _atom_site_occupancy
  _atom_site_fract_x
  _atom_site_fract_y
  _atom_site_fract_z
  _atom_site_thermal_displace_type
  _atom_site_B_iso_or_equiv
  _atom_site_type_symbol
  Cl1      1.0000 0.68001  0.09543  0.41843  Biso   1.000  Cl
  Cl2      1.0000 0.31999  0.59543  0.08157  Biso   1.000  Cl
  Cl3      1.0000 0.31999  0.90457  0.58157  Biso   1.000  Cl
  Cl4      1.0000 0.68001  0.40457  0.91843  Biso   1.000  Cl
  Cu1      1.0000 0.10786  0.38480  0.26353  Biso   1.000  Cu
  Cu2      1.0000 0.89214  0.88480  0.23647  Biso   1.000  Cu
  Cu3      1.0000 0.89214  0.61520  0.73647  Biso   1.000  Cu
  Cu4      1.0000 0.10786  0.11520  0.76353  Biso   1.000  Cu
  C1       1.0000 0.89088  0.81402  0.08328  Biso   1.000  C
  C2       1.0000 0.10912  0.31402  0.41672  Biso   1.000  C
  C3       1.0000 0.10912  0.18598  0.91672  Biso   1.000  C
  C4       1.0000 0.89088  0.68598  0.58328  Biso   1.000  C
  C5       1.0000 0.74037  0.83362  0.07478  Biso   1.000  C
  C6       1.0000 0.25963  0.33362  0.42522  Biso   1.000  C
  C7       1.0000 0.25963  0.16638  0.92522  Biso   1.000  C
  C8       1.0000 0.74037  0.66638  0.57478  Biso   1.000  C
  C9       1.0000 0.70525  0.99253  0.10041  Biso   1.000  C
  C10      1.0000 0.29475  0.49253  0.39959  Biso   1.000  C
  C11      1.0000 0.29475  0.00747  0.89959  Biso   1.000  C
  C12      1.0000 0.70525  0.50747  0.60041  Biso   1.000  C
  C13      1.0000 0.63454  0.11104  0.05439  Biso   1.000  C
  C14      1.0000 0.36546  0.61104  0.44561  Biso   1.000  C
  C15      1.0000 0.36546  0.88896  0.94561  Biso   1.000  C
  C16      1.0000 0.63454  0.38896  0.55439  Biso   1.000  C
  C17      1.0000 0.59982  0.25603  0.07815  Biso   1.000  C
  C18      1.0000 0.40018  0.75603  0.42185  Biso   1.000  C
  C19      1.0000 0.40018  0.74397  0.92185  Biso   1.000  C
  C20      1.0000 0.59982  0.24397  0.57815  Biso   1.000  C
  C21      1.0000 0.63515  0.27941  0.14807  Biso   1.000  C
  C22      1.0000 0.36485  0.77941  0.35193  Biso   1.000  C
  C23      1.0000 0.36485  0.72059  0.85193  Biso   1.000  C
  C24      1.0000 0.63515  0.22059  0.64807  Biso   1.000  C
  C25      1.0000 0.70692  0.15915  0.19120  Biso   1.000  C
  C26      1.0000 0.29308  0.65915  0.30880  Biso   1.000  C
  C27      1.0000 0.29308  0.84085  0.80880  Biso   1.000  C
  C28      1.0000 0.70692  0.34085  0.69120  Biso   1.000  C
  C29      1.0000 0.98664  0.43021  0.10273  Biso   1.000  C
  C30      1.0000 0.01336  0.93021  0.39727  Biso   1.000  C
  C31      1.0000 0.01336  0.56979  0.89727  Biso   1.000  C
  C32      1.0000 0.98664  0.06979  0.60273  Biso   1.000  C
  C33      1.0000 0.99926  0.24528  0.11032  Biso   1.000  C
  C34      1.0000 0.00074  0.74528  0.38968  Biso   1.000  C
  C35      1.0000 0.00074  0.75472  0.88968  Biso   1.000  C
  C36      1.0000 0.99926  0.25472  0.61032  Biso   1.000  C
  C37      1.0000 0.14017  0.18592  0.14861  Biso   1.000  C
  C38      1.0000 0.85983  0.68592  0.35139  Biso   1.000  C
  C39      1.0000 0.85983  0.81408  0.85139  Biso   1.000  C
  C40      1.0000 0.14017  0.31408  0.64861  Biso   1.000  C
  C41      1.0000 0.20902  0.08415  0.11750  Biso   1.000  C
  C42      1.0000 0.79098  0.58415  0.38250  Biso   1.000  C
  C43      1.0000 0.79098  0.91585  0.88250  Biso   1.000  C
  C44      1.0000 0.20902  0.41585  0.61750  Biso   1.000  C
  C45      1.0000 0.33869  0.03061  0.15333  Biso   1.000  C
  C46      1.0000 0.66131  0.53061  0.34667  Biso   1.000  C
  C47      1.0000 0.66131  0.96939  0.84667  Biso   1.000  C
  C48      1.0000 0.33869  0.46939  0.65333  Biso   1.000  C
  C49      1.0000 0.39776  0.08145  0.22002  Biso   1.000  C
  C50      1.0000 0.60224  0.58145  0.27998  Biso   1.000  C
  C51      1.0000 0.60224  0.91855  0.77998  Biso   1.000  C
  C52      1.0000 0.39776  0.41855  0.72002  Biso   1.000  C
  C53      1.0000 0.32450  0.18250  0.24839  Biso   1.000  C
  C54      1.0000 0.67550  0.68250  0.25161  Biso   1.000  C
  C55      1.0000 0.67550  0.81750  0.75161  Biso   1.000  C
  C56      1.0000 0.32450  0.31750  0.74839  Biso   1.000  C
  H1       1.0000 0.89900  0.73800  0.04800  Biso   1.000  H
  H2       1.0000 0.10100  0.23800  0.45200  Biso   1.000  H
  H3       1.0000 0.10100  0.26200  0.95200  Biso   1.000  H
  H4       1.0000 0.89900  0.76200  0.54800  Biso   1.000  H
  H5       1.0000 0.93200  0.92100  0.07300  Biso   1.000  H
  H6       1.0000 0.06800  0.42100  0.42700  Biso   1.000  H
  H7       1.0000 0.06800  0.07900  0.92700  Biso   1.000  H
  H8       1.0000 0.93200  0.57900  0.57300  Biso   1.000  H
  H9       1.0000 0.71000  0.74300  0.09400  Biso   1.000  H
  H10      1.0000 0.29000  0.24300  0.40600  Biso   1.000  H
  H11      1.0000 0.29000  0.25700  0.90600  Biso   1.000  H
  H12      1.0000 0.71000  0.75700  0.59400  Biso   1.000  H
  H13      1.0000 0.68600  0.83000  0.02700  Biso   1.000  H
  H14      1.0000 0.31400  0.33000  0.47300  Biso   1.000  H
  H15      1.0000 0.31400  0.17000  0.97300  Biso   1.000  H
  H16      1.0000 0.68600  0.67000  0.52700  Biso   1.000  H
  H17      1.0000 0.61400  0.09800  0.00800  Biso   1.000  H
  H18      1.0000 0.38600  0.59800  0.49200  Biso   1.000  H
  H19      1.0000 0.38600  0.90200  0.99200  Biso   1.000  H
  H20      1.0000 0.61400  0.40200  0.50800  Biso   1.000  H
  H21      1.0000 0.54700  0.33000  0.04600  Biso   1.000  H
  H22      1.0000 0.45300  0.83000  0.45400  Biso   1.000  H
  H23      1.0000 0.45300  0.67000  0.95400  Biso   1.000  H
  H24      1.0000 0.54700  0.17000  0.54600  Biso   1.000  H
  H25      1.0000 0.60800  0.38700  0.16900  Biso   1.000  H
  H26      1.0000 0.39200  0.88700  0.33100  Biso   1.000  H
  H27      1.0000 0.39200  0.61300  0.83100  Biso   1.000  H
  H28      1.0000 0.60800  0.11300  0.66900  Biso   1.000  H
  H29      1.0000 0.74100  0.16000  0.24000  Biso   1.000  H
  H30      1.0000 0.25900  0.66000  0.26000  Biso   1.000  H
  H31      1.0000 0.25900  0.84000  0.76000  Biso   1.000  H
  H32      1.0000 0.74100  0.34000  0.74000  Biso   1.000  H
  H33      1.0000 0.06800  0.48200  0.10200  Biso   1.000  H
  H34      1.0000 0.93200  0.98200  0.39800  Biso   1.000  H
  H35      1.0000 0.93200  0.51800  0.89800  Biso   1.000  H
  H36      1.0000 0.06800  0.01800  0.60200  Biso   1.000  H
  H37      1.0000 0.91900  0.45600  0.06400  Biso   1.000  H
  H38      1.0000 0.08100  0.95600  0.43600  Biso   1.000  H
  H39      1.0000 0.08100  0.54400  0.93600  Biso   1.000  H
  H40      1.0000 0.91900  0.04400  0.56400  Biso   1.000  H
  H41      1.0000 0.97100  0.20400  0.06800  Biso   1.000  H
  H42      1.0000 0.02900  0.70400  0.43200  Biso   1.000  H
  H43      1.0000 0.02900  0.79600  0.93200  Biso   1.000  H
  H44      1.0000 0.97100  0.29600  0.56800  Biso   1.000  H
  H45      1.0000 0.93900  0.20100  0.13100  Biso   1.000  H
  H46      1.0000 0.06100  0.70100  0.36900  Biso   1.000  H
  H47      1.0000 0.06100  0.79900  0.86900  Biso   1.000  H
  H48      1.0000 0.93900  0.29900  0.63100  Biso   1.000  H
  H49      1.0000 0.16400  0.06000  0.07400  Biso   1.000  H
  H50      1.0000 0.83600  0.56000  0.42600  Biso   1.000  H
  H51      1.0000 0.83600  0.94000  0.92600  Biso   1.000  H
  H52      1.0000 0.16400  0.44000  0.57400  Biso   1.000  H
  H53      1.0000 0.38200  0.96200  0.13300  Biso   1.000  H
  H54      1.0000 0.61800  0.46200  0.36700  Biso   1.000  H
  H55      1.0000 0.61800  0.03800  0.86700  Biso   1.000  H
  H56      1.0000 0.38200  0.53800  0.63300  Biso   1.000  H
  H57      1.0000 0.48400  0.04300  0.25000  Biso   1.000  H
  H58      1.0000 0.51600  0.54300  0.25000  Biso   1.000  H
  H59      1.0000 0.51600  0.95700  0.75000  Biso   1.000  H
  H60      1.0000 0.48400  0.45700  0.75000  Biso   1.000  H
  H61      1.0000 0.36400  0.21600  0.29500  Biso   1.000  H
  H62      1.0000 0.63600  0.71600  0.20500  Biso   1.000  H
  H63      1.0000 0.63600  0.78400  0.70500  Biso   1.000  H
  H64      1.0000 0.36400  0.28400  0.79500  Biso   1.000  H
  N1       1.0000 0.19713  0.23352  0.21397  Biso   1.000  N
  N2       1.0000 0.80287  0.73352  0.28603  Biso   1.000  N
  N3       1.0000 0.80287  0.76648  0.78603  Biso   1.000  N
  N4       1.0000 0.19713  0.26648  0.71397  Biso   1.000  N
  N5       1.0000 0.74435  0.01860  0.16863  Biso   1.000  N
  N6       1.0000 0.25565  0.51860  0.33137  Biso   1.000  N
  N7       1.0000 0.25565  0.98140  0.83137  Biso   1.000  N
  N8       1.0000 0.74435  0.48140  0.66863  Biso   1.000  N
  O1       1.0000 0.54981  0.16498  0.41103  Biso   1.000  O
  O2       1.0000 0.45019  0.66498  0.08897  Biso   1.000  O
  O3       1.0000 0.45019  0.83502  0.58897  Biso   1.000  O
  O4       1.0000 0.54981  0.33502  0.91103  Biso   1.000  O
  O5       1.0000 0.78562  0.21198  0.44771  Biso   1.000  O
  O6       1.0000 0.21438  0.71198  0.05229  Biso   1.000  O
  O7       1.0000 0.21438  0.78802  0.55229  Biso   1.000  O
  O8       1.0000 0.78562  0.28802  0.94771  Biso   1.000  O
  O9       1.0000 0.68371  0.04820  0.35235  Biso   1.000  O
  O10      1.0000 0.31629  0.54820  0.14765  Biso   1.000  O
  O11      1.0000 0.31629  0.95180  0.64765  Biso   1.000  O
  O12      1.0000 0.68371  0.45180  0.85235  Biso   1.000  O
  O13      1.0000 0.70415  0.95847  0.46268  Biso   1.000  O
  O14      1.0000 0.29585  0.45847  0.03732  Biso   1.000  O
  O15      1.0000 0.29585  0.04153  0.53732  Biso   1.000  O
  O16      1.0000 0.70415  0.54153  0.96268  Biso   1.000  O
  S1       1.0000 0.00203  0.75980  0.16876  Biso   1.000  S
  S2       1.0000 0.99797  0.25980  0.33124  Biso   1.000  S
  S3       1.0000 0.99797  0.24020  0.83124  Biso   1.000  S
  S4       1.0000 0.00203  0.74020  0.66876  Biso   1.000  S
  S5       1.0000 0.94632  0.51955  0.17501  Biso   1.000  S
  S6       1.0000 0.05368  0.01955  0.32499  Biso   1.000  S
  S7       1.0000 0.05368  0.48045  0.82499  Biso   1.000  S
  S8       1.0000 0.94632  0.98045  0.67501  Biso   1.000  S
