data_image0
_cell_length_a       8.4092
_cell_length_b       14.2814
_cell_length_c       15.7252
_cell_angle_alpha    74.15
_cell_angle_beta     77.635
_cell_angle_gamma    73.832

_symmetry_space_group_name_H-M    "P 1"
_symmetry_int_tables_number       1

loop_
  _symmetry_equiv_pos_as_xyz
  'x, y, z'

loop_
  _atom_site_label
  _atom_site_occupancy
  _atom_site_fract_x
  _atom_site_fract_y
  _atom_site_fract_z
  _atom_site_thermal_displace_type
  _atom_site_B_iso_or_equiv
  _atom_site_type_symbol
  Er1      1.0000 0.79511  0.40505  0.07491  Biso   1.000  Er
  Er2      1.0000 0.20489  0.59495  0.92509  Biso   1.000  Er
  Cu1      1.0000 0.10610  0.91180  0.51373  Biso   1.000  Cu
  Cu2      1.0000 0.89390  0.08820  0.48627  Biso   1.000  Cu
  I1       1.0000 0.99591  0.00334  0.64441  Biso   1.000  I
  I2       1.0000 0.00409  0.99666  0.35559  Biso   1.000  I
  C1       1.0000 0.72150  0.24890  0.03480  Biso   1.000  C
  C2       1.0000 0.27850  0.75110  0.96520  Biso   1.000  C
  C3       1.0000 0.69610  0.17660  0.98920  Biso   1.000  C
  C4       1.0000 0.30390  0.82340  0.01080  Biso   1.000  C
  C5       1.0000 0.58040  0.20200  0.93520  Biso   1.000  C
  C6       1.0000 0.41960  0.79800  0.06480  Biso   1.000  C
  H1       1.0000 0.51220  0.26640  0.92690  Biso   1.000  H
  H2       1.0000 0.48780  0.73360  0.07310  Biso   1.000  H
  C7       1.0000 0.78680  0.07930  0.00840  Biso   1.000  C
  C8       1.0000 0.21320  0.92070  0.99160  Biso   1.000  C
  H3       1.0000 0.86160  0.05960  0.04930  Biso   1.000  H
  H4       1.0000 0.13840  0.94040  0.95070  Biso   1.000  H
  C9       1.0000 0.55890  0.13700  0.89210  Biso   1.000  C
  C10      1.0000 0.44110  0.86300  0.10790  Biso   1.000  C
  H5       1.0000 0.47710  0.15800  0.85500  Biso   1.000  H
  H6       1.0000 0.52290  0.84200  0.14500  Biso   1.000  H
  C11      1.0000 0.76590  0.00960  0.96620  Biso   1.000  C
  C12      1.0000 0.23410  0.99040  0.03380  Biso   1.000  C
  H7       1.0000 0.82460  0.94320  0.98020  Biso   1.000  H
  H8       1.0000 0.17540  0.05680  0.01980  Biso   1.000  H
  C13      1.0000 0.65600  0.04070  0.90240  Biso   1.000  C
  C14      1.0000 0.34400  0.95930  0.09760  Biso   1.000  C
  C15      1.0000 0.63080  0.96710  0.85810  Biso   1.000  C
  C16      1.0000 0.36920  0.03290  0.14190  Biso   1.000  C
  C17      1.0000 0.49080  0.98290  0.81830  Biso   1.000  C
  C18      1.0000 0.50920  0.01710  0.18170  Biso   1.000  C
  H9       1.0000 0.40920  0.04240  0.81680  Biso   1.000  H
  H10      1.0000 0.59080  0.95760  0.18320  Biso   1.000  H
  C19      1.0000 0.74890  0.87750  0.85580  Biso   1.000  C
  C20      1.0000 0.25110  0.12250  0.14420  Biso   1.000  C
  H11      1.0000 0.84640  0.86570  0.87990  Biso   1.000  H
  H12      1.0000 0.15360  0.13430  0.12010  Biso   1.000  H
  C21      1.0000 0.47270  0.91080  0.78120  Biso   1.000  C
  C22      1.0000 0.52730  0.08920  0.21880  Biso   1.000  C
  H13      1.0000 0.37920  0.92160  0.75410  Biso   1.000  H
  H14      1.0000 0.62080  0.07840  0.24590  Biso   1.000  H
  N1       1.0000 0.72740  0.80700  0.81970  Biso   1.000  N
  N2       1.0000 0.27260  0.19300  0.18030  Biso   1.000  N
  C23      1.0000 0.54640  0.43200  0.21820  Biso   1.000  C
  C24      1.0000 0.45360  0.56800  0.78180  Biso   1.000  C
  C25      1.0000 0.43190  0.46450  0.29510  Biso   1.000  C
  C26      1.0000 0.56810  0.53550  0.70490  Biso   1.000  C
  C27      1.0000 0.30190  0.55010  0.27970  Biso   1.000  C
  C28      1.0000 0.69810  0.44990  0.72030  Biso   1.000  C
  H15      1.0000 0.27620  0.57870  0.22210  Biso   1.000  H
  H16      1.0000 0.72380  0.42130  0.77790  Biso   1.000  H
  C29      1.0000 0.45690  0.41840  0.38300  Biso   1.000  C
  C30      1.0000 0.54310  0.58160  0.61700  Biso   1.000  C
  H17      1.0000 0.53820  0.35910  0.39480  Biso   1.000  H
  H18      1.0000 0.46180  0.64090  0.60520  Biso   1.000  H
  C31      1.0000 0.21210  0.59210  0.34980  Biso   1.000  C
  C32      1.0000 0.78790  0.40790  0.65020  Biso   1.000  C
  H19      1.0000 0.12820  0.65010  0.33850  Biso   1.000  H
  H20      1.0000 0.87180  0.34990  0.66150  Biso   1.000  H
  C33      1.0000 0.36280  0.45950  0.45220  Biso   1.000  C
  C34      1.0000 0.63720  0.54050  0.54780  Biso   1.000  C
  H21      1.0000 0.37880  0.42650  0.51060  Biso   1.000  H
  H22      1.0000 0.62120  0.57350  0.48940  Biso   1.000  H
  C35      1.0000 0.24310  0.55020  0.43660  Biso   1.000  C
  C36      1.0000 0.75690  0.44980  0.56340  Biso   1.000  C
  C37      1.0000 0.15900  0.60390  0.50900  Biso   1.000  C
  C38      1.0000 0.84100  0.39610  0.49100  Biso   1.000  C
  C39      1.0000 0.10810  0.55610  0.59660  Biso   1.000  C
  C40      1.0000 0.89190  0.44390  0.40340  Biso   1.000  C
  H23      1.0000 0.11940  0.48710  0.61230  Biso   1.000  H
  H24      1.0000 0.88060  0.51290  0.38770  Biso   1.000  H
  C41      1.0000 0.14400  0.70690  0.49060  Biso   1.000  C
  C42      1.0000 0.85600  0.29310  0.50940  Biso   1.000  C
  H25      1.0000 0.17890  0.73920  0.43240  Biso   1.000  H
  H26      1.0000 0.82110  0.26080  0.56760  Biso   1.000  H
  C43      1.0000 0.04060  0.61300  0.65910  Biso   1.000  C
  C44      1.0000 0.95940  0.38700  0.34090  Biso   1.000  C
  H27      1.0000 0.00220  0.58300  0.71750  Biso   1.000  H
  H28      1.0000 0.99780  0.41700  0.28250  Biso   1.000  H
  N3       1.0000 0.08260  0.76140  0.55160  Biso   1.000  N
  N4       1.0000 0.91740  0.23860  0.44840  Biso   1.000  N
  C45      1.0000 0.08910  0.39310  0.89500  Biso   1.000  C
  C46      1.0000 0.91090  0.60690  0.10500  Biso   1.000  C
  C47      1.0000 0.16640  0.33730  0.82220  Biso   1.000  C
  C48      1.0000 0.83360  0.66270  0.17780  Biso   1.000  C
  C49      1.0000 0.09300  0.27040  0.80540  Biso   1.000  C
  C50      1.0000 0.90700  0.72960  0.19460  Biso   1.000  C
  H29      1.0000 0.99450  0.25820  0.84150  Biso   1.000  H
  H30      1.0000 0.00550  0.74180  0.15850  Biso   1.000  H
  C51      1.0000 0.31250  0.35420  0.76950  Biso   1.000  C
  C52      1.0000 0.68750  0.64580  0.23050  Biso   1.000  C
  H31      1.0000 0.36490  0.39820  0.78050  Biso   1.000  H
  H32      1.0000 0.63510  0.60180  0.21950  Biso   1.000  H
  C53      1.0000 0.15900  0.22120  0.73760  Biso   1.000  C
  C54      1.0000 0.84100  0.77880  0.26240  Biso   1.000  C
  H33      1.0000 0.10690  0.17590  0.72850  Biso   1.000  H
  H34      1.0000 0.89310  0.82410  0.27150  Biso   1.000  H
  C55      1.0000 0.38310  0.30630  0.69990  Biso   1.000  C
  C56      1.0000 0.61690  0.69370  0.30010  Biso   1.000  C
  H35      1.0000 0.48250  0.31830  0.66460  Biso   1.000  H
  H36      1.0000 0.51750  0.68170  0.33540  Biso   1.000  H
  C57      1.0000 0.30540  0.24000  0.68240  Biso   1.000  C
  C58      1.0000 0.69460  0.76000  0.31760  Biso   1.000  C
  C59      1.0000 0.38030  0.19140  0.60680  Biso   1.000  C
  C60      1.0000 0.61970  0.80860  0.39320  Biso   1.000  C
  C61      1.0000 0.28750  0.18410  0.54720  Biso   1.000  C
  C62      1.0000 0.71250  0.81590  0.45280  Biso   1.000  C
  H37      1.0000 0.17150  0.20610  0.55650  Biso   1.000  H
  H38      1.0000 0.82850  0.79390  0.44350  Biso   1.000  H
  C63      1.0000 0.55230  0.15450  0.58740  Biso   1.000  C
  C64      1.0000 0.44770  0.84550  0.41260  Biso   1.000  C
  H39      1.0000 0.61750  0.15550  0.62790  Biso   1.000  H
  H40      1.0000 0.38250  0.84450  0.37210  Biso   1.000  H
  C65      1.0000 0.36470  0.14490  0.47460  Biso   1.000  C
  C66      1.0000 0.63530  0.85510  0.52540  Biso   1.000  C
  H41      1.0000 0.30130  0.13830  0.43570  Biso   1.000  H
  H42      1.0000 0.69870  0.86170  0.56430  Biso   1.000  H
  N5       1.0000 0.63390  0.11730  0.51540  Biso   1.000  N
  N6       1.0000 0.36610  0.88270  0.48460  Biso   1.000  N
  C67      1.0000 0.59350  0.82200  0.78420  Biso   1.000  C
  C68      1.0000 0.40650  0.17800  0.21580  Biso   1.000  C
  H43      1.0000 0.57880  0.77240  0.76060  Biso   1.000  H
  H44      1.0000 0.42120  0.22760  0.23940  Biso   1.000  H
  C69      1.0000 0.03030  0.71430  0.63510  Biso   1.000  C
  C70      1.0000 0.96970  0.28570  0.36490  Biso   1.000  C
  H45      1.0000 0.98530  0.75170  0.67830  Biso   1.000  H
  H46      1.0000 0.01470  0.24830  0.32170  Biso   1.000  H
  C71      1.0000 0.53690  0.11510  0.45930  Biso   1.000  C
  C72      1.0000 0.46310  0.88490  0.54070  Biso   1.000  C
  H47      1.0000 0.58770  0.09250  0.40760  Biso   1.000  H
  H48      1.0000 0.41230  0.90750  0.59240  Biso   1.000  H
  O1       1.0000 0.83620  0.22990  0.08040  Biso   1.000  O
  O2       1.0000 0.16380  0.77010  0.91960  Biso   1.000  O
  O3       1.0000 0.62380  0.33690  0.02330  Biso   1.000  O
  O4       1.0000 0.37620  0.66310  0.97670  Biso   1.000  O
  O5       1.0000 0.68700  0.54140  0.95930  Biso   1.000  O
  O6       1.0000 0.31300  0.45860  0.04070  Biso   1.000  O
  O7       1.0000 0.52070  0.47970  0.13990  Biso   1.000  O
  O8       1.0000 0.47930  0.52030  0.86010  Biso   1.000  O
  O9       1.0000 0.67680  0.36100  0.22900  Biso   1.000  O
  O10      1.0000 0.32320  0.63900  0.77100  Biso   1.000  O
  O11      1.0000 0.05120  0.36000  0.12420  Biso   1.000  O
  O12      1.0000 0.94880  0.64000  0.87580  Biso   1.000  O
  O13      1.0000 0.95420  0.37790  0.94140  Biso   1.000  O
  O14      1.0000 0.04580  0.62210  0.05860  Biso   1.000  O
  O15      1.0000 0.16380  0.45220  0.90650  Biso   1.000  O
  O16      1.0000 0.83620  0.54780  0.09350  Biso   1.000  O
  H49      1.0000 0.66550  0.51650  0.92330  Biso   1.000  H
  H50      1.0000 0.33450  0.48350  0.07670  Biso   1.000  H
  H51      1.0000 0.58790  0.56560  0.97500  Biso   1.000  H
  H52      1.0000 0.41210  0.43440  0.02500  Biso   1.000  H
  H53      1.0000 0.12240  0.30770  0.13590  Biso   1.000  H
  H54      1.0000 0.87760  0.69230  0.86410  Biso   1.000  H
  H55      1.0000 0.12920  0.38780  0.10570  Biso   1.000  H
  H56      1.0000 0.87080  0.61220  0.89430  Biso   1.000  H
