data_image0
_cell_length_a       18.4896
_cell_length_b       8.4033
_cell_length_c       16.5166
_cell_angle_alpha    90
_cell_angle_beta     109.974
_cell_angle_gamma    90

_symmetry_space_group_name_H-M    "P 1"
_symmetry_int_tables_number       1

loop_
  _symmetry_equiv_pos_as_xyz
  'x, y, z'

loop_
  _atom_site_label
  _atom_site_occupancy
  _atom_site_fract_x
  _atom_site_fract_y
  _atom_site_fract_z
  _atom_site_thermal_displace_type
  _atom_site_B_iso_or_equiv
  _atom_site_type_symbol
  C1       1.0000 0.19510  0.52870  0.08580  Biso   1.000  C
  C2       1.0000 0.80490  0.02870  0.41420  Biso   1.000  C
  C3       1.0000 0.80490  0.47130  0.91420  Biso   1.000  C
  C4       1.0000 0.19510  0.97130  0.58580  Biso   1.000  C
  H1       1.0000 0.22740  0.54760  0.05200  Biso   1.000  H
  H2       1.0000 0.77260  0.04760  0.44800  Biso   1.000  H
  H3       1.0000 0.77260  0.45240  0.94800  Biso   1.000  H
  H4       1.0000 0.22740  0.95240  0.55200  Biso   1.000  H
  H5       1.0000 0.17580  0.62830  0.09840  Biso   1.000  H
  H6       1.0000 0.82420  0.12830  0.40160  Biso   1.000  H
  H7       1.0000 0.82420  0.37170  0.90160  Biso   1.000  H
  H8       1.0000 0.17580  0.87170  0.59840  Biso   1.000  H
  H9       1.0000 0.15280  0.46200  0.05410  Biso   1.000  H
  H10      1.0000 0.84720  0.96200  0.44590  Biso   1.000  H
  H11      1.0000 0.84720  0.53800  0.94590  Biso   1.000  H
  H12      1.0000 0.15280  0.03800  0.55410  Biso   1.000  H
  C5       1.0000 0.23960  0.45000  0.16580  Biso   1.000  C
  C6       1.0000 0.76040  0.95000  0.33420  Biso   1.000  C
  C7       1.0000 0.76040  0.55000  0.83420  Biso   1.000  C
  C8       1.0000 0.23960  0.05000  0.66580  Biso   1.000  C
  H13      1.0000 0.25620  0.34740  0.15220  Biso   1.000  H
  H14      1.0000 0.74380  0.84740  0.34780  Biso   1.000  H
  H15      1.0000 0.74380  0.65260  0.84780  Biso   1.000  H
  H16      1.0000 0.25620  0.15260  0.65220  Biso   1.000  H
  H17      1.0000 0.28530  0.51310  0.19400  Biso   1.000  H
  H18      1.0000 0.71470  0.01310  0.30600  Biso   1.000  H
  H19      1.0000 0.71470  0.48690  0.80600  Biso   1.000  H
  H20      1.0000 0.28530  0.98690  0.69400  Biso   1.000  H
  O1       1.0000 0.20070  0.42840  0.22260  Biso   1.000  O
  O2       1.0000 0.79930  0.92840  0.27740  Biso   1.000  O
  O3       1.0000 0.79930  0.57160  0.77740  Biso   1.000  O
  O4       1.0000 0.20070  0.07160  0.72260  Biso   1.000  O
  H21      1.0000 0.18730  0.51500  0.23550  Biso   1.000  H
  H22      1.0000 0.81270  0.01500  0.26450  Biso   1.000  H
  H23      1.0000 0.81270  0.48500  0.76450  Biso   1.000  H
  H24      1.0000 0.18730  0.98500  0.73550  Biso   1.000  H
  Cu1      1.0000 0.19744  0.57901  0.46043  Biso   1.000  Cu
  Cu2      1.0000 0.80256  0.07901  0.03957  Biso   1.000  Cu
  Cu3      1.0000 0.80256  0.42099  0.53957  Biso   1.000  Cu
  Cu4      1.0000 0.19744  0.92099  0.96043  Biso   1.000  Cu
  Cu5      1.0000 0.32714  0.65348  0.77685  Biso   1.000  Cu
  Cu6      1.0000 0.67286  0.15348  0.72315  Biso   1.000  Cu
  Cu7      1.0000 0.67286  0.34652  0.22315  Biso   1.000  Cu
  Cu8      1.0000 0.32714  0.84652  0.27685  Biso   1.000  Cu
  C9       1.0000 0.25190  0.59670  0.58130  Biso   1.000  C
  C10      1.0000 0.74810  0.09670  0.91870  Biso   1.000  C
  C11      1.0000 0.74810  0.40330  0.41870  Biso   1.000  C
  C12      1.0000 0.25190  0.90330  0.08130  Biso   1.000  C
  C13      1.0000 0.27320  0.76080  0.84090  Biso   1.000  C
  C14      1.0000 0.72680  0.26080  0.65910  Biso   1.000  C
  C15      1.0000 0.72680  0.23920  0.15910  Biso   1.000  C
  C16      1.0000 0.27320  0.73920  0.34090  Biso   1.000  C
  N1       1.0000 0.28280  0.61790  0.65490  Biso   1.000  N
  N2       1.0000 0.71720  0.11790  0.84510  Biso   1.000  N
  N3       1.0000 0.71720  0.38210  0.34510  Biso   1.000  N
  N4       1.0000 0.28280  0.88210  0.15490  Biso   1.000  N
  N5       1.0000 0.24200  0.67440  0.38100  Biso   1.000  N
  N6       1.0000 0.75800  0.17440  0.11900  Biso   1.000  N
  N7       1.0000 0.75800  0.32560  0.61900  Biso   1.000  N
  N8       1.0000 0.24200  0.82560  0.88100  Biso   1.000  N
  C17      1.0000 0.04140  0.75020  0.44640  Biso   1.000  C
  C18      1.0000 0.95860  0.25020  0.05360  Biso   1.000  C
  C19      1.0000 0.95860  0.24980  0.55360  Biso   1.000  C
  C20      1.0000 0.04140  0.74980  0.94640  Biso   1.000  C
  H25      1.0000 0.07090  0.83830  0.47190  Biso   1.000  H
  H26      1.0000 0.92910  0.33830  0.02810  Biso   1.000  H
  H27      1.0000 0.92910  0.16170  0.52810  Biso   1.000  H
  H28      1.0000 0.07090  0.66170  0.97190  Biso   1.000  H
  C21      1.0000 0.96180  0.76000  0.42520  Biso   1.000  C
  C22      1.0000 0.03820  0.26000  0.07480  Biso   1.000  C
  C23      1.0000 0.03820  0.24000  0.57480  Biso   1.000  C
  C24      1.0000 0.96180  0.74000  0.92520  Biso   1.000  C
  H29      1.0000 0.93900  0.85240  0.43630  Biso   1.000  H
  H30      1.0000 0.06100  0.35240  0.06370  Biso   1.000  H
  H31      1.0000 0.06100  0.14760  0.56370  Biso   1.000  H
  H32      1.0000 0.93900  0.64760  0.93630  Biso   1.000  H
  C25      1.0000 0.91830  0.63320  0.38830  Biso   1.000  C
  C26      1.0000 0.08170  0.13320  0.11170  Biso   1.000  C
  C27      1.0000 0.08170  0.36680  0.61170  Biso   1.000  C
  C28      1.0000 0.91830  0.86680  0.88830  Biso   1.000  C
  H33      1.0000 0.86510  0.63800  0.37360  Biso   1.000  H
  H34      1.0000 0.13490  0.13800  0.12640  Biso   1.000  H
  H35      1.0000 0.13490  0.36200  0.62640  Biso   1.000  H
  H36      1.0000 0.86510  0.86200  0.87360  Biso   1.000  H
  C29      1.0000 0.95300  0.49390  0.37220  Biso   1.000  C
  C30      1.0000 0.04700  0.99390  0.12780  Biso   1.000  C
  C31      1.0000 0.04700  0.50610  0.62780  Biso   1.000  C
  C32      1.0000 0.95300  0.00610  0.87220  Biso   1.000  C
  C33      1.0000 0.91110  0.35510  0.33170  Biso   1.000  C
  C34      1.0000 0.08890  0.85510  0.16830  Biso   1.000  C
  C35      1.0000 0.08890  0.64490  0.66830  Biso   1.000  C
  C36      1.0000 0.91110  0.14490  0.83170  Biso   1.000  C
  H37      1.0000 0.85770  0.35550  0.31430  Biso   1.000  H
  H38      1.0000 0.14230  0.85550  0.18570  Biso   1.000  H
  H39      1.0000 0.14230  0.64450  0.68570  Biso   1.000  H
  H40      1.0000 0.85770  0.14450  0.81430  Biso   1.000  H
  C37      1.0000 0.94710  0.22490  0.31850  Biso   1.000  C
  C38      1.0000 0.05290  0.72490  0.18150  Biso   1.000  C
  C39      1.0000 0.05290  0.77510  0.68150  Biso   1.000  C
  C40      1.0000 0.94710  0.27510  0.81850  Biso   1.000  C
  H41      1.0000 0.91820  0.13750  0.29110  Biso   1.000  H
  H42      1.0000 0.08180  0.63750  0.20890  Biso   1.000  H
  H43      1.0000 0.08180  0.86250  0.70890  Biso   1.000  H
  H44      1.0000 0.91820  0.36250  0.79110  Biso   1.000  H
  C41      1.0000 0.02840  0.21750  0.34550  Biso   1.000  C
  C42      1.0000 0.97160  0.71750  0.15450  Biso   1.000  C
  C43      1.0000 0.97160  0.78250  0.65450  Biso   1.000  C
  C44      1.0000 0.02840  0.28250  0.84550  Biso   1.000  C
  C45      1.0000 0.06870  0.08350  0.33610  Biso   1.000  C
  C46      1.0000 0.93130  0.58350  0.16390  Biso   1.000  C
  C47      1.0000 0.93130  0.91650  0.66390  Biso   1.000  C
  C48      1.0000 0.06870  0.41650  0.83610  Biso   1.000  C
  H45      1.0000 0.04240  0.99330  0.30860  Biso   1.000  H
  H46      1.0000 0.95760  0.49330  0.19140  Biso   1.000  H
  H47      1.0000 0.95760  0.00670  0.69140  Biso   1.000  H
  H48      1.0000 0.04240  0.50670  0.80860  Biso   1.000  H
  C49      1.0000 0.14670  0.08540  0.36750  Biso   1.000  C
  C50      1.0000 0.85330  0.58540  0.13250  Biso   1.000  C
  C51      1.0000 0.85330  0.91460  0.63250  Biso   1.000  C
  C52      1.0000 0.14670  0.41460  0.86750  Biso   1.000  C
  H49      1.0000 0.17410  0.99440  0.36390  Biso   1.000  H
  H50      1.0000 0.82590  0.49440  0.13610  Biso   1.000  H
  H51      1.0000 0.82590  0.00560  0.63610  Biso   1.000  H
  H52      1.0000 0.17410  0.50560  0.86390  Biso   1.000  H
  C53      1.0000 0.18610  0.22280  0.40500  Biso   1.000  C
  C54      1.0000 0.81390  0.72280  0.09500  Biso   1.000  C
  C55      1.0000 0.81390  0.77720  0.59500  Biso   1.000  C
  C56      1.0000 0.18610  0.27720  0.90500  Biso   1.000  C
  H53      1.0000 0.23960  0.22190  0.42490  Biso   1.000  H
  H54      1.0000 0.76040  0.72190  0.07510  Biso   1.000  H
  H55      1.0000 0.76040  0.77810  0.57510  Biso   1.000  H
  H56      1.0000 0.23960  0.27810  0.92490  Biso   1.000  H
  C57      1.0000 0.07180  0.35220  0.38420  Biso   1.000  C
  C58      1.0000 0.92820  0.85220  0.11580  Biso   1.000  C
  C59      1.0000 0.92820  0.64780  0.61580  Biso   1.000  C
  C60      1.0000 0.07180  0.14780  0.88420  Biso   1.000  C
  C61      1.0000 0.03310  0.49410  0.39590  Biso   1.000  C
  C62      1.0000 0.96690  0.99410  0.10410  Biso   1.000  C
  C63      1.0000 0.96690  0.50590  0.60410  Biso   1.000  C
  C64      1.0000 0.03310  0.00590  0.89590  Biso   1.000  C
  C65      1.0000 0.47600  0.85560  0.80290  Biso   1.000  C
  C66      1.0000 0.52400  0.35560  0.69710  Biso   1.000  C
  C67      1.0000 0.52400  0.14440  0.19710  Biso   1.000  C
  C68      1.0000 0.47600  0.64440  0.30290  Biso   1.000  C
  H57      1.0000 0.44370  0.93390  0.76980  Biso   1.000  H
  H58      1.0000 0.55630  0.43390  0.73020  Biso   1.000  H
  H59      1.0000 0.55630  0.06610  0.23020  Biso   1.000  H
  H60      1.0000 0.44370  0.56610  0.26980  Biso   1.000  H
  C69      1.0000 0.55460  0.88740  0.83720  Biso   1.000  C
  C70      1.0000 0.44540  0.38740  0.66280  Biso   1.000  C
  C71      1.0000 0.44540  0.11260  0.16280  Biso   1.000  C
  C72      1.0000 0.55460  0.61260  0.33720  Biso   1.000  C
  H61      1.0000 0.57370  0.98530  0.82760  Biso   1.000  H
  H62      1.0000 0.42630  0.48530  0.67240  Biso   1.000  H
  H63      1.0000 0.42630  0.01470  0.17240  Biso   1.000  H
  H64      1.0000 0.57370  0.51470  0.32760  Biso   1.000  H
  C73      1.0000 0.60290  0.77410  0.88470  Biso   1.000  C
  C74      1.0000 0.39710  0.27410  0.61530  Biso   1.000  C
  C75      1.0000 0.39710  0.22590  0.11530  Biso   1.000  C
  C76      1.0000 0.60290  0.72590  0.38470  Biso   1.000  C
  H65      1.0000 0.65540  0.79440  0.90810  Biso   1.000  H
  H66      1.0000 0.34460  0.29440  0.59190  Biso   1.000  H
  H67      1.0000 0.34460  0.20560  0.09190  Biso   1.000  H
  H68      1.0000 0.65540  0.70560  0.40810  Biso   1.000  H
  C77      1.0000 0.57390  0.62800  0.89830  Biso   1.000  C
  C78      1.0000 0.42610  0.12800  0.60170  Biso   1.000  C
  C79      1.0000 0.42610  0.37200  0.10170  Biso   1.000  C
  C80      1.0000 0.57390  0.87200  0.39830  Biso   1.000  C
  C81      1.0000 0.62050  0.50040  0.94520  Biso   1.000  C
  C82      1.0000 0.37950  0.00040  0.55480  Biso   1.000  C
  C83      1.0000 0.37950  0.49960  0.05480  Biso   1.000  C
  C84      1.0000 0.62050  0.99960  0.44520  Biso   1.000  C
  H69      1.0000 0.67350  0.51410  0.96930  Biso   1.000  H
  H70      1.0000 0.32650  0.01410  0.53070  Biso   1.000  H
  H71      1.0000 0.32650  0.48590  0.03070  Biso   1.000  H
  H72      1.0000 0.67350  0.98590  0.46930  Biso   1.000  H
  C85      1.0000 0.58930  0.36160  0.95500  Biso   1.000  C
  C86      1.0000 0.41070  0.86160  0.54500  Biso   1.000  C
  C87      1.0000 0.41070  0.63840  0.04500  Biso   1.000  C
  C88      1.0000 0.58930  0.13840  0.45500  Biso   1.000  C
  H73      1.0000 0.62110  0.28080  0.98620  Biso   1.000  H
  H74      1.0000 0.37890  0.78080  0.51380  Biso   1.000  H
  H75      1.0000 0.37890  0.71920  0.01380  Biso   1.000  H
  H76      1.0000 0.62110  0.21920  0.48620  Biso   1.000  H
  C89      1.0000 0.50790  0.33370  0.91890  Biso   1.000  C
  C90      1.0000 0.49210  0.83370  0.58110  Biso   1.000  C
  C91      1.0000 0.49210  0.66630  0.08110  Biso   1.000  C
  C92      1.0000 0.50790  0.16630  0.41890  Biso   1.000  C
  C93      1.0000 0.47230  0.19130  0.92530  Biso   1.000  C
  C94      1.0000 0.52770  0.69130  0.57470  Biso   1.000  C
  C95      1.0000 0.52770  0.80870  0.07470  Biso   1.000  C
  C96      1.0000 0.47230  0.30870  0.42530  Biso   1.000  C
  H77      1.0000 0.50180  0.10720  0.95590  Biso   1.000  H
  H78      1.0000 0.49820  0.60720  0.54410  Biso   1.000  H
  H79      1.0000 0.49820  0.89280  0.04410  Biso   1.000  H
  H80      1.0000 0.50180  0.39280  0.45590  Biso   1.000  H
  C97      1.0000 0.39640  0.17320  0.88810  Biso   1.000  C
  C98      1.0000 0.60360  0.67320  0.61190  Biso   1.000  C
  C99      1.0000 0.60360  0.82680  0.11190  Biso   1.000  C
  C100     1.0000 0.39640  0.32680  0.38810  Biso   1.000  C
  H81      1.0000 0.37290  0.07720  0.89240  Biso   1.000  H
  H82      1.0000 0.62710  0.57720  0.60760  Biso   1.000  H
  H83      1.0000 0.62710  0.92280  0.10760  Biso   1.000  H
  H84      1.0000 0.37290  0.42280  0.39240  Biso   1.000  H
  C101     1.0000 0.35320  0.29930  0.84320  Biso   1.000  C
  C102     1.0000 0.64680  0.79930  0.65680  Biso   1.000  C
  C103     1.0000 0.64680  0.70070  0.15680  Biso   1.000  C
  C104     1.0000 0.35320  0.20070  0.34320  Biso   1.000  C
  H85      1.0000 0.30050  0.28480  0.81680  Biso   1.000  H
  H86      1.0000 0.69950  0.78480  0.68320  Biso   1.000  H
  H87      1.0000 0.69950  0.71520  0.18320  Biso   1.000  H
  H88      1.0000 0.30050  0.21520  0.31680  Biso   1.000  H
  C105     1.0000 0.46070  0.45650  0.87320  Biso   1.000  C
  C106     1.0000 0.53930  0.95650  0.62680  Biso   1.000  C
  C107     1.0000 0.53930  0.54350  0.12680  Biso   1.000  C
  C108     1.0000 0.46070  0.04350  0.37320  Biso   1.000  C
  C109     1.0000 0.49370  0.60660  0.86190  Biso   1.000  C
  C110     1.0000 0.50630  0.10660  0.63810  Biso   1.000  C
  C111     1.0000 0.50630  0.39340  0.13810  Biso   1.000  C
  C112     1.0000 0.49370  0.89340  0.36190  Biso   1.000  C
  N9       1.0000 0.07720  0.62260  0.43240  Biso   1.000  N
  N10      1.0000 0.92280  0.12260  0.06760  Biso   1.000  N
  N11      1.0000 0.92280  0.37740  0.56760  Biso   1.000  N
  N12      1.0000 0.07720  0.87740  0.93240  Biso   1.000  N
  N13      1.0000 0.14990  0.35540  0.41340  Biso   1.000  N
  N14      1.0000 0.85010  0.85540  0.08660  Biso   1.000  N
  N15      1.0000 0.85010  0.64460  0.58660  Biso   1.000  N
  N16      1.0000 0.14990  0.14460  0.91340  Biso   1.000  N
  N17      1.0000 0.44510  0.72050  0.81490  Biso   1.000  N
  N18      1.0000 0.55490  0.22050  0.68510  Biso   1.000  N
  N19      1.0000 0.55490  0.27950  0.18510  Biso   1.000  N
  N20      1.0000 0.44510  0.77950  0.31490  Biso   1.000  N
  N21      1.0000 0.38290  0.44060  0.83550  Biso   1.000  N
  N22      1.0000 0.61710  0.94060  0.66450  Biso   1.000  N
  N23      1.0000 0.61710  0.55940  0.16450  Biso   1.000  N
  N24      1.0000 0.38290  0.05940  0.33550  Biso   1.000  N
  C113     1.0000 0.23000  0.47500  0.14700  Biso   1.000  C
  C114     1.0000 0.77000  0.97500  0.35300  Biso   1.000  C
  C115     1.0000 0.77000  0.52500  0.85300  Biso   1.000  C
  C116     1.0000 0.23000  0.02500  0.64700  Biso   1.000  C
  H89      1.0000 0.20710  0.38460  0.11220  Biso   1.000  H
  H90      1.0000 0.79290  0.88460  0.38780  Biso   1.000  H
  H91      1.0000 0.79290  0.61540  0.88780  Biso   1.000  H
  H92      1.0000 0.20710  0.11540  0.61220  Biso   1.000  H
  H93      1.0000 0.19880  0.56740  0.12610  Biso   1.000  H
  H94      1.0000 0.80120  0.06740  0.37390  Biso   1.000  H
  H95      1.0000 0.80120  0.43260  0.87390  Biso   1.000  H
  H96      1.0000 0.19880  0.93260  0.62610  Biso   1.000  H
  H97      1.0000 0.23450  0.45530  0.20570  Biso   1.000  H
  H98      1.0000 0.76550  0.95530  0.29430  Biso   1.000  H
  H99      1.0000 0.76550  0.54470  0.79430  Biso   1.000  H
  H100     1.0000 0.23450  0.04470  0.70570  Biso   1.000  H
  C117     1.0000 0.30900  0.50300  0.14200  Biso   1.000  C
  C118     1.0000 0.69100  0.00300  0.35800  Biso   1.000  C
  C119     1.0000 0.69100  0.49700  0.85800  Biso   1.000  C
  C120     1.0000 0.30900  0.99700  0.64200  Biso   1.000  C
  H101     1.0000 0.31460  0.44100  0.09510  Biso   1.000  H
  H102     1.0000 0.68540  0.94100  0.40490  Biso   1.000  H
  H103     1.0000 0.68540  0.55900  0.90490  Biso   1.000  H
  H104     1.0000 0.31460  0.05900  0.59510  Biso   1.000  H
  H105     1.0000 0.31450  0.61430  0.13040  Biso   1.000  H
  H106     1.0000 0.68550  0.11430  0.36960  Biso   1.000  H
  H107     1.0000 0.68550  0.38570  0.86960  Biso   1.000  H
  H108     1.0000 0.31450  0.88570  0.63040  Biso   1.000  H
  O5       1.0000 0.36700  0.45900  0.22000  Biso   1.000  O
  O6       1.0000 0.63300  0.95900  0.28000  Biso   1.000  O
  O7       1.0000 0.63300  0.54100  0.78000  Biso   1.000  O
  O8       1.0000 0.36700  0.04100  0.72000  Biso   1.000  O
  H109     1.0000 0.36300  0.36490  0.22980  Biso   1.000  H
  H110     1.0000 0.63700  0.86490  0.27020  Biso   1.000  H
  H111     1.0000 0.63700  0.63510  0.77020  Biso   1.000  H
  H112     1.0000 0.36300  0.13510  0.72980  Biso   1.000  H
