data_image0
_cell_length_a       9.6077
_cell_length_b       23.2584
_cell_length_c       9.2718
_cell_angle_alpha    90
_cell_angle_beta     93.303
_cell_angle_gamma    90

_symmetry_space_group_name_H-M    "P 1"
_symmetry_int_tables_number       1

loop_
  _symmetry_equiv_pos_as_xyz
  'x, y, z'

loop_
  _atom_site_label
  _atom_site_occupancy
  _atom_site_fract_x
  _atom_site_fract_y
  _atom_site_fract_z
  _atom_site_thermal_displace_type
  _atom_site_B_iso_or_equiv
  _atom_site_type_symbol
  Cu1      1.0000 0.15850  0.03470  0.39230  Biso   1.000  Cu
  Cu2      1.0000 0.65850  0.53470  0.39230  Biso   1.000  Cu
  Cu3      1.0000 0.84150  0.03470  0.10770  Biso   1.000  Cu
  Cu4      1.0000 0.34150  0.53470  0.10770  Biso   1.000  Cu
  Cu5      1.0000 0.84150  0.96530  0.60770  Biso   1.000  Cu
  Cu6      1.0000 0.34150  0.46530  0.60770  Biso   1.000  Cu
  Cu7      1.0000 0.15850  0.96530  0.89230  Biso   1.000  Cu
  Cu8      1.0000 0.65850  0.46530  0.89230  Biso   1.000  Cu
  N1       1.0000 0.17700  0.01200  0.19800  Biso   1.000  N
  N2       1.0000 0.67700  0.51200  0.19800  Biso   1.000  N
  N3       1.0000 0.82300  0.01200  0.30200  Biso   1.000  N
  N4       1.0000 0.32300  0.51200  0.30200  Biso   1.000  N
  N5       1.0000 0.82300  0.98800  0.80200  Biso   1.000  N
  N6       1.0000 0.32300  0.48800  0.80200  Biso   1.000  N
  N7       1.0000 0.17700  0.98800  0.69800  Biso   1.000  N
  N8       1.0000 0.67700  0.48800  0.69800  Biso   1.000  N
  C1       1.0000 0.18400  0.99800  0.08500  Biso   1.000  C
  C2       1.0000 0.68400  0.49800  0.08500  Biso   1.000  C
  C3       1.0000 0.81600  0.99800  0.41500  Biso   1.000  C
  C4       1.0000 0.31600  0.49800  0.41500  Biso   1.000  C
  C5       1.0000 0.81600  0.00200  0.91500  Biso   1.000  C
  C6       1.0000 0.31600  0.50200  0.91500  Biso   1.000  C
  C7       1.0000 0.18400  0.00200  0.58500  Biso   1.000  C
  C8       1.0000 0.68400  0.50200  0.58500  Biso   1.000  C
  N9       1.0000 0.08990  0.11640  0.44420  Biso   1.000  N
  N10      1.0000 0.58990  0.61640  0.44420  Biso   1.000  N
  N11      1.0000 0.91010  0.11640  0.05580  Biso   1.000  N
  N12      1.0000 0.41010  0.61640  0.05580  Biso   1.000  N
  N13      1.0000 0.91010  0.88360  0.55580  Biso   1.000  N
  N14      1.0000 0.41010  0.38360  0.55580  Biso   1.000  N
  N15      1.0000 0.08990  0.88360  0.94420  Biso   1.000  N
  N16      1.0000 0.58990  0.38360  0.94420  Biso   1.000  N
  C9       1.0000 0.99270  0.12270  0.54300  Biso   1.000  C
  C10      1.0000 0.49270  0.62270  0.54300  Biso   1.000  C
  C11      1.0000 0.00730  0.12270  0.95700  Biso   1.000  C
  C12      1.0000 0.50730  0.62270  0.95700  Biso   1.000  C
  C13      1.0000 0.00730  0.87730  0.45700  Biso   1.000  C
  C14      1.0000 0.50730  0.37730  0.45700  Biso   1.000  C
  C15      1.0000 0.99270  0.87730  0.04300  Biso   1.000  C
  C16      1.0000 0.49270  0.37730  0.04300  Biso   1.000  C
  C17      1.0000 0.98730  0.22370  0.51550  Biso   1.000  C
  C18      1.0000 0.48730  0.72370  0.51550  Biso   1.000  C
  C19      1.0000 0.01270  0.22370  0.98450  Biso   1.000  C
  C20      1.0000 0.51270  0.72370  0.98450  Biso   1.000  C
  C21      1.0000 0.01270  0.77630  0.48450  Biso   1.000  C
  C22      1.0000 0.51270  0.27630  0.48450  Biso   1.000  C
  C23      1.0000 0.98730  0.77630  0.01550  Biso   1.000  C
  C24      1.0000 0.48730  0.27630  0.01550  Biso   1.000  C
  C25      1.0000 0.13510  0.16580  0.38110  Biso   1.000  C
  C26      1.0000 0.63510  0.66580  0.38110  Biso   1.000  C
  C27      1.0000 0.86490  0.16580  0.11890  Biso   1.000  C
  C28      1.0000 0.36490  0.66580  0.11890  Biso   1.000  C
  C29      1.0000 0.86490  0.83420  0.61890  Biso   1.000  C
  C30      1.0000 0.36490  0.33420  0.61890  Biso   1.000  C
  C31      1.0000 0.13510  0.83420  0.88110  Biso   1.000  C
  C32      1.0000 0.63510  0.33420  0.88110  Biso   1.000  C
  C33      1.0000 0.08560  0.21960  0.41720  Biso   1.000  C
  C34      1.0000 0.58560  0.71960  0.41720  Biso   1.000  C
  C35      1.0000 0.91440  0.21960  0.08280  Biso   1.000  C
  C36      1.0000 0.41440  0.71960  0.08280  Biso   1.000  C
  C37      1.0000 0.91440  0.78040  0.58280  Biso   1.000  C
  C38      1.0000 0.41440  0.28040  0.58280  Biso   1.000  C
  C39      1.0000 0.08560  0.78040  0.91720  Biso   1.000  C
  C40      1.0000 0.58560  0.28040  0.91720  Biso   1.000  C
  C41      1.0000 0.93980  0.17400  0.57760  Biso   1.000  C
  C42      1.0000 0.43980  0.67400  0.57760  Biso   1.000  C
  C43      1.0000 0.06020  0.17400  0.92240  Biso   1.000  C
  C44      1.0000 0.56020  0.67400  0.92240  Biso   1.000  C
  C45      1.0000 0.06020  0.82600  0.42240  Biso   1.000  C
  C46      1.0000 0.56020  0.32600  0.42240  Biso   1.000  C
  C47      1.0000 0.93980  0.82600  0.07760  Biso   1.000  C
  C48      1.0000 0.43980  0.32600  0.07760  Biso   1.000  C
  C49      1.0000 0.91800  0.28300  0.56400  Biso   1.000  C
  C50      1.0000 0.41800  0.78300  0.56400  Biso   1.000  C
  C51      1.0000 0.08200  0.28300  0.93600  Biso   1.000  C
  C52      1.0000 0.58200  0.78300  0.93600  Biso   1.000  C
  C53      1.0000 0.08200  0.71700  0.43600  Biso   1.000  C
  C54      1.0000 0.58200  0.21700  0.43600  Biso   1.000  C
  C55      1.0000 0.91800  0.71700  0.06400  Biso   1.000  C
  C56      1.0000 0.41800  0.21700  0.06400  Biso   1.000  C
  O1       1.0000 0.96900  0.32400  0.48200  Biso   1.000  O
  O2       1.0000 0.46900  0.82400  0.48200  Biso   1.000  O
  O3       1.0000 0.03100  0.32400  0.01800  Biso   1.000  O
  O4       1.0000 0.53100  0.82400  0.01800  Biso   1.000  O
  O5       1.0000 0.03100  0.67600  0.51800  Biso   1.000  O
  O6       1.0000 0.53100  0.17600  0.51800  Biso   1.000  O
  O7       1.0000 0.96900  0.67600  0.98200  Biso   1.000  O
  O8       1.0000 0.46900  0.17600  0.98200  Biso   1.000  O
  C57      1.0000 0.90200  0.38200  0.50100  Biso   1.000  C
  C58      1.0000 0.40200  0.88200  0.50100  Biso   1.000  C
  C59      1.0000 0.09800  0.38200  0.99900  Biso   1.000  C
  C60      1.0000 0.59800  0.88200  0.99900  Biso   1.000  C
  C61      1.0000 0.09800  0.61800  0.49900  Biso   1.000  C
  C62      1.0000 0.59800  0.11800  0.49900  Biso   1.000  C
  C63      1.0000 0.90200  0.61800  0.00100  Biso   1.000  C
  C64      1.0000 0.40200  0.11800  0.00100  Biso   1.000  C
  C65      1.0000 0.00980  0.42600  0.53500  Biso   1.000  C
  C66      1.0000 0.50980  0.92600  0.53500  Biso   1.000  C
  C67      1.0000 0.99020  0.42600  0.96500  Biso   1.000  C
  C68      1.0000 0.49020  0.92600  0.96500  Biso   1.000  C
  C69      1.0000 0.99020  0.57400  0.46500  Biso   1.000  C
  C70      1.0000 0.49020  0.07400  0.46500  Biso   1.000  C
  C71      1.0000 0.00980  0.57400  0.03500  Biso   1.000  C
  C72      1.0000 0.50980  0.07400  0.03500  Biso   1.000  C
  O9       1.0000 0.84000  0.29000  0.67000  Biso   1.000  O
  O10      1.0000 0.34000  0.79000  0.67000  Biso   1.000  O
  O11      1.0000 0.16000  0.29000  0.83000  Biso   1.000  O
  O12      1.0000 0.66000  0.79000  0.83000  Biso   1.000  O
  O13      1.0000 0.16000  0.71000  0.33000  Biso   1.000  O
  O14      1.0000 0.66000  0.21000  0.33000  Biso   1.000  O
  O15      1.0000 0.84000  0.71000  0.17000  Biso   1.000  O
  O16      1.0000 0.34000  0.21000  0.17000  Biso   1.000  O
  H1       1.0000 0.95780  0.08930  0.58970  Biso   1.000  H
  H2       1.0000 0.45780  0.58930  0.58970  Biso   1.000  H
  H3       1.0000 0.04220  0.08930  0.91030  Biso   1.000  H
  H4       1.0000 0.54220  0.58930  0.91030  Biso   1.000  H
  H5       1.0000 0.04220  0.91070  0.41030  Biso   1.000  H
  H6       1.0000 0.54220  0.41070  0.41030  Biso   1.000  H
  H7       1.0000 0.95780  0.91070  0.08970  Biso   1.000  H
  H8       1.0000 0.45780  0.41070  0.08970  Biso   1.000  H
  H9       1.0000 0.20430  0.16400  0.31050  Biso   1.000  H
  H10      1.0000 0.70430  0.66400  0.31050  Biso   1.000  H
  H11      1.0000 0.79570  0.16400  0.18950  Biso   1.000  H
  H12      1.0000 0.29570  0.66400  0.18950  Biso   1.000  H
  H13      1.0000 0.79570  0.83600  0.68950  Biso   1.000  H
  H14      1.0000 0.29570  0.33600  0.68950  Biso   1.000  H
  H15      1.0000 0.20430  0.83600  0.81050  Biso   1.000  H
  H16      1.0000 0.70430  0.33600  0.81050  Biso   1.000  H
  H17      1.0000 0.11840  0.25330  0.36980  Biso   1.000  H
  H18      1.0000 0.61840  0.75330  0.36980  Biso   1.000  H
  H19      1.0000 0.88160  0.25330  0.13020  Biso   1.000  H
  H20      1.0000 0.38160  0.75330  0.13020  Biso   1.000  H
  H21      1.0000 0.88160  0.74670  0.63020  Biso   1.000  H
  H22      1.0000 0.38160  0.24670  0.63020  Biso   1.000  H
  H23      1.0000 0.11840  0.74670  0.86980  Biso   1.000  H
  H24      1.0000 0.61840  0.24670  0.86980  Biso   1.000  H
  H25      1.0000 0.86810  0.17660  0.64530  Biso   1.000  H
  H26      1.0000 0.36810  0.67660  0.64530  Biso   1.000  H
  H27      1.0000 0.13190  0.17660  0.85470  Biso   1.000  H
  H28      1.0000 0.63190  0.67660  0.85470  Biso   1.000  H
  H29      1.0000 0.13190  0.82340  0.35470  Biso   1.000  H
  H30      1.0000 0.63190  0.32340  0.35470  Biso   1.000  H
  H31      1.0000 0.86810  0.82340  0.14530  Biso   1.000  H
  H32      1.0000 0.36810  0.32340  0.14530  Biso   1.000  H
  H33      1.0000 0.85020  0.39250  0.41340  Biso   1.000  H
  H34      1.0000 0.35020  0.89250  0.41340  Biso   1.000  H
  H35      1.0000 0.14980  0.39250  0.08660  Biso   1.000  H
  H36      1.0000 0.64980  0.89250  0.08660  Biso   1.000  H
  H37      1.0000 0.14980  0.60750  0.58660  Biso   1.000  H
  H38      1.0000 0.64980  0.10750  0.58660  Biso   1.000  H
  H39      1.0000 0.85020  0.60750  0.91340  Biso   1.000  H
  H40      1.0000 0.35020  0.10750  0.91340  Biso   1.000  H
  H41      1.0000 0.84030  0.38010  0.57870  Biso   1.000  H
  H42      1.0000 0.34030  0.88010  0.57870  Biso   1.000  H
  H43      1.0000 0.15970  0.38010  0.92130  Biso   1.000  H
  H44      1.0000 0.65970  0.88010  0.92130  Biso   1.000  H
  H45      1.0000 0.15970  0.61990  0.42130  Biso   1.000  H
  H46      1.0000 0.65970  0.11990  0.42130  Biso   1.000  H
  H47      1.0000 0.84030  0.61990  0.07870  Biso   1.000  H
  H48      1.0000 0.34030  0.11990  0.07870  Biso   1.000  H
  H49      1.0000 0.96601  0.46267  0.54684  Biso   1.000  H
  H50      1.0000 0.46601  0.96267  0.54684  Biso   1.000  H
  H51      1.0000 0.03399  0.46267  0.95316  Biso   1.000  H
  H52      1.0000 0.53399  0.96267  0.95316  Biso   1.000  H
  H53      1.0000 0.03399  0.53733  0.45316  Biso   1.000  H
  H54      1.0000 0.53399  0.03733  0.45316  Biso   1.000  H
  H55      1.0000 0.96601  0.53733  0.04684  Biso   1.000  H
  H56      1.0000 0.46601  0.03733  0.04684  Biso   1.000  H
  H57      1.0000 0.07167  0.42816  0.45749  Biso   1.000  H
  H58      1.0000 0.57167  0.92816  0.45749  Biso   1.000  H
  H59      1.0000 0.92833  0.42816  0.04251  Biso   1.000  H
  H60      1.0000 0.42833  0.92816  0.04251  Biso   1.000  H
  H61      1.0000 0.92833  0.57184  0.54251  Biso   1.000  H
  H62      1.0000 0.42833  0.07184  0.54251  Biso   1.000  H
  H63      1.0000 0.07167  0.57184  0.95749  Biso   1.000  H
  H64      1.0000 0.57167  0.07184  0.95749  Biso   1.000  H
  H65      1.0000 0.06178  0.41577  0.62278  Biso   1.000  H
  H66      1.0000 0.56178  0.91577  0.62278  Biso   1.000  H
  H67      1.0000 0.93822  0.41577  0.87722  Biso   1.000  H
  H68      1.0000 0.43822  0.91577  0.87722  Biso   1.000  H
  H69      1.0000 0.93822  0.58423  0.37722  Biso   1.000  H
  H70      1.0000 0.43822  0.08423  0.37722  Biso   1.000  H
  H71      1.0000 0.06178  0.58423  0.12278  Biso   1.000  H
  H72      1.0000 0.56178  0.08423  0.12278  Biso   1.000  H
