data_image0
_cell_length_a       7.4834
_cell_length_b       11.9438
_cell_length_c       23.3998
_cell_angle_alpha    90
_cell_angle_beta     92.978
_cell_angle_gamma    90

_symmetry_space_group_name_H-M    "P 1"
_symmetry_int_tables_number       1

loop_
  _symmetry_equiv_pos_as_xyz
  'x, y, z'

loop_
  _atom_site_label
  _atom_site_occupancy
  _atom_site_fract_x
  _atom_site_fract_y
  _atom_site_fract_z
  _atom_site_thermal_displace_type
  _atom_site_B_iso_or_equiv
  _atom_site_type_symbol
  Au1      1.0000 0.75000  0.71586  0.25000  Biso   1.000  Au
  Au2      1.0000 0.25000  0.28414  0.75000  Biso   1.000  Au
  N1       1.0000 0.61930  0.61510  0.35762  Biso   1.000  N
  N2       1.0000 0.88070  0.61510  0.14238  Biso   1.000  N
  N3       1.0000 0.38070  0.38490  0.64238  Biso   1.000  N
  N4       1.0000 0.11930  0.38490  0.85762  Biso   1.000  N
  C1       1.0000 0.65550  0.70990  0.32830  Biso   1.000  C
  C2       1.0000 0.84450  0.70990  0.17170  Biso   1.000  C
  C3       1.0000 0.34450  0.29010  0.67170  Biso   1.000  C
  C4       1.0000 0.15550  0.29010  0.82830  Biso   1.000  C
  N5       1.0000 0.60900  0.79320  0.36386  Biso   1.000  N
  N6       1.0000 0.89100  0.79320  0.13614  Biso   1.000  N
  N7       1.0000 0.39100  0.20680  0.63614  Biso   1.000  N
  N8       1.0000 0.10900  0.20680  0.86386  Biso   1.000  N
  C5       1.0000 0.63040  0.91150  0.34990  Biso   1.000  C
  C6       1.0000 0.86960  0.91150  0.15010  Biso   1.000  C
  C7       1.0000 0.36960  0.08850  0.65010  Biso   1.000  C
  C8       1.0000 0.13040  0.08850  0.84990  Biso   1.000  C
  H1       1.0000 0.55330  0.95710  0.37400  Biso   1.000  H
  H2       1.0000 0.94670  0.95710  0.12600  Biso   1.000  H
  H3       1.0000 0.44670  0.04290  0.62600  Biso   1.000  H
  H4       1.0000 0.05330  0.04290  0.87400  Biso   1.000  H
  H5       1.0000 0.59080  0.92410  0.30940  Biso   1.000  H
  H6       1.0000 0.90920  0.92410  0.19060  Biso   1.000  H
  H7       1.0000 0.40920  0.07590  0.69060  Biso   1.000  H
  H8       1.0000 0.09080  0.07590  0.80940  Biso   1.000  H
  C9       1.0000 0.54760  0.75140  0.41410  Biso   1.000  C
  C10      1.0000 0.95240  0.75140  0.08590  Biso   1.000  C
  C11      1.0000 0.45240  0.24860  0.58590  Biso   1.000  C
  C12      1.0000 0.04760  0.24860  0.91410  Biso   1.000  C
  H9       1.0000 0.50780  0.79380  0.44540  Biso   1.000  H
  H10      1.0000 0.99220  0.79380  0.05460  Biso   1.000  H
  H11      1.0000 0.49220  0.20620  0.55460  Biso   1.000  H
  H12      1.0000 0.00780  0.20620  0.94540  Biso   1.000  H
  C13      1.0000 0.55460  0.63930  0.41040  Biso   1.000  C
  C14      1.0000 0.94540  0.63930  0.08960  Biso   1.000  C
  C15      1.0000 0.44540  0.36070  0.58960  Biso   1.000  C
  C16      1.0000 0.05460  0.36070  0.91040  Biso   1.000  C
  H13      1.0000 0.52160  0.58700  0.43860  Biso   1.000  H
  H14      1.0000 0.97840  0.58700  0.06140  Biso   1.000  H
  H15      1.0000 0.47840  0.41300  0.56140  Biso   1.000  H
  H16      1.0000 0.02160  0.41300  0.93860  Biso   1.000  H
  C17      1.0000 0.65570  0.50290  0.33610  Biso   1.000  C
  C18      1.0000 0.84430  0.50290  0.16390  Biso   1.000  C
  C19      1.0000 0.34430  0.49710  0.66390  Biso   1.000  C
  C20      1.0000 0.15570  0.49710  0.83610  Biso   1.000  C
  H17      1.0000 0.62870  0.50130  0.29420  Biso   1.000  H
  H18      1.0000 0.87130  0.50130  0.20580  Biso   1.000  H
  H19      1.0000 0.37130  0.49870  0.70580  Biso   1.000  H
  H20      1.0000 0.12870  0.49870  0.79420  Biso   1.000  H
  H21      1.0000 0.57540  0.44870  0.35390  Biso   1.000  H
  H22      1.0000 0.92460  0.44870  0.14610  Biso   1.000  H
  H23      1.0000 0.42460  0.55130  0.64610  Biso   1.000  H
  H24      1.0000 0.07540  0.55130  0.85390  Biso   1.000  H
  Cu1      1.0000 0.75000  0.31489  0.25000  Biso   1.000  Cu
  Cu2      1.0000 0.25000  0.68511  0.75000  Biso   1.000  Cu
  Cu3      1.0000 0.75000  0.07001  0.25000  Biso   1.000  Cu
  Cu4      1.0000 0.25000  0.92999  0.75000  Biso   1.000  Cu
  N9       1.0000 0.90900  0.39030  0.31268  Biso   1.000  N
  N10      1.0000 0.59100  0.39030  0.18732  Biso   1.000  N
  N11      1.0000 0.09100  0.60970  0.68732  Biso   1.000  N
  N12      1.0000 0.40900  0.60970  0.81268  Biso   1.000  N
  C21      1.0000 0.84760  0.46710  0.34840  Biso   1.000  C
  C22      1.0000 0.65240  0.46710  0.15160  Biso   1.000  C
  C23      1.0000 0.15240  0.53290  0.65160  Biso   1.000  C
  C24      1.0000 0.34760  0.53290  0.84840  Biso   1.000  C
  N13      1.0000 0.89380  0.00780  0.31770  Biso   1.000  N
  N14      1.0000 0.60620  0.00780  0.18230  Biso   1.000  N
  N15      1.0000 0.10620  0.99220  0.68230  Biso   1.000  N
  N16      1.0000 0.39380  0.99220  0.81770  Biso   1.000  N
  C25      1.0000 0.07810  0.35210  0.32290  Biso   1.000  C
  C26      1.0000 0.42190  0.35210  0.17710  Biso   1.000  C
  C27      1.0000 0.92190  0.64790  0.67710  Biso   1.000  C
  C28      1.0000 0.57810  0.64790  0.82290  Biso   1.000  C
  H25      1.0000 0.12470  0.30010  0.29680  Biso   1.000  H
  H26      1.0000 0.37530  0.30010  0.20320  Biso   1.000  H
  H27      1.0000 0.87530  0.69990  0.70320  Biso   1.000  H
  H28      1.0000 0.62470  0.69990  0.79680  Biso   1.000  H
  C29      1.0000 0.82310  0.94950  0.35940  Biso   1.000  C
  C30      1.0000 0.67690  0.94950  0.14060  Biso   1.000  C
  C31      1.0000 0.17690  0.05050  0.64060  Biso   1.000  C
  C32      1.0000 0.32310  0.05050  0.85940  Biso   1.000  C
  C33      1.0000 0.08680  0.96680  0.42000  Biso   1.000  C
  C34      1.0000 0.41320  0.96680  0.08000  Biso   1.000  C
  C35      1.0000 0.91320  0.03320  0.58000  Biso   1.000  C
  C36      1.0000 0.58680  0.03320  0.92000  Biso   1.000  C
  H29      1.0000 0.15190  0.95270  0.45520  Biso   1.000  H
  H30      1.0000 0.34810  0.95270  0.04480  Biso   1.000  H
  H31      1.0000 0.84810  0.04730  0.54480  Biso   1.000  H
  H32      1.0000 0.65190  0.04730  0.95520  Biso   1.000  H
  C37      1.0000 0.91550  0.92720  0.41070  Biso   1.000  C
  C38      1.0000 0.58450  0.92720  0.08930  Biso   1.000  C
  C39      1.0000 0.08450  0.07280  0.58930  Biso   1.000  C
  C40      1.0000 0.41550  0.07280  0.91070  Biso   1.000  C
  H33      1.0000 0.86100  0.88470  0.43930  Biso   1.000  H
  H34      1.0000 0.63900  0.88470  0.06070  Biso   1.000  H
  H35      1.0000 0.13900  0.11530  0.56070  Biso   1.000  H
  H36      1.0000 0.36100  0.11530  0.93930  Biso   1.000  H
  C41      1.0000 0.95170  0.50740  0.39500  Biso   1.000  C
  C42      1.0000 0.54830  0.50740  0.10500  Biso   1.000  C
  C43      1.0000 0.04830  0.49260  0.60500  Biso   1.000  C
  C44      1.0000 0.45170  0.49260  0.89500  Biso   1.000  C
  H37      1.0000 0.90590  0.56350  0.41910  Biso   1.000  H
  H38      1.0000 0.59410  0.56350  0.08090  Biso   1.000  H
  H39      1.0000 0.09410  0.43650  0.58090  Biso   1.000  H
  H40      1.0000 0.40590  0.43650  0.91910  Biso   1.000  H
  C45      1.0000 0.06410  0.04550  0.32690  Biso   1.000  C
  C46      1.0000 0.43590  0.04550  0.17310  Biso   1.000  C
  C47      1.0000 0.93590  0.95450  0.67310  Biso   1.000  C
  C48      1.0000 0.56410  0.95450  0.82690  Biso   1.000  C
  H41      1.0000 0.11730  0.08600  0.29730  Biso   1.000  H
  H42      1.0000 0.38270  0.08600  0.20270  Biso   1.000  H
  H43      1.0000 0.88270  0.91400  0.70270  Biso   1.000  H
  H44      1.0000 0.61730  0.91400  0.79730  Biso   1.000  H
  Br1      1.0000 0.53651  0.19673  0.30452  Biso   1.000  Br
  Br2      1.0000 0.96349  0.19673  0.19548  Biso   1.000  Br
  Br3      1.0000 0.46349  0.80327  0.69548  Biso   1.000  Br
  Br4      1.0000 0.03651  0.80327  0.80452  Biso   1.000  Br
  C49      1.0000 0.18510  0.38510  0.36930  Biso   1.000  C
  C50      1.0000 0.31490  0.38510  0.13070  Biso   1.000  C
  C51      1.0000 0.81490  0.61490  0.63070  Biso   1.000  C
  C52      1.0000 0.68510  0.61490  0.86930  Biso   1.000  C
  H45      1.0000 0.30080  0.35370  0.37620  Biso   1.000  H
  H46      1.0000 0.19920  0.35370  0.12380  Biso   1.000  H
  H47      1.0000 0.69920  0.64630  0.62380  Biso   1.000  H
  H48      1.0000 0.80080  0.64630  0.87620  Biso   1.000  H
  C53      1.0000 0.16260  0.02780  0.37720  Biso   1.000  C
  C54      1.0000 0.33740  0.02780  0.12280  Biso   1.000  C
  C55      1.0000 0.83740  0.97220  0.62280  Biso   1.000  C
  C56      1.0000 0.66260  0.97220  0.87720  Biso   1.000  C
  H49      1.0000 0.28060  0.05670  0.38240  Biso   1.000  H
  H50      1.0000 0.21940  0.05670  0.11760  Biso   1.000  H
  H51      1.0000 0.71940  0.94330  0.61760  Biso   1.000  H
  H52      1.0000 0.78060  0.94330  0.88240  Biso   1.000  H
  C57      1.0000 0.12110  0.46530  0.40600  Biso   1.000  C
  C58      1.0000 0.37890  0.46530  0.09400  Biso   1.000  C
  C59      1.0000 0.87890  0.53470  0.59400  Biso   1.000  C
  C60      1.0000 0.62110  0.53470  0.90600  Biso   1.000  C
  H53      1.0000 0.19290  0.49070  0.43810  Biso   1.000  H
  H54      1.0000 0.30710  0.49070  0.06190  Biso   1.000  H
  H55      1.0000 0.80710  0.50930  0.56190  Biso   1.000  H
  H56      1.0000 0.69290  0.50930  0.93810  Biso   1.000  H
  Br5      1.0000 0.00000  0.00000  0.00000  Biso   1.000  Br
  Br6      1.0000 0.50000  0.00000  0.50000  Biso   1.000  Br
  C61      1.0000 0.80700  0.30520  0.04580  Biso   1.000  C
  C62      1.0000 0.69300  0.30520  0.45420  Biso   1.000  C
  C63      1.0000 0.19300  0.69480  0.95420  Biso   1.000  C
  C64      1.0000 0.30700  0.69480  0.54580  Biso   1.000  C
  C65      1.0000 0.68790  0.21270  0.05980  Biso   1.000  C
  C66      1.0000 0.81210  0.21270  0.44020  Biso   1.000  C
  C67      1.0000 0.31210  0.78730  0.94020  Biso   1.000  C
  C68      1.0000 0.18790  0.78730  0.55980  Biso   1.000  C
  H57      1.0000 0.73960  0.14170  0.04760  Biso   1.000  H
  H58      1.0000 0.76040  0.14170  0.45240  Biso   1.000  H
  H59      1.0000 0.26040  0.85830  0.95240  Biso   1.000  H
  H60      1.0000 0.23960  0.85830  0.54760  Biso   1.000  H
  H61      1.0000 0.57070  0.22360  0.03980  Biso   1.000  H
  H62      1.0000 0.92930  0.22360  0.46020  Biso   1.000  H
  H63      1.0000 0.42930  0.77640  0.96020  Biso   1.000  H
  H64      1.0000 0.07070  0.77640  0.53980  Biso   1.000  H
  H65      1.0000 0.67370  0.21100  0.10110  Biso   1.000  H
  H66      1.0000 0.82630  0.21100  0.39890  Biso   1.000  H
  H67      1.0000 0.32630  0.78900  0.89890  Biso   1.000  H
  H68      1.0000 0.17370  0.78900  0.60110  Biso   1.000  H
  N17      1.0000 0.90380  0.37460  0.03540  Biso   1.000  N
  N18      1.0000 0.59620  0.37460  0.46460  Biso   1.000  N
  N19      1.0000 0.09620  0.62540  0.96460  Biso   1.000  N
  N20      1.0000 0.40380  0.62540  0.53540  Biso   1.000  N
  C69      1.0000 0.25000  0.66630  0.25000  Biso   1.000  C
  C70      1.0000 0.75000  0.33370  0.75000  Biso   1.000  C
  C71      1.0000 0.27500  0.78800  0.23000  Biso   1.000  C
  C72      1.0000 0.22500  0.78800  0.27000  Biso   1.000  C
  C73      1.0000 0.72500  0.21200  0.77000  Biso   1.000  C
  C74      1.0000 0.77500  0.21200  0.73000  Biso   1.000  C
  H69      1.0000 0.16270  0.81500  0.21130  Biso   1.000  H
  H70      1.0000 0.33730  0.81500  0.28870  Biso   1.000  H
  H71      1.0000 0.83730  0.18500  0.78870  Biso   1.000  H
  H72      1.0000 0.66270  0.18500  0.71130  Biso   1.000  H
  H73      1.0000 0.36990  0.79070  0.20270  Biso   1.000  H
  H74      1.0000 0.13010  0.79070  0.29730  Biso   1.000  H
  H75      1.0000 0.63010  0.20930  0.79730  Biso   1.000  H
  H76      1.0000 0.86990  0.20930  0.70270  Biso   1.000  H
  H77      1.0000 0.30750  0.83540  0.26300  Biso   1.000  H
  H78      1.0000 0.19250  0.83540  0.23700  Biso   1.000  H
  H79      1.0000 0.69250  0.16460  0.73700  Biso   1.000  H
  H80      1.0000 0.80750  0.16460  0.76300  Biso   1.000  H
  N21      1.0000 0.25000  0.57670  0.25000  Biso   1.000  N
  N22      1.0000 0.75000  0.42330  0.75000  Biso   1.000  N
