data_image0
_cell_length_a       3.7853
_cell_length_b       12.732
_cell_length_c       11.505
_cell_angle_alpha    90
_cell_angle_beta     94.748
_cell_angle_gamma    90

_symmetry_space_group_name_H-M    "P 1"
_symmetry_int_tables_number       1

loop_
  _symmetry_equiv_pos_as_xyz
  'x, y, z'

loop_
  _atom_site_label
  _atom_site_occupancy
  _atom_site_fract_x
  _atom_site_fract_y
  _atom_site_fract_z
  _atom_site_thermal_displace_type
  _atom_site_B_iso_or_equiv
  _atom_site_type_symbol
  Cu1      1.0000 0.26280  0.42617  0.05356  Biso   1.000  Cu
  Cu2      1.0000 0.73720  0.92617  0.44644  Biso   1.000  Cu
  Cu3      1.0000 0.73720  0.57383  0.94644  Biso   1.000  Cu
  Cu4      1.0000 0.26280  0.07383  0.55356  Biso   1.000  Cu
  Cl1      1.0000 0.19280  0.50129  0.85259  Biso   1.000  Cl
  Cl2      1.0000 0.80720  0.00129  0.64741  Biso   1.000  Cl
  Cl3      1.0000 0.80720  0.49871  0.14741  Biso   1.000  Cl
  Cl4      1.0000 0.19280  0.99871  0.35259  Biso   1.000  Cl
  N1       1.0000 0.34940  0.27390  0.03230  Biso   1.000  N
  N2       1.0000 0.65060  0.77390  0.46770  Biso   1.000  N
  N3       1.0000 0.65060  0.72610  0.96770  Biso   1.000  N
  N4       1.0000 0.34940  0.22610  0.53230  Biso   1.000  N
  C1       1.0000 0.24590  0.22280  0.93320  Biso   1.000  C
  C2       1.0000 0.75410  0.72280  0.56680  Biso   1.000  C
  C3       1.0000 0.75410  0.77720  0.06680  Biso   1.000  C
  C4       1.0000 0.24590  0.27720  0.43320  Biso   1.000  C
  H1       1.0000 0.13170  0.26090  0.87210  Biso   1.000  H
  H2       1.0000 0.86830  0.76090  0.62790  Biso   1.000  H
  H3       1.0000 0.86830  0.73910  0.12790  Biso   1.000  H
  H4       1.0000 0.13170  0.23910  0.37210  Biso   1.000  H
  C5       1.0000 0.30010  0.11710  0.91730  Biso   1.000  C
  C6       1.0000 0.69990  0.61710  0.58270  Biso   1.000  C
  C7       1.0000 0.69990  0.88290  0.08270  Biso   1.000  C
  C8       1.0000 0.30010  0.38290  0.41730  Biso   1.000  C
  H5       1.0000 0.22400  0.08560  0.84670  Biso   1.000  H
  H6       1.0000 0.77600  0.58560  0.65330  Biso   1.000  H
  H7       1.0000 0.77600  0.91440  0.15330  Biso   1.000  H
  H8       1.0000 0.22400  0.41440  0.34670  Biso   1.000  H
  C9       1.0000 0.46810  0.05750  0.00650  Biso   1.000  C
  C10      1.0000 0.53190  0.55750  0.49350  Biso   1.000  C
  C11      1.0000 0.53190  0.94250  0.99350  Biso   1.000  C
  C12      1.0000 0.46810  0.44250  0.50650  Biso   1.000  C
  C13      1.0000 0.57740  0.11080  0.10890  Biso   1.000  C
  C14      1.0000 0.42260  0.61080  0.39110  Biso   1.000  C
  C15      1.0000 0.42260  0.88920  0.89110  Biso   1.000  C
  C16      1.0000 0.57740  0.38920  0.60890  Biso   1.000  C
  H9       1.0000 0.69060  0.07440  0.17150  Biso   1.000  H
  H10      1.0000 0.30940  0.57440  0.32850  Biso   1.000  H
  H11      1.0000 0.30940  0.92560  0.82850  Biso   1.000  H
  H12      1.0000 0.69060  0.42560  0.67150  Biso   1.000  H
  C17      1.0000 0.51850  0.21670  0.11770  Biso   1.000  C
  C18      1.0000 0.48150  0.71670  0.38230  Biso   1.000  C
  C19      1.0000 0.48150  0.78330  0.88230  Biso   1.000  C
  C20      1.0000 0.51850  0.28330  0.61770  Biso   1.000  C
  H13      1.0000 0.59990  0.25060  0.18640  Biso   1.000  H
  H14      1.0000 0.40010  0.75060  0.31360  Biso   1.000  H
  H15      1.0000 0.40010  0.74940  0.81360  Biso   1.000  H
  H16      1.0000 0.59990  0.24940  0.68640  Biso   1.000  H
