data_image0
_cell_length_a       3.8005
_cell_length_b       12.781
_cell_length_c       11.5348
_cell_angle_alpha    90
_cell_angle_beta     94.719
_cell_angle_gamma    90

_symmetry_space_group_name_H-M    "P 1"
_symmetry_int_tables_number       1

loop_
  _symmetry_equiv_pos_as_xyz
  'x, y, z'

loop_
  _atom_site_label
  _atom_site_occupancy
  _atom_site_fract_x
  _atom_site_fract_y
  _atom_site_fract_z
  _atom_site_thermal_displace_type
  _atom_site_B_iso_or_equiv
  _atom_site_type_symbol
  Cu1      1.0000 0.23733  0.57377  0.94643  Biso   1.000  Cu
  Cu2      1.0000 0.76267  0.07377  0.55357  Biso   1.000  Cu
  Cu3      1.0000 0.76267  0.42623  0.05357  Biso   1.000  Cu
  Cu4      1.0000 0.23733  0.92623  0.44643  Biso   1.000  Cu
  Cl1      1.0000 0.30687  0.49875  0.14750  Biso   1.000  Cl
  Cl2      1.0000 0.69313  0.99875  0.35250  Biso   1.000  Cl
  Cl3      1.0000 0.69313  0.50125  0.85250  Biso   1.000  Cl
  Cl4      1.0000 0.30687  0.00125  0.64750  Biso   1.000  Cl
  N1       1.0000 0.15080  0.72619  0.96760  Biso   1.000  N
  N2       1.0000 0.84920  0.22619  0.53240  Biso   1.000  N
  N3       1.0000 0.84920  0.27381  0.03240  Biso   1.000  N
  N4       1.0000 0.15080  0.77381  0.46760  Biso   1.000  N
  C1       1.0000 0.98340  0.78350  0.88260  Biso   1.000  C
  C2       1.0000 0.01660  0.28350  0.61740  Biso   1.000  C
  C3       1.0000 0.01660  0.21650  0.11740  Biso   1.000  C
  C4       1.0000 0.98340  0.71650  0.38260  Biso   1.000  C
  H1       1.0000 0.90400  0.74970  0.81390  Biso   1.000  H
  H2       1.0000 0.09600  0.24970  0.68610  Biso   1.000  H
  H3       1.0000 0.09600  0.25030  0.18610  Biso   1.000  H
  H4       1.0000 0.90400  0.75030  0.31390  Biso   1.000  H
  C5       1.0000 0.92240  0.88930  0.89100  Biso   1.000  C
  C6       1.0000 0.07760  0.38930  0.60900  Biso   1.000  C
  C7       1.0000 0.07760  0.11070  0.10900  Biso   1.000  C
  C8       1.0000 0.92240  0.61070  0.39100  Biso   1.000  C
  H5       1.0000 0.80900  0.92520  0.82850  Biso   1.000  H
  H6       1.0000 0.19100  0.42520  0.67150  Biso   1.000  H
  H7       1.0000 0.19100  0.07480  0.17150  Biso   1.000  H
  H8       1.0000 0.80900  0.57480  0.32850  Biso   1.000  H
  C9       1.0000 0.03080  0.94290  0.99360  Biso   1.000  C
  C10      1.0000 0.96920  0.44290  0.50640  Biso   1.000  C
  C11      1.0000 0.96920  0.05710  0.00640  Biso   1.000  C
  C12      1.0000 0.03080  0.55710  0.49360  Biso   1.000  C
  C13      1.0000 0.19840  0.88270  0.08270  Biso   1.000  C
  C14      1.0000 0.80160  0.38270  0.41730  Biso   1.000  C
  C15      1.0000 0.80160  0.11730  0.91730  Biso   1.000  C
  C16      1.0000 0.19840  0.61730  0.58270  Biso   1.000  C
  H9       1.0000 0.27380  0.91390  0.15320  Biso   1.000  H
  H10      1.0000 0.72620  0.41390  0.34680  Biso   1.000  H
  H11      1.0000 0.72620  0.08610  0.84680  Biso   1.000  H
  H12      1.0000 0.27380  0.58610  0.65320  Biso   1.000  H
  C17      1.0000 0.25270  0.77730  0.06660  Biso   1.000  C
  C18      1.0000 0.74730  0.27730  0.43340  Biso   1.000  C
  C19      1.0000 0.74730  0.22270  0.93340  Biso   1.000  C
  C20      1.0000 0.25270  0.72270  0.56660  Biso   1.000  C
  H13      1.0000 0.36620  0.73940  0.12760  Biso   1.000  H
  H14      1.0000 0.63380  0.23940  0.37240  Biso   1.000  H
  H15      1.0000 0.63380  0.26060  0.87240  Biso   1.000  H
  H16      1.0000 0.36620  0.76060  0.62760  Biso   1.000  H
