data_image0
_cell_length_a       9.252
_cell_length_b       14.347
_cell_length_c       17.158
_cell_angle_alpha    113.914
_cell_angle_beta     91.45
_cell_angle_gamma    99.705

_symmetry_space_group_name_H-M    "P 1"
_symmetry_int_tables_number       1

loop_
  _symmetry_equiv_pos_as_xyz
  'x, y, z'

loop_
  _atom_site_label
  _atom_site_occupancy
  _atom_site_fract_x
  _atom_site_fract_y
  _atom_site_fract_z
  _atom_site_thermal_displace_type
  _atom_site_B_iso_or_equiv
  _atom_site_type_symbol
  I1       1.0000 0.71939  0.37712  0.11358  Biso   1.000  I
  I2       1.0000 0.28061  0.62288  0.88642  Biso   1.000  I
  I3       1.0000 0.60141  0.41821  0.88479  Biso   1.000  I
  I4       1.0000 0.39859  0.58179  0.11521  Biso   1.000  I
  Cu1      1.0000 0.63053  0.50430  0.05797  Biso   1.000  Cu
  Cu2      1.0000 0.36947  0.49570  0.94203  Biso   1.000  Cu
  Cu3      1.0000 0.48892  0.45288  0.17215  Biso   1.000  Cu
  Cu4      1.0000 0.51108  0.54712  0.82785  Biso   1.000  Cu
  S1       1.0000 0.17202  0.88713  0.09833  Biso   1.000  S
  S2       1.0000 0.82798  0.11287  0.90167  Biso   1.000  S
  S3       1.0000 0.94529  0.07757  0.14497  Biso   1.000  S
  S4       1.0000 0.05471  0.92243  0.85503  Biso   1.000  S
  S5       1.0000 0.43320  0.27490  0.40758  Biso   1.000  S
  S6       1.0000 0.56680  0.72510  0.59242  Biso   1.000  S
  N1       1.0000 0.32100  0.33140  0.15270  Biso   1.000  N
  N2       1.0000 0.67900  0.66860  0.84730  Biso   1.000  N
  N3       1.0000 0.79910  0.62660  0.08080  Biso   1.000  N
  N4       1.0000 0.20090  0.37340  0.91920  Biso   1.000  N
  C1       1.0000 0.33960  0.25640  0.17410  Biso   1.000  C
  C2       1.0000 0.66040  0.74360  0.82590  Biso   1.000  C
  H1       1.0000 0.43480  0.25600  0.19250  Biso   1.000  H
  H2       1.0000 0.56520  0.74400  0.80750  Biso   1.000  H
  C3       1.0000 0.22830  0.17770  0.17140  Biso   1.000  C
  C4       1.0000 0.77170  0.82230  0.82860  Biso   1.000  C
  H3       1.0000 0.24890  0.12640  0.18750  Biso   1.000  H
  H4       1.0000 0.75110  0.87360  0.81250  Biso   1.000  H
  C5       1.0000 0.55850  0.98470  0.12770  Biso   1.000  C
  C6       1.0000 0.44150  0.01530  0.87230  Biso   1.000  C
  C7       1.0000 0.33960  0.85570  0.13220  Biso   1.000  C
  C8       1.0000 0.66040  0.14430  0.86780  Biso   1.000  C
  H5       1.0000 0.31910  0.82510  0.17280  Biso   1.000  H
  H6       1.0000 0.68090  0.17490  0.82720  Biso   1.000  H
  H7       1.0000 0.37690  0.80650  0.08310  Biso   1.000  H
  H8       1.0000 0.62310  0.19350  0.91690  Biso   1.000  H
  C9       1.0000 0.65720  0.07860  0.16740  Biso   1.000  C
  C10      1.0000 0.34280  0.92140  0.83260  Biso   1.000  C
  N5       1.0000 0.47310  0.45590  0.69740  Biso   1.000  N
  N6       1.0000 0.52690  0.54410  0.30260  Biso   1.000  N
  C11      1.0000 0.03290  0.78390  0.09270  Biso   1.000  C
  C12      1.0000 0.96710  0.21610  0.90730  Biso   1.000  C
  C13      1.0000 0.05820  0.69040  0.08690  Biso   1.000  C
  C14      1.0000 0.94180  0.30960  0.91310  Biso   1.000  C
  H9       1.0000 0.15340  0.67730  0.08560  Biso   1.000  H
  H10      1.0000 0.84660  0.32270  0.91440  Biso   1.000  H
  C15      1.0000 0.08590  0.17610  0.14430  Biso   1.000  C
  C16      1.0000 0.91410  0.82390  0.85570  Biso   1.000  C
  C17      1.0000 0.77490  0.11370  0.12330  Biso   1.000  C
  C18      1.0000 0.22510  0.88630  0.87670  Biso   1.000  C
  H11      1.0000 0.78990  0.18860  0.14300  Biso   1.000  H
  H12      1.0000 0.21010  0.81140  0.85700  Biso   1.000  H
  H13      1.0000 0.74580  0.08220  0.06200  Biso   1.000  H
  H14      1.0000 0.25420  0.91780  0.93800  Biso   1.000  H
  C19      1.0000 0.44890  0.95420  0.17260  Biso   1.000  C
  C20      1.0000 0.55110  0.04580  0.82740  Biso   1.000  C
  C21      1.0000 0.18320  0.32700  0.12300  Biso   1.000  C
  C22      1.0000 0.81680  0.67300  0.87700  Biso   1.000  C
  H15      1.0000 0.16690  0.37710  0.10430  Biso   1.000  H
  H16      1.0000 0.83310  0.62290  0.89570  Biso   1.000  H
  C23      1.0000 0.57170  0.91070  0.03610  Biso   1.000  C
  C24      1.0000 0.42830  0.08930  0.96390  Biso   1.000  C
  H17      1.0000 0.65790  0.93790  0.01630  Biso   1.000  H
  H18      1.0000 0.34210  0.06210  0.98370  Biso   1.000  H
  H19      1.0000 0.48580  0.90330  0.99990  Biso   1.000  H
  H20      1.0000 0.51420  0.09670  0.00010  Biso   1.000  H
  H21      1.0000 0.57970  0.84400  0.03440  Biso   1.000  H
  H22      1.0000 0.42030  0.15600  0.96560  Biso   1.000  H
  C25      1.0000 0.43920  0.01990  0.25950  Biso   1.000  C
  C26      1.0000 0.56080  0.98010  0.74050  Biso   1.000  C
  C27      1.0000 0.93930  0.61580  0.08290  Biso   1.000  C
  C28      1.0000 0.06070  0.38420  0.91710  Biso   1.000  C
  H23      1.0000 0.95820  0.55350  0.08160  Biso   1.000  H
  H24      1.0000 0.04180  0.44650  0.91840  Biso   1.000  H
  C29      1.0000 0.65050  0.14360  0.25250  Biso   1.000  C
  C30      1.0000 0.34950  0.85640  0.74750  Biso   1.000  C
  C31      1.0000 0.06470  0.25190  0.11880  Biso   1.000  C
  C32      1.0000 0.93530  0.74810  0.88120  Biso   1.000  C
  H25      1.0000 0.97090  0.25280  0.09860  Biso   1.000  H
  H26      1.0000 0.02910  0.74720  0.90140  Biso   1.000  H
  C33      1.0000 0.54420  0.11210  0.29990  Biso   1.000  C
  C34      1.0000 0.45580  0.88790  0.70010  Biso   1.000  C
  C35      1.0000 0.77540  0.71640  0.08490  Biso   1.000  C
  C36      1.0000 0.22460  0.28360  0.91510  Biso   1.000  C
  H27      1.0000 0.67840  0.72520  0.08220  Biso   1.000  H
  H28      1.0000 0.32160  0.27480  0.91780  Biso   1.000  H
  C37      1.0000 0.54260  0.17910  0.39350  Biso   1.000  C
  C38      1.0000 0.45740  0.82090  0.60650  Biso   1.000  C
  H29      1.0000 0.64260  0.21320  0.41910  Biso   1.000  H
  H30      1.0000 0.35740  0.78680  0.58090  Biso   1.000  H
  H31      1.0000 0.50290  0.13610  0.42230  Biso   1.000  H
  H32      1.0000 0.49710  0.86390  0.57770  Biso   1.000  H
  C39      1.0000 0.32330  0.99020  0.31100  Biso   1.000  C
  C40      1.0000 0.67670  0.00980  0.68900  Biso   1.000  C
  H33      1.0000 0.23630  0.94840  0.27340  Biso   1.000  H
  H34      1.0000 0.76370  0.05160  0.72660  Biso   1.000  H
  H35      1.0000 0.29930  0.05210  0.35370  Biso   1.000  H
  H36      1.0000 0.70070  0.94790  0.64630  Biso   1.000  H
  H37      1.0000 0.36110  0.95150  0.33840  Biso   1.000  H
  H38      1.0000 0.63890  0.04850  0.66160  Biso   1.000  H
  C41      1.0000 0.75740  0.24680  0.29780  Biso   1.000  C
  C42      1.0000 0.24260  0.75320  0.70220  Biso   1.000  C
  H39      1.0000 0.85670  0.23580  0.29170  Biso   1.000  H
  H40      1.0000 0.14330  0.76420  0.70830  Biso   1.000  H
  H41      1.0000 0.74290  0.27670  0.35750  Biso   1.000  H
  H42      1.0000 0.25710  0.72330  0.64250  Biso   1.000  H
  H43      1.0000 0.73990  0.29330  0.27270  Biso   1.000  H
  H44      1.0000 0.26010  0.70670  0.72730  Biso   1.000  H
  C43      1.0000 0.88780  0.79920  0.09320  Biso   1.000  C
  C44      1.0000 0.11220  0.20080  0.90680  Biso   1.000  C
  H45      1.0000 0.86660  0.86260  0.09890  Biso   1.000  H
  H46      1.0000 0.13340  0.13740  0.90110  Biso   1.000  H
  C45      1.0000 0.40030  0.48100  0.64300  Biso   1.000  C
  C46      1.0000 0.59970  0.51900  0.35700  Biso   1.000  C
  H47      1.0000 0.35600  0.53860  0.66610  Biso   1.000  H
  H48      1.0000 0.64400  0.46140  0.33390  Biso   1.000  H
  C47      1.0000 0.45300  0.34190  0.51930  Biso   1.000  C
  C48      1.0000 0.54700  0.65810  0.48070  Biso   1.000  C
  C49      1.0000 0.38630  0.42890  0.55650  Biso   1.000  C
  C50      1.0000 0.61370  0.57110  0.44350  Biso   1.000  C
  H49      1.0000 0.33320  0.45030  0.52220  Biso   1.000  H
  H50      1.0000 0.66680  0.54970  0.47780  Biso   1.000  H
  C51      1.0000 0.53000  0.31750  0.57430  Biso   1.000  C
  C52      1.0000 0.47000  0.68250  0.42570  Biso   1.000  C
  H51      1.0000 0.57970  0.26250  0.55290  Biso   1.000  H
  H52      1.0000 0.42030  0.73750  0.44710  Biso   1.000  H
  C53      1.0000 0.53530  0.37460  0.66290  Biso   1.000  C
  C54      1.0000 0.46470  0.62540  0.33710  Biso   1.000  C
  H53      1.0000 0.58510  0.35400  0.69910  Biso   1.000  H
  H54      1.0000 0.41490  0.64600  0.30090  Biso   1.000  H
  C55      1.0000 0.17540  0.55200  0.49910  Biso   1.000  C
  C56      1.0000 0.82460  0.44800  0.50090  Biso   1.000  C
  C57      1.0000 0.09550  0.50660  0.36760  Biso   1.000  C
  C58      1.0000 0.90450  0.49340  0.63240  Biso   1.000  C
  O1       1.0000 0.15140  0.42980  0.34930  Biso   1.000  O
  O2       1.0000 0.84860  0.57020  0.65070  Biso   1.000  O
  N7       1.0000 0.09040  0.59260  0.45000  Biso   1.000  N
  N8       1.0000 0.90960  0.40740  0.55000  Biso   1.000  N
  C59      1.0000 0.04140  0.69010  0.46550  Biso   1.000  C
  C60      1.0000 0.95860  0.30990  0.53450  Biso   1.000  C
  H55      1.0000 0.97160  0.70170  0.50720  Biso   1.000  H
  H56      1.0000 0.02840  0.29830  0.49280  Biso   1.000  H
  H57      1.0000 0.99590  0.68580  0.41290  Biso   1.000  H
  H58      1.0000 0.00410  0.31420  0.58710  Biso   1.000  H
  H59      1.0000 0.12480  0.74670  0.48650  Biso   1.000  H
  H60      1.0000 0.87520  0.25330  0.51350  Biso   1.000  H
  C61      1.0000 0.05660  0.57060  0.32420  Biso   1.000  C
  C62      1.0000 0.94340  0.42940  0.67580  Biso   1.000  C
  H61      1.0000 0.07760  0.54090  0.26550  Biso   1.000  H
  H62      1.0000 0.92240  0.45910  0.73450  Biso   1.000  H
  H63      1.0000 0.11340  0.64000  0.35260  Biso   1.000  H
  H64      1.0000 0.88660  0.36000  0.64740  Biso   1.000  H
  H65      1.0000 0.95350  0.57260  0.32610  Biso   1.000  H
  H66      1.0000 0.04650  0.42740  0.67390  Biso   1.000  H
  N9       1.0000 0.80270  0.88590  0.34150  Biso   1.000  N
  N10      1.0000 0.19730  0.11410  0.65850  Biso   1.000  N
  C63      1.0000 0.64530  0.87440  0.32400  Biso   1.000  C
  C64      1.0000 0.35470  0.12560  0.67600  Biso   1.000  C
  H67      1.0000 0.62550  0.88570  0.27370  Biso   1.000  H
  H68      1.0000 0.37450  0.11430  0.72630  Biso   1.000  H
  H69      1.0000 0.60890  0.92430  0.37200  Biso   1.000  H
  H70      1.0000 0.39110  0.07570  0.62800  Biso   1.000  H
  H71      1.0000 0.59720  0.80550  0.31490  Biso   1.000  H
  H72      1.0000 0.40280  0.19450  0.68510  Biso   1.000  H
  C65      1.0000 0.88730  0.03990  0.36040  Biso   1.000  C
  C66      1.0000 0.11270  0.96010  0.63960  Biso   1.000  C
  H73      1.0000 0.87140  0.03060  0.30190  Biso   1.000  H
  H74      1.0000 0.12860  0.96940  0.69810  Biso   1.000  H
  H75      1.0000 0.95250  0.10520  0.39290  Biso   1.000  H
  H76      1.0000 0.04750  0.89480  0.60710  Biso   1.000  H
  H77      1.0000 0.79480  0.03930  0.38440  Biso   1.000  H
  H78      1.0000 0.20520  0.96070  0.61560  Biso   1.000  H
  O3       1.0000 0.05520  0.91300  0.38340  Biso   1.000  O
  O4       1.0000 0.94480  0.08700  0.61660  Biso   1.000  O
  C67      1.0000 0.82840  0.77670  0.32390  Biso   1.000  C
  C68      1.0000 0.17160  0.22330  0.67610  Biso   1.000  C
  H79      1.0000 0.80690  0.76170  0.37250  Biso   1.000  H
  H80      1.0000 0.19310  0.23830  0.62750  Biso   1.000  H
  H81      1.0000 0.92940  0.77340  0.31380  Biso   1.000  H
  H82      1.0000 0.07060  0.22660  0.68620  Biso   1.000  H
  H83      1.0000 0.76500  0.72660  0.27430  Biso   1.000  H
  H84      1.0000 0.23500  0.27340  0.72570  Biso   1.000  H
  C69      1.0000 0.95540  0.95250  0.36330  Biso   1.000  C
  C70      1.0000 0.04460  0.04750  0.63670  Biso   1.000  C
