data_image0
_cell_length_a       9.102
_cell_length_b       14.511
_cell_length_c       17.16
_cell_angle_alpha    66.114
_cell_angle_beta     88.537
_cell_angle_gamma    80.515

_symmetry_space_group_name_H-M    "P 1"
_symmetry_int_tables_number       1

loop_
  _symmetry_equiv_pos_as_xyz
  'x, y, z'

loop_
  _atom_site_label
  _atom_site_occupancy
  _atom_site_fract_x
  _atom_site_fract_y
  _atom_site_fract_z
  _atom_site_thermal_displace_type
  _atom_site_B_iso_or_equiv
  _atom_site_type_symbol
  I1       1.0000 0.38368  0.92932  0.61438  Biso   1.000  I
  I2       1.0000 0.61632  0.07068  0.38562  Biso   1.000  I
  I3       1.0000 0.71655  0.13173  0.60566  Biso   1.000  I
  I4       1.0000 0.28345  0.86827  0.39434  Biso   1.000  I
  Cu1      1.0000 0.63012  0.99896  0.55927  Biso   1.000  Cu
  Cu2      1.0000 0.36988  0.00104  0.44073  Biso   1.000  Cu
  Cu3      1.0000 0.48100  0.05396  0.67415  Biso   1.000  Cu
  Cu4      1.0000 0.51900  0.94604  0.32585  Biso   1.000  Cu
  S1       1.0000 0.16733  0.61394  0.61065  Biso   1.000  S
  S2       1.0000 0.83267  0.38606  0.38935  Biso   1.000  S
  S3       1.0000 0.94207  0.43524  0.63195  Biso   1.000  S
  S4       1.0000 0.05793  0.56476  0.36805  Biso   1.000  S
  S5       1.0000 0.42350  0.23021  0.91194  Biso   1.000  S
  S6       1.0000 0.57650  0.76979  0.08806  Biso   1.000  S
  C1       1.0000 0.32050  0.51060  0.81810  Biso   1.000  C
  C2       1.0000 0.67950  0.48940  0.18190  Biso   1.000  C
  H1       1.0000 0.29380  0.44920  0.86080  Biso   1.000  H
  H2       1.0000 0.70620  0.55080  0.13920  Biso   1.000  H
  H3       1.0000 0.23390  0.55170  0.78280  Biso   1.000  H
  H4       1.0000 0.76610  0.44830  0.21720  Biso   1.000  H
  H5       1.0000 0.35900  0.54840  0.84540  Biso   1.000  H
  H6       1.0000 0.64100  0.45160  0.15460  Biso   1.000  H
  N1       1.0000 0.79510  0.87540  0.58770  Biso   1.000  N
  N2       1.0000 0.20490  0.12460  0.41230  Biso   1.000  N
  C3       1.0000 0.54230  0.32600  0.89350  Biso   1.000  C
  C4       1.0000 0.45770  0.67400  0.10650  Biso   1.000  C
  H7       1.0000 0.50620  0.36820  0.92390  Biso   1.000  H
  H8       1.0000 0.49380  0.63180  0.07610  Biso   1.000  H
  H9       1.0000 0.64330  0.29250  0.91470  Biso   1.000  H
  H10      1.0000 0.35670  0.70750  0.08530  Biso   1.000  H
  N3       1.0000 0.48110  0.03790  0.19830  Biso   1.000  N
  N4       1.0000 0.51890  0.96210  0.80170  Biso   1.000  N
  C5       1.0000 0.08330  0.33490  0.63650  Biso   1.000  C
  C6       1.0000 0.91670  0.66510  0.36350  Biso   1.000  C
  N5       1.0000 0.31530  0.17600  0.65170  Biso   1.000  N
  N6       1.0000 0.68470  0.82400  0.34830  Biso   1.000  N
  C7       1.0000 0.87890  0.70530  0.60010  Biso   1.000  C
  C8       1.0000 0.12110  0.29470  0.39990  Biso   1.000  C
  H11      1.0000 0.85480  0.64410  0.60310  Biso   1.000  H
  H12      1.0000 0.14520  0.35590  0.39690  Biso   1.000  H
  C9       1.0000 0.65080  0.42900  0.66310  Biso   1.000  C
  C10      1.0000 0.34920  0.57100  0.33690  Biso   1.000  C
  C11      1.0000 0.64310  0.36300  0.74800  Biso   1.000  C
  C12      1.0000 0.35690  0.63700  0.25200  Biso   1.000  C
  C13      1.0000 0.33590  0.64680  0.64140  Biso   1.000  C
  C14      1.0000 0.66410  0.35320  0.35860  Biso   1.000  C
  H13      1.0000 0.37490  0.69690  0.59210  Biso   1.000  H
  H14      1.0000 0.62510  0.30310  0.40790  Biso   1.000  H
  H15      1.0000 0.31450  0.67500  0.68380  Biso   1.000  H
  H16      1.0000 0.68550  0.32500  0.31620  Biso   1.000  H
  C15      1.0000 0.53320  0.18170  0.07570  Biso   1.000  C
  C16      1.0000 0.46680  0.81830  0.92430  Biso   1.000  C
  H17      1.0000 0.58060  0.23850  0.05350  Biso   1.000  H
  H18      1.0000 0.41940  0.76150  0.94650  Biso   1.000  H
  C17      1.0000 0.55340  0.52330  0.62700  Biso   1.000  C
  C18      1.0000 0.44660  0.47670  0.37300  Biso   1.000  C
  C19      1.0000 0.44830  0.15840  0.02300  Biso   1.000  C
  C20      1.0000 0.55170  0.84160  0.97700  Biso   1.000  C
  C21      1.0000 0.22210  0.32830  0.67220  Biso   1.000  C
  C22      1.0000 0.77790  0.67170  0.32780  Biso   1.000  C
  H19      1.0000 0.23940  0.37680  0.69180  Biso   1.000  H
  H20      1.0000 0.76060  0.62320  0.30820  Biso   1.000  H
  C23      1.0000 0.43800  0.48310  0.76390  Biso   1.000  C
  C24      1.0000 0.56200  0.51690  0.23610  Biso   1.000  C
  C25      1.0000 0.54110  0.39170  0.79930  Biso   1.000  C
  C26      1.0000 0.45890  0.60830  0.20070  Biso   1.000  C
  C27      1.0000 0.76940  0.78540  0.59270  Biso   1.000  C
  C28      1.0000 0.23060  0.21460  0.40730  Biso   1.000  C
  H21      1.0000 0.67080  0.77660  0.59110  Biso   1.000  H
  H22      1.0000 0.32920  0.22340  0.40890  Biso   1.000  H
  C29      1.0000 0.33250  0.24950  0.67790  Biso   1.000  C
  C30      1.0000 0.66750  0.75050  0.32210  Biso   1.000  C
  H23      1.0000 0.42510  0.24640  0.70140  Biso   1.000  H
  H24      1.0000 0.57490  0.75360  0.29860  Biso   1.000  H
  C31      1.0000 0.44670  0.54880  0.67770  Biso   1.000  C
  C32      1.0000 0.55330  0.45120  0.32230  Biso   1.000  C
  C33      1.0000 0.76920  0.39850  0.61100  Biso   1.000  C
  C34      1.0000 0.23080  0.60150  0.38900  Biso   1.000  C
  H25      1.0000 0.73990  0.43300  0.55080  Biso   1.000  H
  H26      1.0000 0.26010  0.56700  0.44920  Biso   1.000  H
  H27      1.0000 0.78330  0.32530  0.62700  Biso   1.000  H
  H28      1.0000 0.21670  0.67470  0.37300  Biso   1.000  H
  C35      1.0000 0.40370  0.01590  0.14650  Biso   1.000  C
  C36      1.0000 0.59630  0.98410  0.85350  Biso   1.000  C
  H29      1.0000 0.35910  0.95800  0.17000  Biso   1.000  H
  H30      1.0000 0.64090  0.04200  0.83000  Biso   1.000  H
  C37      1.0000 0.74960  0.26200  0.78490  Biso   1.000  C
  C38      1.0000 0.25040  0.73800  0.21510  Biso   1.000  C
  H31      1.0000 0.74590  0.22590  0.74910  Biso   1.000  H
  H32      1.0000 0.25410  0.77410  0.25090  Biso   1.000  H
  H33      1.0000 0.72120  0.22160  0.84120  Biso   1.000  H
  H34      1.0000 0.27880  0.77840  0.15880  Biso   1.000  H
  H35      1.0000 0.84920  0.27460  0.78780  Biso   1.000  H
  H36      1.0000 0.15080  0.72540  0.21220  Biso   1.000  H
  C39      1.0000 0.56550  0.59650  0.53500  Biso   1.000  C
  C40      1.0000 0.43450  0.40350  0.46500  Biso   1.000  C
  H37      1.0000 0.66870  0.59520  0.52160  Biso   1.000  H
  H38      1.0000 0.33130  0.40480  0.47840  Biso   1.000  H
  H39      1.0000 0.52090  0.66450  0.52740  Biso   1.000  H
  H40      1.0000 0.47910  0.33550  0.47260  Biso   1.000  H
  H41      1.0000 0.51460  0.57600  0.49790  Biso   1.000  H
  H42      1.0000 0.48540  0.42400  0.50210  Biso   1.000  H
  C41      1.0000 0.93820  0.88540  0.58980  Biso   1.000  C
  C42      1.0000 0.06180  0.11460  0.41020  Biso   1.000  C
  H43      1.0000 0.95920  0.94760  0.58610  Biso   1.000  H
  H44      1.0000 0.04080  0.05240  0.41390  Biso   1.000  H
  C43      1.0000 0.02760  0.71690  0.60290  Biso   1.000  C
  C44      1.0000 0.97240  0.28310  0.39710  Biso   1.000  C
  C45      1.0000 0.38430  0.07250  0.06020  Biso   1.000  C
  C46      1.0000 0.61570  0.92750  0.93980  Biso   1.000  C
  H45      1.0000 0.32790  0.05270  0.02710  Biso   1.000  H
  H46      1.0000 0.67210  0.94730  0.97290  Biso   1.000  H
  C47      1.0000 0.05610  0.80930  0.59700  Biso   1.000  C
  C48      1.0000 0.94390  0.19070  0.40300  Biso   1.000  C
  H47      1.0000 0.15370  0.82040  0.59780  Biso   1.000  H
  H48      1.0000 0.84630  0.17960  0.40220  Biso   1.000  H
  C49      1.0000 0.18210  0.18560  0.61560  Biso   1.000  C
  C50      1.0000 0.81790  0.81440  0.38440  Biso   1.000  C
  H49      1.0000 0.16750  0.13660  0.59600  Biso   1.000  H
  H50      1.0000 0.83250  0.86340  0.40400  Biso   1.000  H
  C51      1.0000 0.06570  0.26300  0.60560  Biso   1.000  C
  C52      1.0000 0.93430  0.73700  0.39440  Biso   1.000  C
  H51      1.0000 0.97620  0.26700  0.57850  Biso   1.000  H
  H52      1.0000 0.02380  0.73300  0.42150  Biso   1.000  H
  C53      1.0000 0.54690  0.12030  0.16130  Biso   1.000  C
  C54      1.0000 0.45310  0.87970  0.83870  Biso   1.000  C
  H53      1.0000 0.60540  0.13690  0.19580  Biso   1.000  H
  H54      1.0000 0.39460  0.86310  0.80420  Biso   1.000  H
  O1       1.0000 0.11950  0.85310  0.00450  Biso   1.000  O
  O2       1.0000 0.88050  0.14690  0.99550  Biso   1.000  O
  C55      1.0000 0.08390  0.88520  0.93420  Biso   1.000  C
  C56      1.0000 0.91610  0.11480  0.06580  Biso   1.000  C
  N7       1.0000 0.08400  0.97100  0.86550  Biso   1.000  N
  N8       1.0000 0.91600  0.02900  0.13450  Biso   1.000  N
  C57      1.0000 0.13640  0.05140  0.87940  Biso   1.000  C
  C58      1.0000 0.86360  0.94860  0.12060  Biso   1.000  C
  H55      1.0000 0.05620  0.10800  0.86730  Biso   1.000  H
  H56      1.0000 0.94380  0.89200  0.13270  Biso   1.000  H
  H57      1.0000 0.21630  0.07340  0.84250  Biso   1.000  H
  H58      1.0000 0.78370  0.92660  0.15750  Biso   1.000  H
  H59      1.0000 0.17170  0.02670  0.93780  Biso   1.000  H
  H60      1.0000 0.82830  0.97330  0.06220  Biso   1.000  H
  C59      1.0000 0.99310  0.87560  0.80750  Biso   1.000  C
  C60      1.0000 0.00690  0.12440  0.19250  Biso   1.000  C
  H61      1.0000 0.88940  0.88310  0.79080  Biso   1.000  H
  H62      1.0000 0.11060  0.11690  0.20920  Biso   1.000  H
  H63      1.0000 0.05500  0.84280  0.77600  Biso   1.000  H
  H64      1.0000 0.94500  0.15720  0.22400  Biso   1.000  H
  C61      1.0000 0.03920  0.98970  0.78970  Biso   1.000  C
  C62      1.0000 0.96080  0.01030  0.21030  Biso   1.000  C
  H65      1.0000 0.03380  0.04870  0.73980  Biso   1.000  H
  H66      1.0000 0.96620  0.95130  0.26020  Biso   1.000  H
  C63      1.0000 0.01780  0.82020  0.89360  Biso   1.000  C
  C64      1.0000 0.98220  0.17980  0.10640  Biso   1.000  C
  H67      1.0000 0.08710  0.75750  0.90430  Biso   1.000  H
  H68      1.0000 0.91290  0.24250  0.09570  Biso   1.000  H
  H69      1.0000 0.92490  0.80220  0.91950  Biso   1.000  H
  H70      1.0000 0.07510  0.19780  0.08050  Biso   1.000  H
  N9       1.0000 0.15480  0.51360  0.11340  Biso   1.000  N
  N10      1.0000 0.84520  0.48640  0.88660  Biso   1.000  N
  O3       1.0000 0.27440  0.59320  0.98900  Biso   1.000  O
  O4       1.0000 0.72560  0.40680  0.01100  Biso   1.000  O
  C65      1.0000 0.25850  0.51140  0.05230  Biso   1.000  C
  C66      1.0000 0.74150  0.48860  0.94770  Biso   1.000  C
  C67      1.0000 0.33850  0.41290  0.07390  Biso   1.000  C
  C68      1.0000 0.66150  0.58710  0.92610  Biso   1.000  C
  H71      1.0000 0.44450  0.41390  0.06760  Biso   1.000  H
  H72      1.0000 0.55550  0.58610  0.93240  Biso   1.000  H
  H73      1.0000 0.30480  0.38150  0.03880  Biso   1.000  H
  H74      1.0000 0.69520  0.61850  0.96120  Biso   1.000  H
  C69      1.0000 0.04980  0.60000  0.10980  Biso   1.000  C
  C70      1.0000 0.95020  0.40000  0.89020  Biso   1.000  C
  H75      1.0000 0.09300  0.66090  0.08310  Biso   1.000  H
  H76      1.0000 0.90700  0.33910  0.91690  Biso   1.000  H
  H77      1.0000 0.02370  0.59160  0.16650  Biso   1.000  H
  H78      1.0000 0.97630  0.40840  0.83350  Biso   1.000  H
  H79      1.0000 0.96190  0.60590  0.07720  Biso   1.000  H
  H80      1.0000 0.03810  0.39410  0.92280  Biso   1.000  H
  C71      1.0000 0.15630  0.42010  0.17670  Biso   1.000  C
  C72      1.0000 0.84370  0.57990  0.82330  Biso   1.000  C
  H81      1.0000 0.08380  0.39940  0.21630  Biso   1.000  H
  H82      1.0000 0.91620  0.60060  0.78370  Biso   1.000  H
  C73      1.0000 0.30300  0.35520  0.16960  Biso   1.000  C
  C74      1.0000 0.69700  0.64480  0.83040  Biso   1.000  C
  H83      1.0000 0.29030  0.28560  0.18210  Biso   1.000  H
  H84      1.0000 0.70970  0.71440  0.81790  Biso   1.000  H
  H85      1.0000 0.38100  0.35400  0.20770  Biso   1.000  H
  H86      1.0000 0.61900  0.64600  0.79230  Biso   1.000  H
