data_image0
_cell_length_a       9.353
_cell_length_b       14.189
_cell_length_c       17.257
_cell_angle_alpha    113.336
_cell_angle_beta     94.402
_cell_angle_gamma    100.137

_symmetry_space_group_name_H-M    "P 1"
_symmetry_int_tables_number       1

loop_
  _symmetry_equiv_pos_as_xyz
  'x, y, z'

loop_
  _atom_site_label
  _atom_site_occupancy
  _atom_site_fract_x
  _atom_site_fract_y
  _atom_site_fract_z
  _atom_site_thermal_displace_type
  _atom_site_B_iso_or_equiv
  _atom_site_type_symbol
  I1       1.0000 0.58764  0.40937  0.38573  Biso   1.000  I
  I2       1.0000 0.41236  0.59063  0.61427  Biso   1.000  I
  Cu1      1.0000 0.36664  0.49336  0.44140  Biso   1.000  Cu
  Cu2      1.0000 0.63336  0.50664  0.55860  Biso   1.000  Cu
  Cu3      1.0000 0.49520  0.53638  0.32380  Biso   1.000  Cu
  Cu4      1.0000 0.50480  0.46362  0.67620  Biso   1.000  Cu
  I3       1.0000 0.27432  0.61702  0.37968  Biso   1.000  I
  I4       1.0000 0.72568  0.38298  0.62032  Biso   1.000  I
  N1       1.0000 0.19650  0.37160  0.42330  Biso   1.000  N
  N2       1.0000 0.80350  0.62840  0.57670  Biso   1.000  N
  N3       1.0000 0.54650  0.55550  0.80520  Biso   1.000  N
  N4       1.0000 0.45350  0.44450  0.19480  Biso   1.000  N
  N5       1.0000 0.66520  0.66010  0.34380  Biso   1.000  N
  N6       1.0000 0.33480  0.33990  0.65620  Biso   1.000  N
  C1       1.0000 0.21770  0.28020  0.42270  Biso   1.000  C
  C2       1.0000 0.78230  0.71980  0.57730  Biso   1.000  C
  C3       1.0000 0.05760  0.38360  0.42140  Biso   1.000  C
  C4       1.0000 0.94240  0.61640  0.57860  Biso   1.000  C
  C5       1.0000 0.10480  0.20030  0.41990  Biso   1.000  C
  C6       1.0000 0.89520  0.79970  0.58010  Biso   1.000  C
  H1       1.0000 0.31310  0.26980  0.42420  Biso   1.000  H
  H2       1.0000 0.68690  0.73020  0.57580  Biso   1.000  H
  H3       1.0000 0.04000  0.44590  0.42080  Biso   1.000  H
  H4       1.0000 0.96000  0.55410  0.57920  Biso   1.000  H
  C7       1.0000 0.93960  0.31010  0.42020  Biso   1.000  C
  C8       1.0000 0.06040  0.68990  0.57980  Biso   1.000  C
  C9       1.0000 0.96240  0.21520  0.41910  Biso   1.000  C
  C10      1.0000 0.03760  0.78480  0.58090  Biso   1.000  C
  H5       1.0000 0.12460  0.13770  0.41860  Biso   1.000  H
  H6       1.0000 0.87540  0.86230  0.58140  Biso   1.000  H
  H7       1.0000 0.84580  0.32340  0.42020  Biso   1.000  H
  H8       1.0000 0.15420  0.67660  0.57980  Biso   1.000  H
  S1       1.0000 0.82046  0.11297  0.41557  Biso   1.000  S
  S2       1.0000 0.17954  0.88703  0.58443  Biso   1.000  S
  C11      1.0000 0.65350  0.14430  0.37980  Biso   1.000  C
  C12      1.0000 0.34650  0.85570  0.62020  Biso   1.000  C
  H9       1.0000 0.61520  0.18870  0.42860  Biso   1.000  H
  H10      1.0000 0.38480  0.81130  0.57140  Biso   1.000  H
  H11      1.0000 0.67480  0.18170  0.34410  Biso   1.000  H
  H12      1.0000 0.32520  0.81830  0.65590  Biso   1.000  H
  C13      1.0000 0.54230  0.04200  0.32960  Biso   1.000  C
  C14      1.0000 0.45770  0.95800  0.67040  Biso   1.000  C
  C15      1.0000 0.55080  0.97970  0.24420  Biso   1.000  C
  C16      1.0000 0.44920  0.02030  0.75580  Biso   1.000  C
  C17      1.0000 0.43020  0.00920  0.36900  Biso   1.000  C
  C18      1.0000 0.56980  0.99080  0.63100  Biso   1.000  C
  C19      1.0000 0.45160  0.88580  0.19580  Biso   1.000  C
  C20      1.0000 0.54840  0.11420  0.80420  Biso   1.000  C
  C21      1.0000 0.67800  0.01870  0.20180  Biso   1.000  C
  C22      1.0000 0.32200  0.98130  0.79820  Biso   1.000  C
  C23      1.0000 0.33020  0.90900  0.31990  Biso   1.000  C
  C24      1.0000 0.66980  0.09100  0.68010  Biso   1.000  C
  C25      1.0000 0.41680  0.07770  0.46030  Biso   1.000  C
  C26      1.0000 0.58320  0.92230  0.53970  Biso   1.000  C
  C27      1.0000 0.45770  0.82580  0.10340  Biso   1.000  C
  C28      1.0000 0.54230  0.17420  0.89660  Biso   1.000  C
  C29      1.0000 0.33920  0.84920  0.23500  Biso   1.000  C
  C30      1.0000 0.66080  0.15080  0.76500  Biso   1.000  C
  H13      1.0000 0.64180  0.05440  0.17010  Biso   1.000  H
  H14      1.0000 0.35820  0.94560  0.82990  Biso   1.000  H
  H15      1.0000 0.71110  0.95930  0.16390  Biso   1.000  H
  H16      1.0000 0.28890  0.04070  0.83610  Biso   1.000  H
  H17      1.0000 0.75840  0.06620  0.24550  Biso   1.000  H
  H18      1.0000 0.24160  0.93380  0.75450  Biso   1.000  H
  C31      1.0000 0.21280  0.86960  0.36340  Biso   1.000  C
  C32      1.0000 0.78720  0.13040  0.63660  Biso   1.000  C
  H19      1.0000 0.32360  0.05160  0.47280  Biso   1.000  H
  H20      1.0000 0.67640  0.94840  0.52720  Biso   1.000  H
  H21      1.0000 0.42350  0.14890  0.46700  Biso   1.000  H
  H22      1.0000 0.57650  0.85110  0.53300  Biso   1.000  H
  H23      1.0000 0.49480  0.07590  0.49890  Biso   1.000  H
  H24      1.0000 0.50520  0.92410  0.50110  Biso   1.000  H
  S3       1.0000 0.56900  0.72911  0.09373  Biso   1.000  S
  S4       1.0000 0.43100  0.27089  0.90627  Biso   1.000  S
  H25      1.0000 0.50110  0.87370  0.07970  Biso   1.000  H
  H26      1.0000 0.49890  0.12630  0.92030  Biso   1.000  H
  H27      1.0000 0.35910  0.79040  0.07200  Biso   1.000  H
  H28      1.0000 0.64090  0.20960  0.92800  Biso   1.000  H
  C33      1.0000 0.23170  0.74490  0.18550  Biso   1.000  C
  C34      1.0000 0.76830  0.25510  0.81450  Biso   1.000  C
  S5       1.0000 0.04344  0.90952  0.33984  Biso   1.000  S
  S6       1.0000 0.95656  0.09048  0.66016  Biso   1.000  S
  H29      1.0000 0.24560  0.89980  0.42470  Biso   1.000  H
  H30      1.0000 0.75440  0.10020  0.57530  Biso   1.000  H
  H31      1.0000 0.19440  0.79350  0.34200  Biso   1.000  H
  H32      1.0000 0.80560  0.20650  0.65800  Biso   1.000  H
  C35      1.0000 0.55760  0.66540  0.98400  Biso   1.000  C
  C36      1.0000 0.44240  0.33460  0.01600  Biso   1.000  C
  H33      1.0000 0.24270  0.69810  0.21210  Biso   1.000  H
  H34      1.0000 0.75730  0.30190  0.78790  Biso   1.000  H
  H35      1.0000 0.25080  0.71470  0.12790  Biso   1.000  H
  H36      1.0000 0.74920  0.28530  0.87210  Biso   1.000  H
  H37      1.0000 0.13310  0.75550  0.18500  Biso   1.000  H
  H38      1.0000 0.86690  0.24450  0.81500  Biso   1.000  H
  C37      1.0000 0.90210  0.81390  0.34560  Biso   1.000  C
  C38      1.0000 0.09790  0.18610  0.65440  Biso   1.000  C
  C39      1.0000 0.60920  0.57400  0.94770  Biso   1.000  C
  C40      1.0000 0.39080  0.42600  0.05230  Biso   1.000  C
  C41      1.0000 0.49920  0.70210  0.92490  Biso   1.000  C
  C42      1.0000 0.50080  0.29790  0.07510  Biso   1.000  C
  C43      1.0000 0.75780  0.81670  0.32470  Biso   1.000  C
  C44      1.0000 0.24220  0.18330  0.67530  Biso   1.000  C
  C45      1.0000 0.92690  0.73620  0.36870  Biso   1.000  C
  C46      1.0000 0.07310  0.26380  0.63130  Biso   1.000  C
  C47      1.0000 0.60090  0.52210  0.86110  Biso   1.000  C
  C48      1.0000 0.39910  0.47790  0.13890  Biso   1.000  C
  H39      1.0000 0.65040  0.54740  0.98320  Biso   1.000  H
  H40      1.0000 0.34960  0.45260  0.01680  Biso   1.000  H
  C49      1.0000 0.50120  0.64460  0.83820  Biso   1.000  C
  C50      1.0000 0.49880  0.35540  0.16180  Biso   1.000  C
  H41      1.0000 0.46120  0.76220  0.94360  Biso   1.000  H
  H42      1.0000 0.53880  0.23780  0.05640  Biso   1.000  H
  H43      1.0000 0.73670  0.87040  0.31100  Biso   1.000  H
  H44      1.0000 0.26330  0.12960  0.68900  Biso   1.000  H
  C51      1.0000 0.64650  0.74020  0.32440  Biso   1.000  C
  C52      1.0000 0.35350  0.25980  0.67560  Biso   1.000  C
  C53      1.0000 0.80550  0.66050  0.36660  Biso   1.000  C
  C54      1.0000 0.19450  0.33950  0.63340  Biso   1.000  C
  H45      1.0000 0.02230  0.73320  0.38540  Biso   1.000  H
  H46      1.0000 0.97770  0.26680  0.61460  Biso   1.000  H
  H47      1.0000 0.63490  0.46040  0.84000  Biso   1.000  H
  H48      1.0000 0.36510  0.53960  0.16000  Biso   1.000  H
  H49      1.0000 0.46810  0.67100  0.80040  Biso   1.000  H
  H50      1.0000 0.53190  0.32900  0.19960  Biso   1.000  H
  H51      1.0000 0.55050  0.74380  0.30960  Biso   1.000  H
  H52      1.0000 0.44950  0.25620  0.69040  Biso   1.000  H
  H53      1.0000 0.82390  0.60740  0.38200  Biso   1.000  H
  H54      1.0000 0.17610  0.39260  0.61800  Biso   1.000  H
  S7       1.0000 0.96580  0.38400  0.10760  Biso   1.000  S
  S8       1.0000 0.03420  0.61600  0.89240  Biso   1.000  S
  O1       1.0000 0.85600  0.28800  0.03710  Biso   1.000  O
  O2       1.0000 0.14400  0.71200  0.96290  Biso   1.000  O
  C55      1.0000 0.90200  0.38300  0.19730  Biso   1.000  C
  C56      1.0000 0.09800  0.61700  0.80270  Biso   1.000  C
  H55      1.0000 0.93440  0.33000  0.21080  Biso   1.000  H
  H56      1.0000 0.06560  0.67000  0.78920  Biso   1.000  H
  H57      1.0000 0.79600  0.36750  0.18730  Biso   1.000  H
  H58      1.0000 0.20400  0.63250  0.81270  Biso   1.000  H
  H59      1.0000 0.93840  0.45070  0.24420  Biso   1.000  H
  H60      1.0000 0.06160  0.54930  0.75580  Biso   1.000  H
  C57      1.0000 0.88900  0.47270  0.10280  Biso   1.000  C
  C58      1.0000 0.11100  0.52730  0.89720  Biso   1.000  C
  H61      1.0000 0.91240  0.48640  0.05460  Biso   1.000  H
  H62      1.0000 0.08760  0.51360  0.94540  Biso   1.000  H
  H63      1.0000 0.92290  0.53600  0.15430  Biso   1.000  H
  H64      1.0000 0.07710  0.46400  0.84570  Biso   1.000  H
  H65      1.0000 0.78400  0.44950  0.09660  Biso   1.000  H
  H66      1.0000 0.21600  0.55050  0.90340  Biso   1.000  H
  S9       1.0000 0.07280  0.05370  0.17230  Biso   1.000  S
  S10      1.0000 0.92720  0.94630  0.82770  Biso   1.000  S
  C59      1.0000 0.26050  0.10710  0.19530  Biso   1.000  C
  C60      1.0000 0.73950  0.89290  0.80470  Biso   1.000  C
  H67      1.0000 0.36430  0.13580  0.20400  Biso   1.000  H
  H68      1.0000 0.63570  0.86420  0.79600  Biso   1.000  H
  H69      1.0000 0.24390  0.04920  0.21150  Biso   1.000  H
  H70      1.0000 0.75610  0.95080  0.78850  Biso   1.000  H
  H71      1.0000 0.21350  0.16060  0.22970  Biso   1.000  H
  H72      1.0000 0.78650  0.83940  0.77030  Biso   1.000  H
  O3       1.0000 0.01680  0.12220  0.13760  Biso   1.000  O
  O4       1.0000 0.98320  0.87780  0.86240  Biso   1.000  O
  C61      1.0000 0.05500  0.92770  0.09980  Biso   1.000  C
  C62      1.0000 0.94500  0.07230  0.90020  Biso   1.000  C
  H73      1.0000 0.99080  0.88570  0.04630  Biso   1.000  H
  H74      1.0000 0.00920  0.11430  0.95370  Biso   1.000  H
  H75      1.0000 0.11730  0.88660  0.11190  Biso   1.000  H
  H76      1.0000 0.88270  0.11340  0.88810  Biso   1.000  H
  S11      1.0000 0.19100  0.06500  0.09240  Biso   1.000  S
  S12      1.0000 0.80900  0.93500  0.90760  Biso   1.000  S
  H77      1.0000 0.99720  0.95060  0.14460  Biso   1.000  H
  H78      1.0000 0.00280  0.04940  0.85540  Biso   1.000  H
