data_image0
_cell_length_a       9.4203
_cell_length_b       14.3226
_cell_length_c       17.3309
_cell_angle_alpha    65.977
_cell_angle_beta     77.856
_cell_angle_gamma    79.467

_symmetry_space_group_name_H-M    "P 1"
_symmetry_int_tables_number       1

loop_
  _symmetry_equiv_pos_as_xyz
  'x, y, z'

loop_
  _atom_site_label
  _atom_site_occupancy
  _atom_site_fract_x
  _atom_site_fract_y
  _atom_site_fract_z
  _atom_site_thermal_displace_type
  _atom_site_B_iso_or_equiv
  _atom_site_type_symbol
  I1       1.0000 0.58440  0.97788  0.11588  Biso   1.000  I
  I2       1.0000 0.41560  0.02212  0.88412  Biso   1.000  I
  Cu1      1.0000 0.36738  0.95069  0.05612  Biso   1.000  Cu
  Cu2      1.0000 0.63262  0.04931  0.94388  Biso   1.000  Cu
  Cu3      1.0000 0.50323  0.79130  0.17095  Biso   1.000  Cu
  Cu4      1.0000 0.49677  0.20870  0.82905  Biso   1.000  Cu
  N1       1.0000 0.19440  0.05220  0.07480  Biso   1.000  N
  N2       1.0000 0.80560  0.94780  0.92520  Biso   1.000  N
  I3       1.0000 0.27950  0.76774  0.11832  Biso   1.000  I
  I4       1.0000 0.72050  0.23226  0.88168  Biso   1.000  I
  N3       1.0000 0.47780  0.74540  0.30190  Biso   1.000  N
  N4       1.0000 0.52220  0.25460  0.69810  Biso   1.000  N
  N5       1.0000 0.67530  0.68950  0.14950  Biso   1.000  N
  N6       1.0000 0.32470  0.31050  0.85050  Biso   1.000  N
  C1       1.0000 0.05830  0.03580  0.07880  Biso   1.000  C
  C2       1.0000 0.94170  0.96420  0.92120  Biso   1.000  C
  C3       1.0000 0.21480  0.14270  0.07540  Biso   1.000  C
  C4       1.0000 0.78520  0.85730  0.92460  Biso   1.000  C
  C5       1.0000 0.93720  0.10740  0.08420  Biso   1.000  C
  C6       1.0000 0.06280  0.89260  0.91580  Biso   1.000  C
  H1       1.0000 0.04220  0.97260  0.07790  Biso   1.000  H
  H2       1.0000 0.95780  0.02740  0.92210  Biso   1.000  H
  H3       1.0000 0.31150  0.15590  0.07240  Biso   1.000  H
  H4       1.0000 0.68850  0.84410  0.92760  Biso   1.000  H
  C7       1.0000 0.10130  0.21670  0.08030  Biso   1.000  C
  C8       1.0000 0.89870  0.78330  0.91970  Biso   1.000  C
  H5       1.0000 0.84130  0.09300  0.08690  Biso   1.000  H
  H6       1.0000 0.15870  0.90700  0.91310  Biso   1.000  H
  C9       1.0000 0.96030  0.19920  0.08540  Biso   1.000  C
  C10      1.0000 0.03970  0.80080  0.91460  Biso   1.000  C
  H7       1.0000 0.12040  0.27960  0.08020  Biso   1.000  H
  H8       1.0000 0.87960  0.72040  0.91980  Biso   1.000  H
  S1       1.0000 0.81900  0.29540  0.09365  Biso   1.000  S
  S2       1.0000 0.18100  0.70460  0.90635  Biso   1.000  S
  C11      1.0000 0.65370  0.22930  0.12930  Biso   1.000  C
  C12      1.0000 0.34630  0.77070  0.87070  Biso   1.000  C
  C13      1.0000 0.54160  0.28920  0.17370  Biso   1.000  C
  C14      1.0000 0.45840  0.71080  0.82630  Biso   1.000  C
  H9       1.0000 0.61760  0.22870  0.07980  Biso   1.000  H
  H10      1.0000 0.38240  0.77130  0.92020  Biso   1.000  H
  H11      1.0000 0.67410  0.15740  0.16920  Biso   1.000  H
  H12      1.0000 0.32590  0.84260  0.83080  Biso   1.000  H
  C15      1.0000 0.43450  0.36060  0.12870  Biso   1.000  C
  C16      1.0000 0.56550  0.63940  0.87130  Biso   1.000  C
  C17      1.0000 0.54450  0.27140  0.25690  Biso   1.000  C
  C18      1.0000 0.45550  0.72860  0.74310  Biso   1.000  C
  C19      1.0000 0.33490  0.41730  0.16920  Biso   1.000  C
  C20      1.0000 0.66510  0.58270  0.83080  Biso   1.000  C
  C21      1.0000 0.42440  0.37800  0.03740  Biso   1.000  C
  C22      1.0000 0.57560  0.62200  0.96260  Biso   1.000  C
  C23      1.0000 0.43610  0.32420  0.29920  Biso   1.000  C
  C24      1.0000 0.56390  0.67580  0.70080  Biso   1.000  C
  C25      1.0000 0.65970  0.19040  0.30570  Biso   1.000  C
  C26      1.0000 0.34030  0.80960  0.69430  Biso   1.000  C
  C27      1.0000 0.22150  0.49880  0.12550  Biso   1.000  C
  C28      1.0000 0.77850  0.50120  0.87450  Biso   1.000  C
  C29      1.0000 0.33680  0.40170  0.25500  Biso   1.000  C
  C30      1.0000 0.66320  0.59830  0.74500  Biso   1.000  C
  H13      1.0000 0.39600  0.31610  0.03630  Biso   1.000  H
  H14      1.0000 0.60400  0.68390  0.96370  Biso   1.000  H
  H15      1.0000 0.51960  0.39290  0.00180  Biso   1.000  H
  H16      1.0000 0.48040  0.60710  0.99820  Biso   1.000  H
  H17      1.0000 0.35110  0.43630  0.01530  Biso   1.000  H
  H18      1.0000 0.64890  0.56370  0.98470  Biso   1.000  H
  C31      1.0000 0.43120  0.29390  0.39370  Biso   1.000  C
  C32      1.0000 0.56880  0.70610  0.60630  Biso   1.000  C
  H19      1.0000 0.62660  0.12200  0.32740  Biso   1.000  H
  H20      1.0000 0.37340  0.87800  0.67260  Biso   1.000  H
  H21      1.0000 0.67350  0.20570  0.35370  Biso   1.000  H
  H22      1.0000 0.32650  0.79430  0.64630  Biso   1.000  H
  H23      1.0000 0.75250  0.19200  0.26710  Biso   1.000  H
  H24      1.0000 0.24750  0.80800  0.73290  Biso   1.000  H
  S3       1.0000 0.05110  0.44070  0.14790  Biso   1.000  S
  S4       1.0000 0.94890  0.55930  0.85210  Biso   1.000  S
  H25      1.0000 0.25500  0.52790  0.06310  Biso   1.000  H
  H26      1.0000 0.74500  0.47210  0.93690  Biso   1.000  H
  H27      1.0000 0.20480  0.55500  0.14670  Biso   1.000  H
  H28      1.0000 0.79520  0.44500  0.85330  Biso   1.000  H
  C33      1.0000 0.22660  0.46290  0.29940  Biso   1.000  C
  C34      1.0000 0.77340  0.53710  0.70060  Biso   1.000  C
  S5       1.0000 0.53880  0.37650  0.40930  Biso   1.000  S
  S6       1.0000 0.46120  0.62350  0.59070  Biso   1.000  S
  H29      1.0000 0.47140  0.22110  0.42000  Biso   1.000  H
  H30      1.0000 0.52860  0.77890  0.58000  Biso   1.000  H
  H31      1.0000 0.32890  0.30170  0.42140  Biso   1.000  H
  H32      1.0000 0.67110  0.69830  0.57860  Biso   1.000  H
  C35      1.0000 0.91120  0.54170  0.14510  Biso   1.000  C
  C36      1.0000 0.08880  0.45830  0.85490  Biso   1.000  C
  H33      1.0000 0.24670  0.53490  0.27410  Biso   1.000  H
  H34      1.0000 0.75330  0.46510  0.72590  Biso   1.000  H
  H35      1.0000 0.23450  0.43430  0.36040  Biso   1.000  H
  H36      1.0000 0.76550  0.56570  0.63960  Biso   1.000  H
  H37      1.0000 0.12780  0.45880  0.29230  Biso   1.000  H
  H38      1.0000 0.87220  0.54120  0.70770  Biso   1.000  H
  C37      1.0000 0.52740  0.32690  0.52130  Biso   1.000  C
  C38      1.0000 0.47260  0.67310  0.47870  Biso   1.000  C
  C39      1.0000 0.76760  0.51690  0.16560  Biso   1.000  C
  C40      1.0000 0.23240  0.48310  0.83440  Biso   1.000  C
  C41      1.0000 0.93500  0.64000  0.12700  Biso   1.000  C
  C42      1.0000 0.06500  0.36000  0.87300  Biso   1.000  C
  C43      1.0000 0.44700  0.24800  0.57610  Biso   1.000  C
  C44      1.0000 0.55300  0.75200  0.42390  Biso   1.000  C
  C45      1.0000 0.59600  0.37020  0.55670  Biso   1.000  C
  C46      1.0000 0.40400  0.62980  0.44330  Biso   1.000  C
  H39      1.0000 0.74780  0.44890  0.17870  Biso   1.000  H
  H40      1.0000 0.25220  0.55110  0.82130  Biso   1.000  H
  C47      1.0000 0.65630  0.59270  0.16650  Biso   1.000  C
  C48      1.0000 0.34370  0.40730  0.83350  Biso   1.000  C
  H41      1.0000 0.03150  0.65920  0.11170  Biso   1.000  H
  H42      1.0000 0.96850  0.34080  0.88830  Biso   1.000  H
  C49      1.0000 0.81450  0.71190  0.13140  Biso   1.000  C
  C50      1.0000 0.18550  0.28810  0.86860  Biso   1.000  C
  H43      1.0000 0.39310  0.21650  0.55470  Biso   1.000  H
  H44      1.0000 0.60690  0.78350  0.44530  Biso   1.000  H
  C51      1.0000 0.44700  0.21510  0.66350  Biso   1.000  C
  C52      1.0000 0.55300  0.78490  0.33650  Biso   1.000  C
  C53      1.0000 0.59500  0.32770  0.64570  Biso   1.000  C
  C54      1.0000 0.40500  0.67230  0.35430  Biso   1.000  C
  H45      1.0000 0.64490  0.42930  0.52180  Biso   1.000  H
  H46      1.0000 0.35510  0.57070  0.47820  Biso   1.000  H
  H47      1.0000 0.55900  0.57530  0.18010  Biso   1.000  H
  H48      1.0000 0.44100  0.42470  0.81990  Biso   1.000  H
  H49      1.0000 0.83150  0.77960  0.12110  Biso   1.000  H
  H50      1.0000 0.16850  0.22040  0.87890  Biso   1.000  H
  H51      1.0000 0.38900  0.16150  0.70090  Biso   1.000  H
  H52      1.0000 0.61100  0.83850  0.29910  Biso   1.000  H
  H53      1.0000 0.65350  0.35540  0.66820  Biso   1.000  H
  H54      1.0000 0.34650  0.64460  0.33180  Biso   1.000  H
  C55      1.0000 0.20300  0.15100  0.30000  Biso   1.000  C
  C56      1.0000 0.79700  0.84900  0.70000  Biso   1.000  C
  C57      1.0000 0.29800  0.07200  0.28400  Biso   1.000  C
  C58      1.0000 0.70200  0.92800  0.71600  Biso   1.000  C
  C59      1.0000 0.23900  0.98600  0.28700  Biso   1.000  C
  C60      1.0000 0.76100  0.01400  0.71300  Biso   1.000  C
  C61      1.0000 0.05200  0.14500  0.31900  Biso   1.000  C
  C62      1.0000 0.94800  0.85500  0.68100  Biso   1.000  C
  C63      1.0000 0.99500  0.05600  0.33000  Biso   1.000  C
  C64      1.0000 0.00500  0.94400  0.67000  Biso   1.000  C
  C65      1.0000 0.08800  0.97800  0.31000  Biso   1.000  C
  C66      1.0000 0.91200  0.02200  0.69000  Biso   1.000  C
  C67      1.0000 0.05300  0.87930  0.30980  Biso   1.000  C
  C68      1.0000 0.94700  0.12070  0.69020  Biso   1.000  C
  O1       1.0000 0.93700  0.87890  0.30630  Biso   1.000  O
  O2       1.0000 0.06300  0.12110  0.69370  Biso   1.000  O
  C69      1.0000 0.86000  0.52230  0.38560  Biso   1.000  C
  C70      1.0000 0.14000  0.47770  0.61440  Biso   1.000  C
  C71      1.0000 0.98300  0.54900  0.47500  Biso   1.000  C
  C72      1.0000 0.01700  0.45100  0.52500  Biso   1.000  C
  C73      1.0000 0.90700  0.58800  0.40380  Biso   1.000  C
  C74      1.0000 0.09300  0.41200  0.59620  Biso   1.000  C
  C75      1.0000 0.03100  0.61900  0.49700  Biso   1.000  C
  C76      1.0000 0.96900  0.38100  0.50300  Biso   1.000  C
  C77      1.0000 0.10600  0.57300  0.57600  Biso   1.000  C
  C78      1.0000 0.89400  0.42700  0.42400  Biso   1.000  C
  O3       1.0000 0.62200  0.96200  0.49100  Biso   1.000  O
  O4       1.0000 0.37800  0.03800  0.50900  Biso   1.000  O
  O5       1.0000 0.78800  0.94000  0.55900  Biso   1.000  O
  O6       1.0000 0.21200  0.06000  0.44100  Biso   1.000  O
  C79      1.0000 0.86700  0.92380  0.42830  Biso   1.000  C
  C80      1.0000 0.13300  0.07620  0.57170  Biso   1.000  C
  C81      1.0000 0.01500  0.90800  0.43630  Biso   1.000  C
  C82      1.0000 0.98500  0.09200  0.56370  Biso   1.000  C
  C83      1.0000 0.75500  0.96000  0.48800  Biso   1.000  C
  C84      1.0000 0.24500  0.04000  0.51200  Biso   1.000  C
  C85      1.0000 0.82800  0.91800  0.35700  Biso   1.000  C
  C86      1.0000 0.17200  0.08200  0.64300  Biso   1.000  C
  C87      1.0000 0.11700  0.88400  0.37390  Biso   1.000  C
  C88      1.0000 0.88300  0.11600  0.62610  Biso   1.000  C
