data_image0
_cell_length_a       21.4407
_cell_length_b       24.779
_cell_length_c       9.2166
_cell_angle_alpha    90
_cell_angle_beta     90
_cell_angle_gamma    90

_symmetry_space_group_name_H-M    "P 1"
_symmetry_int_tables_number       1

loop_
  _symmetry_equiv_pos_as_xyz
  'x, y, z'

loop_
  _atom_site_label
  _atom_site_occupancy
  _atom_site_fract_x
  _atom_site_fract_y
  _atom_site_fract_z
  _atom_site_thermal_displace_type
  _atom_site_B_iso_or_equiv
  _atom_site_type_symbol
  Br1      1.0000 0.81527  0.92629  0.00030  Biso   1.000  Br
  Br2      1.0000 0.68473  0.07371  0.50030  Biso   1.000  Br
  Br3      1.0000 0.31527  0.57371  0.99970  Biso   1.000  Br
  Br4      1.0000 0.18473  0.42629  0.49970  Biso   1.000  Br
  Br5      1.0000 0.79126  0.31907  0.17560  Biso   1.000  Br
  Br6      1.0000 0.70874  0.68093  0.67560  Biso   1.000  Br
  Br7      1.0000 0.29126  0.18093  0.82440  Biso   1.000  Br
  Br8      1.0000 0.20874  0.81907  0.32440  Biso   1.000  Br
  Br9      1.0000 0.96627  0.33435  0.05980  Biso   1.000  Br
  Br10     1.0000 0.53373  0.66565  0.55980  Biso   1.000  Br
  Br11     1.0000 0.46627  0.16565  0.94020  Biso   1.000  Br
  Br12     1.0000 0.03373  0.83435  0.44020  Biso   1.000  Br
  Br13     1.0000 0.84119  0.35583  0.76100  Biso   1.000  Br
  Br14     1.0000 0.65881  0.64417  0.26100  Biso   1.000  Br
  Br15     1.0000 0.34119  0.14417  0.23900  Biso   1.000  Br
  Br16     1.0000 0.15881  0.85583  0.73900  Biso   1.000  Br
  Cu1      1.0000 0.86944  0.38243  0.06670  Biso   1.000  Cu
  Cu2      1.0000 0.63056  0.61757  0.56670  Biso   1.000  Cu
  Cu3      1.0000 0.36944  0.11757  0.93330  Biso   1.000  Cu
  Cu4      1.0000 0.13056  0.88243  0.43330  Biso   1.000  Cu
  Cu5      1.0000 0.86264  0.29060  0.96160  Biso   1.000  Cu
  Cu6      1.0000 0.63736  0.70940  0.46160  Biso   1.000  Cu
  Cu7      1.0000 0.36264  0.20940  0.03840  Biso   1.000  Cu
  Cu8      1.0000 0.13736  0.79060  0.53840  Biso   1.000  Cu
  C1       1.0000 0.00640  0.01420  0.61500  Biso   1.000  C
  C2       1.0000 0.49360  0.98580  0.11500  Biso   1.000  C
  C3       1.0000 0.50640  0.48580  0.38500  Biso   1.000  C
  C4       1.0000 0.99360  0.51420  0.88500  Biso   1.000  C
  H1       1.0000 0.04810  0.03030  0.61810  Biso   1.000  H
  H2       1.0000 0.45190  0.96970  0.11810  Biso   1.000  H
  H3       1.0000 0.54810  0.46970  0.38190  Biso   1.000  H
  H4       1.0000 0.95190  0.53030  0.88190  Biso   1.000  H
  O1       1.0000 0.81680  0.60260  0.52960  Biso   1.000  O
  O2       1.0000 0.68320  0.39740  0.02960  Biso   1.000  O
  O3       1.0000 0.31680  0.89740  0.47040  Biso   1.000  O
  O4       1.0000 0.18320  0.10260  0.97040  Biso   1.000  O
  N1       1.0000 0.89650  0.97130  0.60820  Biso   1.000  N
  N2       1.0000 0.60350  0.02870  0.10820  Biso   1.000  N
  N3       1.0000 0.39650  0.52870  0.39180  Biso   1.000  N
  N4       1.0000 0.10350  0.47130  0.89180  Biso   1.000  N
  O5       1.0000 0.83210  0.06860  0.51500  Biso   1.000  O
  O6       1.0000 0.66790  0.93140  0.01500  Biso   1.000  O
  O7       1.0000 0.33210  0.43140  0.48500  Biso   1.000  O
  O8       1.0000 0.16790  0.56860  0.98500  Biso   1.000  O
  C5       1.0000 0.95630  0.05560  0.67200  Biso   1.000  C
  C6       1.0000 0.54370  0.94440  0.17200  Biso   1.000  C
  C7       1.0000 0.45630  0.44440  0.32800  Biso   1.000  C
  C8       1.0000 0.04370  0.55560  0.82800  Biso   1.000  C
  H5       1.0000 0.95070  0.08440  0.60140  Biso   1.000  H
  H6       1.0000 0.54930  0.91560  0.10140  Biso   1.000  H
  H7       1.0000 0.45070  0.41560  0.39860  Biso   1.000  H
  H8       1.0000 0.04930  0.58440  0.89860  Biso   1.000  H
  H9       1.0000 0.96980  0.07150  0.76260  Biso   1.000  H
  H10      1.0000 0.53020  0.92850  0.26260  Biso   1.000  H
  H11      1.0000 0.46980  0.42850  0.23740  Biso   1.000  H
  H12      1.0000 0.03020  0.57150  0.73740  Biso   1.000  H
  C9       1.0000 0.93940  0.93460  0.68700  Biso   1.000  C
  C10      1.0000 0.56060  0.06540  0.18700  Biso   1.000  C
  C11      1.0000 0.43940  0.56540  0.31300  Biso   1.000  C
  C12      1.0000 0.06060  0.43460  0.81300  Biso   1.000  C
  H13      1.0000 0.94730  0.90290  0.62810  Biso   1.000  H
  H14      1.0000 0.55270  0.09710  0.12810  Biso   1.000  H
  H15      1.0000 0.44730  0.59710  0.37190  Biso   1.000  H
  H16      1.0000 0.05270  0.40290  0.87190  Biso   1.000  H
  H17      1.0000 0.91980  0.92290  0.77650  Biso   1.000  H
  H18      1.0000 0.58020  0.07710  0.27650  Biso   1.000  H
  H19      1.0000 0.41980  0.57710  0.22350  Biso   1.000  H
  H20      1.0000 0.08020  0.42290  0.72350  Biso   1.000  H
  C13      1.0000 0.82570  0.78340  0.43800  Biso   1.000  C
  C14      1.0000 0.67430  0.21660  0.93800  Biso   1.000  C
  C15      1.0000 0.32570  0.71660  0.56200  Biso   1.000  C
  C16      1.0000 0.17430  0.28340  0.06200  Biso   1.000  C
  C17      1.0000 0.82210  0.60560  0.37900  Biso   1.000  C
  C18      1.0000 0.67790  0.39440  0.87900  Biso   1.000  C
  C19      1.0000 0.32210  0.89440  0.62100  Biso   1.000  C
  C20      1.0000 0.17790  0.10560  0.12100  Biso   1.000  C
  H21      1.0000 0.78440  0.62330  0.34300  Biso   1.000  H
  H22      1.0000 0.71560  0.37670  0.84300  Biso   1.000  H
  H23      1.0000 0.28440  0.87670  0.65700  Biso   1.000  H
  H24      1.0000 0.21560  0.12330  0.15700  Biso   1.000  H
  C21      1.0000 0.99050  0.69430  0.28200  Biso   1.000  C
  C22      1.0000 0.50950  0.30570  0.78200  Biso   1.000  C
  C23      1.0000 0.49050  0.80570  0.71800  Biso   1.000  C
  C24      1.0000 0.00950  0.19430  0.21800  Biso   1.000  C
  H25      1.0000 0.02540  0.71850  0.30370  Biso   1.000  H
  H26      1.0000 0.47460  0.28150  0.80370  Biso   1.000  H
  H27      1.0000 0.52540  0.78150  0.69630  Biso   1.000  H
  H28      1.0000 0.97460  0.21850  0.19630  Biso   1.000  H
  C25      1.0000 0.82780  0.89010  0.53880  Biso   1.000  C
  C26      1.0000 0.67220  0.10990  0.03880  Biso   1.000  C
  C27      1.0000 0.32780  0.60990  0.46120  Biso   1.000  C
  C28      1.0000 0.17220  0.39010  0.96120  Biso   1.000  C
  N5       1.0000 0.85450  0.21570  0.88600  Biso   1.000  N
  N6       1.0000 0.64550  0.78430  0.38600  Biso   1.000  N
  N7       1.0000 0.35450  0.28430  0.11400  Biso   1.000  N
  N8       1.0000 0.14550  0.71570  0.61400  Biso   1.000  N
  C29      1.0000 0.82760  0.87830  0.38620  Biso   1.000  C
  C30      1.0000 0.67240  0.12170  0.88620  Biso   1.000  C
  C31      1.0000 0.32760  0.62170  0.61380  Biso   1.000  C
  C32      1.0000 0.17240  0.37830  0.11380  Biso   1.000  C
  H29      1.0000 0.82850  0.90620  0.31870  Biso   1.000  H
  H30      1.0000 0.67150  0.09380  0.81870  Biso   1.000  H
  H31      1.0000 0.32850  0.59380  0.68130  Biso   1.000  H
  H32      1.0000 0.17150  0.40620  0.18130  Biso   1.000  H
  C33      1.0000 0.84280  0.11370  0.74120  Biso   1.000  C
  C34      1.0000 0.65720  0.88630  0.24120  Biso   1.000  C
  C35      1.0000 0.34280  0.38630  0.25880  Biso   1.000  C
  C36      1.0000 0.15720  0.61370  0.75880  Biso   1.000  C
  N9       1.0000 0.88510  0.69720  0.38710  Biso   1.000  N
  N10      1.0000 0.61490  0.30280  0.88710  Biso   1.000  N
  N11      1.0000 0.38510  0.80280  0.61290  Biso   1.000  N
  N12      1.0000 0.11490  0.19720  0.11290  Biso   1.000  N
  C37      1.0000 0.84800  0.16940  0.96910  Biso   1.000  C
  C38      1.0000 0.65200  0.83060  0.46910  Biso   1.000  C
  C39      1.0000 0.34800  0.33060  0.03090  Biso   1.000  C
  C40      1.0000 0.15200  0.66940  0.53090  Biso   1.000  C
  N13      1.0000 0.84740  0.45330  0.14900  Biso   1.000  N
  N14      1.0000 0.65260  0.54670  0.64900  Biso   1.000  N
  N15      1.0000 0.34740  0.04670  0.85100  Biso   1.000  N
  N16      1.0000 0.15260  0.95330  0.35100  Biso   1.000  N
  C41      1.0000 0.96810  0.68110  0.00200  Biso   1.000  C
  C42      1.0000 0.53190  0.31890  0.50200  Biso   1.000  C
  C43      1.0000 0.46810  0.81890  0.99800  Biso   1.000  C
  C44      1.0000 0.03190  0.18110  0.49800  Biso   1.000  C
  H33      1.0000 0.93400  0.70430  0.00100  Biso   1.000  H
  H34      1.0000 0.56600  0.29570  0.50100  Biso   1.000  H
  H35      1.0000 0.43400  0.79570  0.99900  Biso   1.000  H
  H36      1.0000 0.06600  0.20430  0.49900  Biso   1.000  H
  H37      1.0000 0.98050  0.66400  0.91640  Biso   1.000  H
  H38      1.0000 0.51950  0.33600  0.41640  Biso   1.000  H
  H39      1.0000 0.48050  0.83600  0.08360  Biso   1.000  H
  H40      1.0000 0.01950  0.16400  0.58360  Biso   1.000  H
  C45      1.0000 0.83910  0.50850  0.37700  Biso   1.000  C
  C46      1.0000 0.66090  0.49150  0.87700  Biso   1.000  C
  C47      1.0000 0.33910  0.99150  0.62300  Biso   1.000  C
  C48      1.0000 0.16090  0.00850  0.12300  Biso   1.000  C
  H41      1.0000 0.84030  0.50790  0.47740  Biso   1.000  H
  H42      1.0000 0.65970  0.49210  0.97740  Biso   1.000  H
  H43      1.0000 0.34030  0.99210  0.52260  Biso   1.000  H
  H44      1.0000 0.15970  0.00790  0.02260  Biso   1.000  H
  C49      1.0000 0.00100  0.67180  0.13100  Biso   1.000  C
  C50      1.0000 0.49900  0.32820  0.63100  Biso   1.000  C
  C51      1.0000 0.50100  0.82820  0.86900  Biso   1.000  C
  C52      1.0000 0.99900  0.17180  0.36900  Biso   1.000  C
  H45      1.0000 0.03440  0.64820  0.12290  Biso   1.000  H
  H46      1.0000 0.46560  0.35180  0.62290  Biso   1.000  H
  H47      1.0000 0.53440  0.85180  0.87710  Biso   1.000  H
  H48      1.0000 0.96560  0.14820  0.37710  Biso   1.000  H
  C53      1.0000 0.85740  0.20980  0.74500  Biso   1.000  C
  C54      1.0000 0.64260  0.79020  0.24500  Biso   1.000  C
  C55      1.0000 0.35740  0.29020  0.25500  Biso   1.000  C
  C56      1.0000 0.14260  0.70980  0.75500  Biso   1.000  C
  H49      1.0000 0.86530  0.24030  0.68960  Biso   1.000  H
  H50      1.0000 0.63470  0.75970  0.18960  Biso   1.000  H
  H51      1.0000 0.36530  0.25970  0.31040  Biso   1.000  H
  H52      1.0000 0.13470  0.74030  0.81040  Biso   1.000  H
  C57      1.0000 0.83380  0.94640  0.59440  Biso   1.000  C
  C58      1.0000 0.66620  0.05360  0.09440  Biso   1.000  C
  C59      1.0000 0.33380  0.55360  0.40560  Biso   1.000  C
  C60      1.0000 0.16620  0.44640  0.90560  Biso   1.000  C
  H53      1.0000 0.81440  0.94750  0.68940  Biso   1.000  H
  H54      1.0000 0.68560  0.05250  0.18940  Biso   1.000  H
  H55      1.0000 0.31440  0.55250  0.31060  Biso   1.000  H
  H56      1.0000 0.18560  0.44750  0.81060  Biso   1.000  H
  H57      1.0000 0.80920  0.96950  0.53140  Biso   1.000  H
  H58      1.0000 0.69080  0.03050  0.03140  Biso   1.000  H
  H59      1.0000 0.30920  0.53050  0.46860  Biso   1.000  H
  H60      1.0000 0.19080  0.46950  0.96860  Biso   1.000  H
  C61      1.0000 0.85040  0.45830  0.27600  Biso   1.000  C
  C62      1.0000 0.64960  0.54170  0.77600  Biso   1.000  C
  C63      1.0000 0.35040  0.04170  0.72400  Biso   1.000  C
  C64      1.0000 0.14960  0.95830  0.22400  Biso   1.000  C
  H61      1.0000 0.86150  0.42700  0.32560  Biso   1.000  H
  H62      1.0000 0.63850  0.57300  0.82560  Biso   1.000  H
  H63      1.0000 0.36150  0.07300  0.67440  Biso   1.000  H
  H64      1.0000 0.13850  0.92700  0.17440  Biso   1.000  H
  C65      1.0000 0.83750  0.06020  0.66630  Biso   1.000  C
  C66      1.0000 0.66250  0.93980  0.16630  Biso   1.000  C
  C67      1.0000 0.33750  0.43980  0.33370  Biso   1.000  C
  C68      1.0000 0.16250  0.56020  0.83370  Biso   1.000  C
  H65      1.0000 0.80000  0.04180  0.70110  Biso   1.000  H
  H66      1.0000 0.70000  0.95820  0.20110  Biso   1.000  H
  H67      1.0000 0.30000  0.45820  0.29890  Biso   1.000  H
  H68      1.0000 0.20000  0.54180  0.79890  Biso   1.000  H
  C69      1.0000 0.84950  0.16180  0.67400  Biso   1.000  C
  C70      1.0000 0.65050  0.83820  0.17400  Biso   1.000  C
  C71      1.0000 0.34950  0.33820  0.32600  Biso   1.000  C
  C72      1.0000 0.15050  0.66180  0.82600  Biso   1.000  C
  H69      1.0000 0.84880  0.16230  0.57340  Biso   1.000  H
  H70      1.0000 0.65120  0.83770  0.07340  Biso   1.000  H
  H71      1.0000 0.34880  0.33770  0.42660  Biso   1.000  H
  H72      1.0000 0.15120  0.66230  0.92660  Biso   1.000  H
  C73      1.0000 0.82790  0.55030  0.29900  Biso   1.000  C
  C74      1.0000 0.67210  0.44970  0.79900  Biso   1.000  C
  C75      1.0000 0.32790  0.94970  0.70100  Biso   1.000  C
  C76      1.0000 0.17210  0.05030  0.20100  Biso   1.000  C
  C77      1.0000 0.84200  0.11810  0.89290  Biso   1.000  C
  C78      1.0000 0.65800  0.88190  0.39290  Biso   1.000  C
  C79      1.0000 0.34200  0.38190  0.10710  Biso   1.000  C
  C80      1.0000 0.15800  0.61810  0.60710  Biso   1.000  C
  C81      1.0000 0.98260  0.67550  0.53550  Biso   1.000  C
  C82      1.0000 0.51740  0.32450  0.03550  Biso   1.000  C
  C83      1.0000 0.48260  0.82450  0.46450  Biso   1.000  C
  C84      1.0000 0.01740  0.17550  0.96450  Biso   1.000  C
  H73      1.0000 0.01010  0.70640  0.54430  Biso   1.000  H
  H74      1.0000 0.48990  0.29360  0.04430  Biso   1.000  H
  H75      1.0000 0.51010  0.79360  0.45570  Biso   1.000  H
  H76      1.0000 0.98990  0.20640  0.95570  Biso   1.000  H
  H77      1.0000 0.99140  0.65070  0.61440  Biso   1.000  H
  H78      1.0000 0.50860  0.34930  0.11440  Biso   1.000  H
  H79      1.0000 0.49140  0.84930  0.38560  Biso   1.000  H
  H80      1.0000 0.00860  0.15070  0.88560  Biso   1.000  H
  C85      1.0000 0.00300  0.96330  0.72300  Biso   1.000  C
  C86      1.0000 0.49700  0.03670  0.22300  Biso   1.000  C
  C87      1.0000 0.50300  0.53670  0.27700  Biso   1.000  C
  C88      1.0000 0.99700  0.46330  0.77700  Biso   1.000  C
  H81      1.0000 0.03520  0.93840  0.68790  Biso   1.000  H
  H82      1.0000 0.46480  0.06160  0.18790  Biso   1.000  H
  H83      1.0000 0.53520  0.56160  0.31210  Biso   1.000  H
  H84      1.0000 0.96480  0.43840  0.81210  Biso   1.000  H
  C89      1.0000 0.82180  0.79410  0.58830  Biso   1.000  C
  C90      1.0000 0.67820  0.20590  0.08830  Biso   1.000  C
  C91      1.0000 0.32180  0.70590  0.41170  Biso   1.000  C
  C92      1.0000 0.17820  0.29410  0.91170  Biso   1.000  C
  H85      1.0000 0.81700  0.76610  0.65470  Biso   1.000  H
  H86      1.0000 0.68300  0.23390  0.15470  Biso   1.000  H
  H87      1.0000 0.31700  0.73390  0.34530  Biso   1.000  H
  H88      1.0000 0.18300  0.26610  0.84530  Biso   1.000  H
  C93      1.0000 0.92990  0.72730  0.29300  Biso   1.000  C
  C94      1.0000 0.57010  0.27270  0.79300  Biso   1.000  C
  C95      1.0000 0.42990  0.77270  0.70700  Biso   1.000  C
  C96      1.0000 0.07010  0.22730  0.20700  Biso   1.000  C
  H89      1.0000 0.93860  0.76250  0.33430  Biso   1.000  H
  H90      1.0000 0.56140  0.23750  0.83430  Biso   1.000  H
  H91      1.0000 0.43860  0.73750  0.66570  Biso   1.000  H
  H92      1.0000 0.06140  0.26250  0.16570  Biso   1.000  H
  H93      1.0000 0.91210  0.73250  0.19710  Biso   1.000  H
  H94      1.0000 0.58790  0.26750  0.69710  Biso   1.000  H
  H95      1.0000 0.41210  0.76750  0.80290  Biso   1.000  H
  H96      1.0000 0.08790  0.23250  0.30290  Biso   1.000  H
  C97      1.0000 0.83200  0.07290  0.99200  Biso   1.000  C
  C98      1.0000 0.66800  0.92710  0.49200  Biso   1.000  C
  C99      1.0000 0.33200  0.42710  0.00800  Biso   1.000  C
  C100     1.0000 0.16800  0.57290  0.50800  Biso   1.000  C
  H97      1.0000 0.82830  0.03830  0.95370  Biso   1.000  H
  H98      1.0000 0.67170  0.96170  0.45370  Biso   1.000  H
  H99      1.0000 0.32830  0.46170  0.04630  Biso   1.000  H
  H100     1.0000 0.17170  0.53830  0.54630  Biso   1.000  H
  C101     1.0000 0.82800  0.07970  0.14000  Biso   1.000  C
  C102     1.0000 0.67200  0.92030  0.64000  Biso   1.000  C
  C103     1.0000 0.32800  0.42030  0.86000  Biso   1.000  C
  C104     1.0000 0.17200  0.57970  0.36000  Biso   1.000  C
  H101     1.0000 0.82010  0.04970  0.19780  Biso   1.000  H
  H102     1.0000 0.67990  0.95030  0.69780  Biso   1.000  H
  H103     1.0000 0.32010  0.45030  0.80220  Biso   1.000  H
  H104     1.0000 0.17990  0.54970  0.30220  Biso   1.000  H
  C105     1.0000 0.83350  0.49640  0.07600  Biso   1.000  C
  C106     1.0000 0.66650  0.50360  0.57600  Biso   1.000  C
  C107     1.0000 0.33350  0.00360  0.92400  Biso   1.000  C
  C108     1.0000 0.16650  0.99640  0.42400  Biso   1.000  C
  C109     1.0000 0.89330  0.02460  0.69390  Biso   1.000  C
  C110     1.0000 0.60670  0.97540  0.19390  Biso   1.000  C
  C111     1.0000 0.39330  0.47540  0.30610  Biso   1.000  C
  C112     1.0000 0.10670  0.52460  0.80610  Biso   1.000  C
  H105     1.0000 0.89160  0.01460  0.79670  Biso   1.000  H
  H106     1.0000 0.60840  0.98540  0.29670  Biso   1.000  H
  H107     1.0000 0.39160  0.48540  0.20330  Biso   1.000  H
  H108     1.0000 0.10840  0.51460  0.70330  Biso   1.000  H
  C113     1.0000 0.99310  0.96600  0.98900  Biso   1.000  C
  C114     1.0000 0.50690  0.03400  0.48900  Biso   1.000  C
  C115     1.0000 0.49310  0.53400  0.01100  Biso   1.000  C
  C116     1.0000 0.00690  0.46600  0.51100  Biso   1.000  C
  H109     1.0000 0.95570  0.94700  0.99090  Biso   1.000  H
  H110     1.0000 0.54430  0.05300  0.49090  Biso   1.000  H
  H111     1.0000 0.45570  0.55300  0.00910  Biso   1.000  H
  H112     1.0000 0.04430  0.44700  0.50910  Biso   1.000  H
  H113     1.0000 0.01120  0.97770  0.07490  Biso   1.000  H
  H114     1.0000 0.48880  0.02230  0.57490  Biso   1.000  H
  H115     1.0000 0.51120  0.52230  0.92510  Biso   1.000  H
  H116     1.0000 0.98880  0.47770  0.42510  Biso   1.000  H
  C117     1.0000 0.82190  0.54820  0.13300  Biso   1.000  C
  C118     1.0000 0.67810  0.45180  0.63300  Biso   1.000  C
  C119     1.0000 0.32190  0.95180  0.86700  Biso   1.000  C
  C120     1.0000 0.17810  0.04820  0.36700  Biso   1.000  C
  C121     1.0000 0.82230  0.72580  0.38650  Biso   1.000  C
  C122     1.0000 0.67770  0.27420  0.88650  Biso   1.000  C
  C123     1.0000 0.32230  0.77420  0.61350  Biso   1.000  C
  C124     1.0000 0.17770  0.22580  0.11350  Biso   1.000  C
  H117     1.0000 0.80550  0.72520  0.28880  Biso   1.000  H
  H118     1.0000 0.69450  0.27480  0.78880  Biso   1.000  H
  H119     1.0000 0.30550  0.77480  0.71120  Biso   1.000  H
  H120     1.0000 0.19450  0.22520  0.21120  Biso   1.000  H
  H121     1.0000 0.79360  0.70610  0.44840  Biso   1.000  H
  H122     1.0000 0.70640  0.29390  0.94840  Biso   1.000  H
  H123     1.0000 0.29360  0.79390  0.55160  Biso   1.000  H
  H124     1.0000 0.20640  0.20610  0.05160  Biso   1.000  H
  C125     1.0000 0.92420  0.98010  0.45670  Biso   1.000  C
  C126     1.0000 0.57580  0.01990  0.95670  Biso   1.000  C
  C127     1.0000 0.42420  0.51990  0.54330  Biso   1.000  C
  C128     1.0000 0.07580  0.48010  0.04330  Biso   1.000  C
  H125     1.0000 0.92200  0.94690  0.40130  Biso   1.000  H
  H126     1.0000 0.57800  0.05310  0.90130  Biso   1.000  H
  H127     1.0000 0.42200  0.55310  0.59870  Biso   1.000  H
  H128     1.0000 0.07800  0.44690  0.09870  Biso   1.000  H
  H129     1.0000 0.90050  0.00760  0.40560  Biso   1.000  H
  H130     1.0000 0.59950  0.99240  0.90560  Biso   1.000  H
  H131     1.0000 0.40050  0.49240  0.59440  Biso   1.000  H
  H132     1.0000 0.09950  0.50760  0.09440  Biso   1.000  H
  C129     1.0000 0.83510  0.12930  0.20590  Biso   1.000  C
  C130     1.0000 0.66490  0.87070  0.70590  Biso   1.000  C
  C131     1.0000 0.33510  0.37070  0.79410  Biso   1.000  C
  C132     1.0000 0.16490  0.62930  0.29410  Biso   1.000  C
  H133     1.0000 0.83420  0.13270  0.30630  Biso   1.000  H
  H134     1.0000 0.66580  0.86730  0.80630  Biso   1.000  H
  H135     1.0000 0.33420  0.36730  0.69370  Biso   1.000  H
  H136     1.0000 0.16580  0.63270  0.19370  Biso   1.000  H
  C133     1.0000 0.82770  0.49220  0.91500  Biso   1.000  C
  C134     1.0000 0.67230  0.50780  0.41500  Biso   1.000  C
  C135     1.0000 0.32770  0.00780  0.08500  Biso   1.000  C
  C136     1.0000 0.17230  0.99220  0.58500  Biso   1.000  C
  H137     1.0000 0.83330  0.45890  0.87110  Biso   1.000  H
  H138     1.0000 0.66670  0.54110  0.37110  Biso   1.000  H
  H139     1.0000 0.33330  0.04110  0.12890  Biso   1.000  H
  H140     1.0000 0.16670  0.95890  0.62890  Biso   1.000  H
  C137     1.0000 0.82550  0.84860  0.63520  Biso   1.000  C
  C138     1.0000 0.67450  0.15140  0.13520  Biso   1.000  C
  C139     1.0000 0.32550  0.65140  0.36480  Biso   1.000  C
  C140     1.0000 0.17450  0.34860  0.86480  Biso   1.000  C
  H141     1.0000 0.82630  0.85610  0.73410  Biso   1.000  H
  H142     1.0000 0.67370  0.14390  0.23410  Biso   1.000  H
  H143     1.0000 0.32630  0.64390  0.26590  Biso   1.000  H
  H144     1.0000 0.17370  0.35610  0.76590  Biso   1.000  H
  C141     1.0000 0.99120  0.99770  0.47200  Biso   1.000  C
  C142     1.0000 0.50880  0.00230  0.97200  Biso   1.000  C
  C143     1.0000 0.49120  0.50230  0.52800  Biso   1.000  C
  C144     1.0000 0.00880  0.49770  0.02800  Biso   1.000  C
  H145     1.0000 0.01830  0.96810  0.44410  Biso   1.000  H
  H146     1.0000 0.48170  0.03190  0.94410  Biso   1.000  H
  H147     1.0000 0.51830  0.53190  0.55590  Biso   1.000  H
  H148     1.0000 0.98170  0.46810  0.05590  Biso   1.000  H
  H149     1.0000 0.99910  0.02750  0.40590  Biso   1.000  H
  H150     1.0000 0.50090  0.97250  0.90590  Biso   1.000  H
  H151     1.0000 0.49910  0.47250  0.59410  Biso   1.000  H
  H152     1.0000 0.00090  0.52750  0.09410  Biso   1.000  H
  C145     1.0000 0.88040  0.64000  0.32400  Biso   1.000  C
  C146     1.0000 0.61960  0.36000  0.82400  Biso   1.000  C
  C147     1.0000 0.38040  0.86000  0.67600  Biso   1.000  C
  C148     1.0000 0.11960  0.14000  0.17600  Biso   1.000  C
  H153     1.0000 0.87670  0.64340  0.21800  Biso   1.000  H
  H154     1.0000 0.62330  0.35660  0.71800  Biso   1.000  H
  H155     1.0000 0.37670  0.85660  0.78200  Biso   1.000  H
  H156     1.0000 0.12330  0.14340  0.28200  Biso   1.000  H
  C149     1.0000 0.91330  0.69380  0.54000  Biso   1.000  C
  C150     1.0000 0.58670  0.30620  0.04000  Biso   1.000  C
  C151     1.0000 0.41330  0.80620  0.46000  Biso   1.000  C
  C152     1.0000 0.08670  0.19380  0.96000  Biso   1.000  C
  H157     1.0000 0.91060  0.72890  0.58650  Biso   1.000  H
  H158     1.0000 0.58940  0.27110  0.08650  Biso   1.000  H
  H159     1.0000 0.41060  0.77110  0.41350  Biso   1.000  H
  H160     1.0000 0.08940  0.22890  0.91350  Biso   1.000  H
  H161     1.0000 0.88940  0.66840  0.59790  Biso   1.000  H
  H162     1.0000 0.61060  0.33160  0.09790  Biso   1.000  H
  H163     1.0000 0.38940  0.83160  0.40210  Biso   1.000  H
  H164     1.0000 0.11060  0.16840  0.90210  Biso   1.000  H
  C153     1.0000 0.82620  0.82350  0.33880  Biso   1.000  C
  C154     1.0000 0.67380  0.17650  0.83880  Biso   1.000  C
  C155     1.0000 0.32620  0.67650  0.66120  Biso   1.000  C
  C156     1.0000 0.17380  0.32350  0.16120  Biso   1.000  C
  H165     1.0000 0.82550  0.81550  0.24020  Biso   1.000  H
  H166     1.0000 0.67450  0.18450  0.74020  Biso   1.000  H
  H167     1.0000 0.32550  0.68450  0.75980  Biso   1.000  H
  H168     1.0000 0.17450  0.31550  0.25980  Biso   1.000  H
  C157     1.0000 0.94090  0.60970  0.35600  Biso   1.000  C
  C158     1.0000 0.55910  0.39030  0.85600  Biso   1.000  C
  C159     1.0000 0.44090  0.89030  0.64400  Biso   1.000  C
  C160     1.0000 0.05910  0.10970  0.14400  Biso   1.000  C
  H169     1.0000 0.93450  0.58520  0.43630  Biso   1.000  H
  H170     1.0000 0.56550  0.41480  0.93630  Biso   1.000  H
  H171     1.0000 0.43450  0.91480  0.56370  Biso   1.000  H
  H172     1.0000 0.06550  0.08520  0.06370  Biso   1.000  H
  H173     1.0000 0.95270  0.58840  0.27160  Biso   1.000  H
  H174     1.0000 0.54730  0.41160  0.77160  Biso   1.000  H
  H175     1.0000 0.45270  0.91160  0.72840  Biso   1.000  H
  H176     1.0000 0.04730  0.08840  0.22840  Biso   1.000  H
  C161     1.0000 0.84390  0.17470  0.11600  Biso   1.000  C
  C162     1.0000 0.65610  0.82530  0.61600  Biso   1.000  C
  C163     1.0000 0.34390  0.32530  0.88400  Biso   1.000  C
  C164     1.0000 0.15610  0.67470  0.38400  Biso   1.000  C
  H177     1.0000 0.84680  0.20880  0.15770  Biso   1.000  H
  H178     1.0000 0.65320  0.79120  0.65770  Biso   1.000  H
  H179     1.0000 0.34680  0.29120  0.84230  Biso   1.000  H
  H180     1.0000 0.15320  0.70880  0.34230  Biso   1.000  H
  C165     1.0000 0.02070  0.97640  0.86200  Biso   1.000  C
  C166     1.0000 0.47930  0.02360  0.36200  Biso   1.000  C
  C167     1.0000 0.52070  0.52360  0.13800  Biso   1.000  C
  C168     1.0000 0.97930  0.47640  0.63800  Biso   1.000  C
  H181     1.0000 0.05790  0.99550  0.86930  Biso   1.000  H
  H182     1.0000 0.44210  0.00450  0.36930  Biso   1.000  H
  H183     1.0000 0.55790  0.50450  0.13070  Biso   1.000  H
  H184     1.0000 0.94210  0.49550  0.63070  Biso   1.000  H
  C169     1.0000 0.81530  0.53390  0.83700  Biso   1.000  C
  C170     1.0000 0.68470  0.46610  0.33700  Biso   1.000  C
  C171     1.0000 0.31530  0.96610  0.16300  Biso   1.000  C
  C172     1.0000 0.18470  0.03390  0.66300  Biso   1.000  C
  H185     1.0000 0.81570  0.53010  0.73620  Biso   1.000  H
  H186     1.0000 0.68430  0.46990  0.23620  Biso   1.000  H
  H187     1.0000 0.31570  0.96990  0.26380  Biso   1.000  H
  H188     1.0000 0.18430  0.03010  0.76380  Biso   1.000  H
  C173     1.0000 0.80130  0.58400  0.89600  Biso   1.000  C
  C174     1.0000 0.69870  0.41600  0.39600  Biso   1.000  C
  C175     1.0000 0.30130  0.91600  0.10400  Biso   1.000  C
  C176     1.0000 0.19870  0.08400  0.60400  Biso   1.000  C
  H189     1.0000 0.79080  0.61280  0.83550  Biso   1.000  H
  H190     1.0000 0.70920  0.38720  0.33550  Biso   1.000  H
  H191     1.0000 0.29080  0.88720  0.16450  Biso   1.000  H
  H192     1.0000 0.20920  0.11280  0.66450  Biso   1.000  H
  C177     1.0000 0.99200  0.64810  0.39160  Biso   1.000  C
  C178     1.0000 0.50800  0.35190  0.89160  Biso   1.000  C
  C179     1.0000 0.49200  0.85190  0.60840  Biso   1.000  C
  C180     1.0000 0.00800  0.14810  0.10840  Biso   1.000  C
  H193     1.0000 0.03250  0.62970  0.38900  Biso   1.000  H
  H194     1.0000 0.46750  0.37030  0.88900  Biso   1.000  H
  H195     1.0000 0.53250  0.87030  0.61100  Biso   1.000  H
  H196     1.0000 0.96750  0.12970  0.11100  Biso   1.000  H
  C181     1.0000 0.80310  0.59070  0.04500  Biso   1.000  C
  C182     1.0000 0.69690  0.40930  0.54500  Biso   1.000  C
  C183     1.0000 0.30310  0.90930  0.95500  Biso   1.000  C
  C184     1.0000 0.19690  0.09070  0.45500  Biso   1.000  C
  H197     1.0000 0.79180  0.62360  0.08640  Biso   1.000  H
  H198     1.0000 0.70820  0.37640  0.58640  Biso   1.000  H
  H199     1.0000 0.29180  0.87640  0.91360  Biso   1.000  H
  H200     1.0000 0.20820  0.12360  0.41360  Biso   1.000  H
  O9       1.0000 0.88880  0.80500  0.96760  Biso   1.000  O
  O10      1.0000 0.61120  0.19500  0.46760  Biso   1.000  O
  O11      1.0000 0.38880  0.69500  0.03240  Biso   1.000  O
  O12      1.0000 0.11120  0.30500  0.53240  Biso   1.000  O
  O13      1.0000 0.80200  0.73410  0.01400  Biso   1.000  O
  O14      1.0000 0.69800  0.26590  0.51400  Biso   1.000  O
  O15      1.0000 0.30200  0.76590  0.98600  Biso   1.000  O
  O16      1.0000 0.19800  0.23410  0.48600  Biso   1.000  O
  O17      1.0000 0.99880  0.80880  0.81500  Biso   1.000  O
  O18      1.0000 0.50120  0.19120  0.31500  Biso   1.000  O
  O19      1.0000 0.49880  0.69120  0.18500  Biso   1.000  O
  O20      1.0000 0.00120  0.30880  0.68500  Biso   1.000  O
