data_image0
_cell_length_a       7.425
_cell_length_b       10.493
_cell_length_c       12.277
_cell_angle_alpha    108.12
_cell_angle_beta     91.82
_cell_angle_gamma    94.31

_symmetry_space_group_name_H-M    "P 1"
_symmetry_int_tables_number       1

loop_
  _symmetry_equiv_pos_as_xyz
  'x, y, z'

loop_
  _atom_site_label
  _atom_site_occupancy
  _atom_site_fract_x
  _atom_site_fract_y
  _atom_site_fract_z
  _atom_site_thermal_displace_type
  _atom_site_B_iso_or_equiv
  _atom_site_type_symbol
  Cu1      1.0000 0.05990  0.86781  0.19586  Biso   1.000  Cu
  Cu2      1.0000 0.94010  0.13219  0.80414  Biso   1.000  Cu
  N1       1.0000 0.78670  0.87620  0.18260  Biso   1.000  N
  N2       1.0000 0.21330  0.12380  0.81740  Biso   1.000  N
  C1       1.0000 0.95410  0.75350  0.95470  Biso   1.000  C
  C2       1.0000 0.04590  0.24650  0.04530  Biso   1.000  C
  C3       1.0000 0.23560  0.86440  0.06780  Biso   1.000  C
  C4       1.0000 0.76440  0.13560  0.93220  Biso   1.000  C
  N3       1.0000 0.16910  0.01510  0.33320  Biso   1.000  N
  N4       1.0000 0.83090  0.98490  0.66680  Biso   1.000  N
  N5       1.0000 0.09810  0.75560  0.30810  Biso   1.000  N
  N6       1.0000 0.90190  0.24440  0.69190  Biso   1.000  N
  O1       1.0000 0.85170  0.63730  0.92990  Biso   1.000  O
  O2       1.0000 0.14830  0.36270  0.07010  Biso   1.000  O
  C5       1.0000 0.67330  0.76460  0.16430  Biso   1.000  C
  C6       1.0000 0.32670  0.23540  0.83570  Biso   1.000  C
  O3       1.0000 0.92250  0.84420  0.91940  Biso   1.000  O
  O4       1.0000 0.07750  0.15580  0.08060  Biso   1.000  O
  C7       1.0000 0.20960  0.97800  0.42550  Biso   1.000  C
  C8       1.0000 0.79040  0.02200  0.57450  Biso   1.000  C
  C9       1.0000 0.42220  0.86760  0.11420  Biso   1.000  C
  C10      1.0000 0.57780  0.13240  0.88580  Biso   1.000  C
  C11      1.0000 0.11330  0.75440  0.03240  Biso   1.000  C
  C12      1.0000 0.88670  0.24560  0.96760  Biso   1.000  C
  C13      1.0000 0.53610  0.98530  0.13800  Biso   1.000  C
  C14      1.0000 0.46390  0.01470  0.86200  Biso   1.000  C
  C15      1.0000 0.49490  0.75600  0.12970  Biso   1.000  C
  C16      1.0000 0.50510  0.24400  0.87030  Biso   1.000  C
  C17      1.0000 0.20780  0.14420  0.33950  Biso   1.000  C
  C18      1.0000 0.79220  0.85580  0.66050  Biso   1.000  C
  C19      1.0000 0.71510  0.98600  0.17110  Biso   1.000  C
  C20      1.0000 0.28490  0.01400  0.82890  Biso   1.000  C
  C21      1.0000 0.17010  0.83170  0.41180  Biso   1.000  C
  C22      1.0000 0.82990  0.16830  0.58820  Biso   1.000  C
  C23      1.0000 0.06120  0.62340  0.28860  Biso   1.000  C
  C24      1.0000 0.93880  0.37660  0.71140  Biso   1.000  C
  C25      1.0000 0.28760  0.07020  0.52570  Biso   1.000  C
  C26      1.0000 0.71240  0.92980  0.47430  Biso   1.000  C
  C27      1.0000 0.17370  0.63810  0.47290  Biso   1.000  C
  C28      1.0000 0.82630  0.36190  0.52710  Biso   1.000  C
  C29      1.0000 0.28740  0.24030  0.43620  Biso   1.000  C
  C30      1.0000 0.71260  0.75970  0.56380  Biso   1.000  C
  C31      1.0000 0.32480  0.20200  0.53200  Biso   1.000  C
  C32      1.0000 0.67520  0.79800  0.46800  Biso   1.000  C
  C33      1.0000 0.21020  0.77530  0.49620  Biso   1.000  C
  C34      1.0000 0.78980  0.22470  0.50380  Biso   1.000  C
  C35      1.0000 0.09930  0.56250  0.36880  Biso   1.000  C
  C36      1.0000 0.90070  0.43750  0.63120  Biso   1.000  C
  B1       1.0000 0.40170  0.60080  0.76700  Biso   1.000  B
  B2       1.0000 0.59830  0.39920  0.23300  Biso   1.000  B
  F1       1.0000 0.55980  0.67730  0.80710  Biso   1.000  F
  F2       1.0000 0.44020  0.32270  0.19290  Biso   1.000  F
  F3       1.0000 0.41020  0.51140  0.66230  Biso   1.000  F
  F4       1.0000 0.58980  0.48860  0.33770  Biso   1.000  F
  F5       1.0000 0.27820  0.68940  0.75990  Biso   1.000  F
  F6       1.0000 0.72180  0.31060  0.24010  Biso   1.000  F
  F7       1.0000 0.34510  0.54210  0.84460  Biso   1.000  F
  F8       1.0000 0.65490  0.45790  0.15540  Biso   1.000  F
  H1       1.0000 0.42400  0.67300  0.11800  Biso   1.000  H
  H2       1.0000 0.57600  0.32700  0.88200  Biso   1.000  H
  H3       1.0000 0.72600  0.69000  0.17000  Biso   1.000  H
  H4       1.0000 0.27400  0.31000  0.83000  Biso   1.000  H
  H5       1.0000 0.49900  0.07100  0.12900  Biso   1.000  H
  H6       1.0000 0.50100  0.92900  0.87100  Biso   1.000  H
  H7       1.0000 0.20800  0.93300  0.05100  Biso   1.000  H
  H8       1.0000 0.79200  0.06700  0.94900  Biso   1.000  H
  H9       1.0000 0.30800  0.04900  0.58600  Biso   1.000  H
  H10      1.0000 0.69200  0.95100  0.41400  Biso   1.000  H
  H11      1.0000 0.07400  0.47600  0.35300  Biso   1.000  H
  H12      1.0000 0.92600  0.52400  0.64700  Biso   1.000  H
  H13      1.0000 0.79700  0.06300  0.18000  Biso   1.000  H
  H14      1.0000 0.20300  0.93700  0.82000  Biso   1.000  H
  H15      1.0000 0.13700  0.67800  0.04500  Biso   1.000  H
  H16      1.0000 0.86300  0.32200  0.95500  Biso   1.000  H
  H17      1.0000 0.38000  0.27400  0.61000  Biso   1.000  H
  H18      1.0000 0.62000  0.72600  0.39000  Biso   1.000  H
  H19      1.0000 0.32000  0.33600  0.42000  Biso   1.000  H
  H20      1.0000 0.68000  0.66400  0.58000  Biso   1.000  H
  H21      1.0000 0.18500  0.16000  0.27100  Biso   1.000  H
  H22      1.0000 0.81500  0.84000  0.72900  Biso   1.000  H
  H23      1.0000 0.24400  0.83500  0.57400  Biso   1.000  H
  H24      1.0000 0.75600  0.16500  0.42600  Biso   1.000  H
  H25      1.0000 0.77900  0.64300  0.90200  Biso   1.000  H
  H26      1.0000 0.22100  0.35700  0.09800  Biso   1.000  H
  H27      1.0000 0.19700  0.60200  0.53100  Biso   1.000  H
  H28      1.0000 0.80300  0.39800  0.46900  Biso   1.000  H
  H29      1.0000 0.02400  0.57700  0.21700  Biso   1.000  H
  H30      1.0000 0.97600  0.42300  0.78300  Biso   1.000  H
