data_image0
_cell_length_a       7.651
_cell_length_b       17.995
_cell_length_c       20.45
_cell_angle_alpha    90
_cell_angle_beta     90
_cell_angle_gamma    90

_symmetry_space_group_name_H-M    "P 1"
_symmetry_int_tables_number       1

loop_
  _symmetry_equiv_pos_as_xyz
  'x, y, z'

loop_
  _atom_site_label
  _atom_site_occupancy
  _atom_site_fract_x
  _atom_site_fract_y
  _atom_site_fract_z
  _atom_site_thermal_displace_type
  _atom_site_B_iso_or_equiv
  _atom_site_type_symbol
  Cu1      1.0000 0.04550  0.10130  0.08680  Biso   1.000  Cu
  Cu2      1.0000 0.95450  0.39870  0.58680  Biso   1.000  Cu
  Cu3      1.0000 0.54550  0.89870  0.41320  Biso   1.000  Cu
  Cu4      1.0000 0.45450  0.60130  0.91320  Biso   1.000  Cu
  Cu5      1.0000 0.95450  0.89870  0.91320  Biso   1.000  Cu
  Cu6      1.0000 0.04550  0.60130  0.41320  Biso   1.000  Cu
  Cu7      1.0000 0.45450  0.10130  0.58680  Biso   1.000  Cu
  Cu8      1.0000 0.54550  0.39870  0.08680  Biso   1.000  Cu
  C1       1.0000 0.54700  0.10200  0.97300  Biso   1.000  C
  C2       1.0000 0.45300  0.39800  0.47300  Biso   1.000  C
  C3       1.0000 0.04700  0.89800  0.52700  Biso   1.000  C
  C4       1.0000 0.95300  0.60200  0.02700  Biso   1.000  C
  C5       1.0000 0.45300  0.89800  0.02700  Biso   1.000  C
  C6       1.0000 0.54700  0.60200  0.52700  Biso   1.000  C
  C7       1.0000 0.95300  0.10200  0.47300  Biso   1.000  C
  C8       1.0000 0.04700  0.39800  0.97300  Biso   1.000  C
  C9       1.0000 0.70600  0.09200  0.00500  Biso   1.000  C
  C10      1.0000 0.29400  0.40800  0.50500  Biso   1.000  C
  C11      1.0000 0.20600  0.90800  0.49500  Biso   1.000  C
  C12      1.0000 0.79400  0.59200  0.99500  Biso   1.000  C
  C13      1.0000 0.29400  0.90800  0.99500  Biso   1.000  C
  C14      1.0000 0.70600  0.59200  0.49500  Biso   1.000  C
  C15      1.0000 0.79400  0.09200  0.50500  Biso   1.000  C
  C16      1.0000 0.20600  0.40800  0.00500  Biso   1.000  C
  N1       1.0000 0.83400  0.09320  0.03500  Biso   1.000  N
  N2       1.0000 0.16600  0.40680  0.53500  Biso   1.000  N
  N3       1.0000 0.33400  0.90680  0.46500  Biso   1.000  N
  N4       1.0000 0.66600  0.59320  0.96500  Biso   1.000  N
  N5       1.0000 0.16600  0.90680  0.96500  Biso   1.000  N
  N6       1.0000 0.83400  0.59320  0.46500  Biso   1.000  N
  N7       1.0000 0.66600  0.09320  0.53500  Biso   1.000  N
  N8       1.0000 0.33400  0.40680  0.03500  Biso   1.000  N
  C17      1.0000 0.38800  0.10600  0.00900  Biso   1.000  C
  C18      1.0000 0.61200  0.39400  0.50900  Biso   1.000  C
  C19      1.0000 0.88800  0.89400  0.49100  Biso   1.000  C
  C20      1.0000 0.11200  0.60600  0.99100  Biso   1.000  C
  C21      1.0000 0.61200  0.89400  0.99100  Biso   1.000  C
  C22      1.0000 0.38800  0.60600  0.49100  Biso   1.000  C
  C23      1.0000 0.11200  0.10600  0.50900  Biso   1.000  C
  C24      1.0000 0.88800  0.39400  0.00900  Biso   1.000  C
  N9       1.0000 0.26300  0.10900  0.03600  Biso   1.000  N
  N10      1.0000 0.73700  0.39100  0.53600  Biso   1.000  N
  N11      1.0000 0.76300  0.89100  0.46400  Biso   1.000  N
  N12      1.0000 0.23700  0.60900  0.96400  Biso   1.000  N
  N13      1.0000 0.73700  0.89100  0.96400  Biso   1.000  N
  N14      1.0000 0.26300  0.60900  0.46400  Biso   1.000  N
  N15      1.0000 0.23700  0.10900  0.53600  Biso   1.000  N
  N16      1.0000 0.76300  0.39100  0.03600  Biso   1.000  N
  C25      1.0000 0.53700  0.09200  0.90400  Biso   1.000  C
  C26      1.0000 0.46300  0.40800  0.40400  Biso   1.000  C
  C27      1.0000 0.03700  0.90800  0.59600  Biso   1.000  C
  C28      1.0000 0.96300  0.59200  0.09600  Biso   1.000  C
  C29      1.0000 0.46300  0.90800  0.09600  Biso   1.000  C
  C30      1.0000 0.53700  0.59200  0.59600  Biso   1.000  C
  C31      1.0000 0.96300  0.09200  0.40400  Biso   1.000  C
  C32      1.0000 0.03700  0.40800  0.90400  Biso   1.000  C
  N17      1.0000 0.52100  0.08000  0.85000  Biso   1.000  N
  N18      1.0000 0.47900  0.42000  0.35000  Biso   1.000  N
  N19      1.0000 0.02100  0.92000  0.65000  Biso   1.000  N
  N20      1.0000 0.97900  0.58000  0.15000  Biso   1.000  N
  N21      1.0000 0.47900  0.92000  0.15000  Biso   1.000  N
  N22      1.0000 0.52100  0.58000  0.65000  Biso   1.000  N
  N23      1.0000 0.97900  0.08000  0.35000  Biso   1.000  N
  N24      1.0000 0.02100  0.42000  0.85000  Biso   1.000  N
  N25      1.0000 0.03000  0.18500  0.14900  Biso   1.000  N
  N26      1.0000 0.97000  0.31500  0.64900  Biso   1.000  N
  N27      1.0000 0.53000  0.81500  0.35100  Biso   1.000  N
  N28      1.0000 0.47000  0.68500  0.85100  Biso   1.000  N
  N29      1.0000 0.97000  0.81500  0.85100  Biso   1.000  N
  N30      1.0000 0.03000  0.68500  0.35100  Biso   1.000  N
  N31      1.0000 0.47000  0.18500  0.64900  Biso   1.000  N
  N32      1.0000 0.53000  0.31500  0.14900  Biso   1.000  N
  C33      1.0000 0.00500  0.18900  0.21300  Biso   1.000  C
  C34      1.0000 0.99500  0.31100  0.71300  Biso   1.000  C
  C35      1.0000 0.50500  0.81100  0.28700  Biso   1.000  C
  C36      1.0000 0.49500  0.68900  0.78700  Biso   1.000  C
  C37      1.0000 0.99500  0.81100  0.78700  Biso   1.000  C
  C38      1.0000 0.00500  0.68900  0.28700  Biso   1.000  C
  C39      1.0000 0.49500  0.18900  0.71300  Biso   1.000  C
  C40      1.0000 0.50500  0.31100  0.21300  Biso   1.000  C
  C41      1.0000 0.99600  0.25000  0.25300  Biso   1.000  C
  C42      1.0000 0.00400  0.25000  0.75300  Biso   1.000  C
  C43      1.0000 0.49600  0.75000  0.24700  Biso   1.000  C
  C44      1.0000 0.50400  0.75000  0.74700  Biso   1.000  C
  C45      1.0000 0.00400  0.75000  0.74700  Biso   1.000  C
  C46      1.0000 0.99600  0.75000  0.24700  Biso   1.000  C
  C47      1.0000 0.50400  0.25000  0.75300  Biso   1.000  C
  C48      1.0000 0.49600  0.25000  0.25300  Biso   1.000  C
  C49      1.0000 0.07200  0.25800  0.12400  Biso   1.000  C
  C50      1.0000 0.92800  0.24200  0.62400  Biso   1.000  C
  C51      1.0000 0.57200  0.74200  0.37600  Biso   1.000  C
  C52      1.0000 0.42800  0.75800  0.87600  Biso   1.000  C
  C53      1.0000 0.92800  0.74200  0.87600  Biso   1.000  C
  C54      1.0000 0.07200  0.75800  0.37600  Biso   1.000  C
  C55      1.0000 0.42800  0.25800  0.62400  Biso   1.000  C
  C56      1.0000 0.57200  0.24200  0.12400  Biso   1.000  C
  C57      1.0000 0.06000  0.32100  0.16100  Biso   1.000  C
  C58      1.0000 0.94000  0.17900  0.66100  Biso   1.000  C
  C59      1.0000 0.56000  0.67900  0.33900  Biso   1.000  C
  C60      1.0000 0.44000  0.82100  0.83900  Biso   1.000  C
  C61      1.0000 0.94000  0.67900  0.83900  Biso   1.000  C
  C62      1.0000 0.06000  0.82100  0.33900  Biso   1.000  C
  C63      1.0000 0.44000  0.32100  0.66100  Biso   1.000  C
  C64      1.0000 0.56000  0.17900  0.16100  Biso   1.000  C
  C65      1.0000 0.03500  0.31300  0.22800  Biso   1.000  C
  C66      1.0000 0.96500  0.18700  0.72800  Biso   1.000  C
  C67      1.0000 0.53500  0.68700  0.27200  Biso   1.000  C
  C68      1.0000 0.46500  0.81300  0.77200  Biso   1.000  C
  C69      1.0000 0.96500  0.68700  0.77200  Biso   1.000  C
  C70      1.0000 0.03500  0.81300  0.27200  Biso   1.000  C
  C71      1.0000 0.46500  0.31300  0.72800  Biso   1.000  C
  C72      1.0000 0.53500  0.18700  0.22800  Biso   1.000  C
  C73      1.0000 0.02900  0.37700  0.27000  Biso   1.000  C
  C74      1.0000 0.97100  0.12300  0.77000  Biso   1.000  C
  C75      1.0000 0.52900  0.62300  0.23000  Biso   1.000  C
  C76      1.0000 0.47100  0.87700  0.73000  Biso   1.000  C
  C77      1.0000 0.97100  0.62300  0.73000  Biso   1.000  C
  C78      1.0000 0.02900  0.87700  0.23000  Biso   1.000  C
  C79      1.0000 0.47100  0.37700  0.77000  Biso   1.000  C
  C80      1.0000 0.52900  0.12300  0.27000  Biso   1.000  C
  C81      1.0000 0.13100  0.44500  0.25600  Biso   1.000  C
  C82      1.0000 0.86900  0.05500  0.75600  Biso   1.000  C
  C83      1.0000 0.63100  0.55500  0.24400  Biso   1.000  C
  C84      1.0000 0.36900  0.94500  0.74400  Biso   1.000  C
  C85      1.0000 0.86900  0.55500  0.74400  Biso   1.000  C
  C86      1.0000 0.13100  0.94500  0.24400  Biso   1.000  C
  C87      1.0000 0.36900  0.44500  0.75600  Biso   1.000  C
  C88      1.0000 0.63100  0.05500  0.25600  Biso   1.000  C
  C89      1.0000 0.13400  0.50300  0.29800  Biso   1.000  C
  C90      1.0000 0.86600  0.99700  0.79800  Biso   1.000  C
  C91      1.0000 0.63400  0.49700  0.20200  Biso   1.000  C
  C92      1.0000 0.36600  0.00300  0.70200  Biso   1.000  C
  C93      1.0000 0.86600  0.49700  0.70200  Biso   1.000  C
  C94      1.0000 0.13400  0.00300  0.20200  Biso   1.000  C
  C95      1.0000 0.36600  0.50300  0.79800  Biso   1.000  C
  C96      1.0000 0.63400  0.99700  0.29800  Biso   1.000  C
  C97      1.0000 0.93500  0.38800  0.32800  Biso   1.000  C
  C98      1.0000 0.06500  0.11200  0.82800  Biso   1.000  C
  C99      1.0000 0.43500  0.61200  0.17200  Biso   1.000  C
  C100     1.0000 0.56500  0.88800  0.67200  Biso   1.000  C
  C101     1.0000 0.06500  0.61200  0.67200  Biso   1.000  C
  C102     1.0000 0.93500  0.88800  0.17200  Biso   1.000  C
  C103     1.0000 0.56500  0.38800  0.82800  Biso   1.000  C
  C104     1.0000 0.43500  0.11200  0.32800  Biso   1.000  C
  C105     1.0000 0.95100  0.45000  0.36700  Biso   1.000  C
  C106     1.0000 0.04900  0.05000  0.86700  Biso   1.000  C
  C107     1.0000 0.45100  0.55000  0.13300  Biso   1.000  C
  C108     1.0000 0.54900  0.95000  0.63300  Biso   1.000  C
  C109     1.0000 0.04900  0.55000  0.63300  Biso   1.000  C
  C110     1.0000 0.95100  0.95000  0.13300  Biso   1.000  C
  C111     1.0000 0.54900  0.45000  0.86700  Biso   1.000  C
  C112     1.0000 0.45100  0.05000  0.36700  Biso   1.000  C
  N33      1.0000 0.04800  0.50700  0.35400  Biso   1.000  N
  N34      1.0000 0.95200  0.99300  0.85400  Biso   1.000  N
  N35      1.0000 0.54800  0.49300  0.14600  Biso   1.000  N
  N36      1.0000 0.45200  0.00700  0.64600  Biso   1.000  N
  N37      1.0000 0.95200  0.49300  0.64600  Biso   1.000  N
  N38      1.0000 0.04800  0.00700  0.14600  Biso   1.000  N
  N39      1.0000 0.45200  0.50700  0.85400  Biso   1.000  N
  N40      1.0000 0.54800  0.99300  0.35400  Biso   1.000  N
  H1       1.0000 0.98900  0.13600  0.23700  Biso   1.000  H
  H2       1.0000 0.01100  0.36400  0.73700  Biso   1.000  H
  H3       1.0000 0.48900  0.86400  0.26300  Biso   1.000  H
  H4       1.0000 0.51100  0.63600  0.76300  Biso   1.000  H
  H5       1.0000 0.01100  0.86400  0.76300  Biso   1.000  H
  H6       1.0000 0.98900  0.63600  0.26300  Biso   1.000  H
  H7       1.0000 0.51100  0.13600  0.73700  Biso   1.000  H
  H8       1.0000 0.48900  0.36400  0.23700  Biso   1.000  H
  H9       1.0000 0.95900  0.24400  0.30300  Biso   1.000  H
  H10      1.0000 0.04100  0.25600  0.80300  Biso   1.000  H
  H11      1.0000 0.45900  0.75600  0.19700  Biso   1.000  H
  H12      1.0000 0.54100  0.74400  0.69700  Biso   1.000  H
  H13      1.0000 0.04100  0.75600  0.69700  Biso   1.000  H
  H14      1.0000 0.95900  0.74400  0.19700  Biso   1.000  H
  H15      1.0000 0.54100  0.24400  0.80300  Biso   1.000  H
  H16      1.0000 0.45900  0.25600  0.30300  Biso   1.000  H
  H17      1.0000 0.11600  0.26400  0.07400  Biso   1.000  H
  H18      1.0000 0.88400  0.23600  0.57400  Biso   1.000  H
  H19      1.0000 0.61600  0.73600  0.42600  Biso   1.000  H
  H20      1.0000 0.38400  0.76400  0.92600  Biso   1.000  H
  H21      1.0000 0.88400  0.73600  0.92600  Biso   1.000  H
  H22      1.0000 0.11600  0.76400  0.42600  Biso   1.000  H
  H23      1.0000 0.38400  0.26400  0.57400  Biso   1.000  H
  H24      1.0000 0.61600  0.23600  0.07400  Biso   1.000  H
  H25      1.0000 0.06900  0.37600  0.13900  Biso   1.000  H
  H26      1.0000 0.93100  0.12400  0.63900  Biso   1.000  H
  H27      1.0000 0.56900  0.62400  0.36100  Biso   1.000  H
  H28      1.0000 0.43100  0.87600  0.86100  Biso   1.000  H
  H29      1.0000 0.93100  0.62400  0.86100  Biso   1.000  H
  H30      1.0000 0.06900  0.87600  0.36100  Biso   1.000  H
  H31      1.0000 0.43100  0.37600  0.63900  Biso   1.000  H
  H32      1.0000 0.56900  0.12400  0.13900  Biso   1.000  H
  H33      1.0000 0.20500  0.44800  0.21100  Biso   1.000  H
  H34      1.0000 0.79500  0.05200  0.71100  Biso   1.000  H
  H35      1.0000 0.70500  0.55200  0.28900  Biso   1.000  H
  H36      1.0000 0.29500  0.94800  0.78900  Biso   1.000  H
  H37      1.0000 0.79500  0.55200  0.78900  Biso   1.000  H
  H38      1.0000 0.20500  0.94800  0.28900  Biso   1.000  H
  H39      1.0000 0.29500  0.44800  0.71100  Biso   1.000  H
  H40      1.0000 0.70500  0.05200  0.21100  Biso   1.000  H
  H41      1.0000 0.21400  0.55000  0.28500  Biso   1.000  H
  H42      1.0000 0.78600  0.95000  0.78500  Biso   1.000  H
  H43      1.0000 0.71400  0.45000  0.21500  Biso   1.000  H
  H44      1.0000 0.28600  0.05000  0.71500  Biso   1.000  H
  H45      1.0000 0.78600  0.45000  0.71500  Biso   1.000  H
  H46      1.0000 0.21400  0.05000  0.21500  Biso   1.000  H
  H47      1.0000 0.28600  0.55000  0.78500  Biso   1.000  H
  H48      1.0000 0.71400  0.95000  0.28500  Biso   1.000  H
  H49      1.0000 0.84500  0.34500  0.34200  Biso   1.000  H
  H50      1.0000 0.15500  0.15500  0.84200  Biso   1.000  H
  H51      1.0000 0.34500  0.65500  0.15800  Biso   1.000  H
  H52      1.0000 0.65500  0.84500  0.65800  Biso   1.000  H
  H53      1.0000 0.15500  0.65500  0.65800  Biso   1.000  H
  H54      1.0000 0.84500  0.84500  0.15800  Biso   1.000  H
  H55      1.0000 0.65500  0.34500  0.84200  Biso   1.000  H
  H56      1.0000 0.34500  0.15500  0.34200  Biso   1.000  H
  H57      1.0000 0.87600  0.45200  0.41200  Biso   1.000  H
  H58      1.0000 0.12400  0.04800  0.91200  Biso   1.000  H
  H59      1.0000 0.37600  0.54800  0.08800  Biso   1.000  H
  H60      1.0000 0.62400  0.95200  0.58800  Biso   1.000  H
  H61      1.0000 0.12400  0.54800  0.58800  Biso   1.000  H
  H62      1.0000 0.87600  0.95200  0.08800  Biso   1.000  H
  H63      1.0000 0.62400  0.45200  0.91200  Biso   1.000  H
  H64      1.0000 0.37600  0.04800  0.41200  Biso   1.000  H
