data_image0
_cell_length_a       8.027
_cell_length_b       23.23
_cell_length_c       6.188
_cell_angle_alpha    90
_cell_angle_beta     90
_cell_angle_gamma    90

_symmetry_space_group_name_H-M    "P 1"
_symmetry_int_tables_number       1

loop_
  _symmetry_equiv_pos_as_xyz
  'x, y, z'

loop_
  _atom_site_label
  _atom_site_occupancy
  _atom_site_fract_x
  _atom_site_fract_y
  _atom_site_fract_z
  _atom_site_thermal_displace_type
  _atom_site_B_iso_or_equiv
  _atom_site_type_symbol
  Cu1      1.0000 0.00000  0.08960  0.25000  Biso   1.000  Cu
  Cu2      1.0000 0.00000  0.91040  0.75000  Biso   1.000  Cu
  Cu3      1.0000 0.50000  0.58960  0.25000  Biso   1.000  Cu
  Cu4      1.0000 0.50000  0.41040  0.75000  Biso   1.000  Cu
  C1       1.0000 0.50000  0.00490  0.25000  Biso   1.000  C
  C2       1.0000 0.50000  0.99510  0.75000  Biso   1.000  C
  C3       1.0000 0.00000  0.50490  0.25000  Biso   1.000  C
  C4       1.0000 0.00000  0.49510  0.75000  Biso   1.000  C
  C5       1.0000 0.34710  0.03340  0.25000  Biso   1.000  C
  C6       1.0000 0.65290  0.96660  0.75000  Biso   1.000  C
  C7       1.0000 0.34710  0.96660  0.75000  Biso   1.000  C
  C8       1.0000 0.65290  0.03340  0.25000  Biso   1.000  C
  C9       1.0000 0.84710  0.53340  0.25000  Biso   1.000  C
  C10      1.0000 0.15290  0.46660  0.75000  Biso   1.000  C
  C11      1.0000 0.84710  0.46660  0.75000  Biso   1.000  C
  C12      1.0000 0.15290  0.53340  0.25000  Biso   1.000  C
  N1       1.0000 0.21760  0.05440  0.25000  Biso   1.000  N
  N2       1.0000 0.78240  0.94560  0.75000  Biso   1.000  N
  N3       1.0000 0.21760  0.94560  0.75000  Biso   1.000  N
  N4       1.0000 0.78240  0.05440  0.25000  Biso   1.000  N
  N5       1.0000 0.71760  0.55440  0.25000  Biso   1.000  N
  N6       1.0000 0.28240  0.44560  0.75000  Biso   1.000  N
  N7       1.0000 0.71760  0.44560  0.75000  Biso   1.000  N
  N8       1.0000 0.28240  0.55440  0.25000  Biso   1.000  N
  C13      1.0000 0.50000  0.94380  0.25000  Biso   1.000  C
  C14      1.0000 0.50000  0.05620  0.75000  Biso   1.000  C
  C15      1.0000 0.00000  0.44380  0.25000  Biso   1.000  C
  C16      1.0000 0.00000  0.55620  0.75000  Biso   1.000  C
  N9       1.0000 0.50000  0.89500  0.25000  Biso   1.000  N
  N10      1.0000 0.50000  0.10500  0.75000  Biso   1.000  N
  N11      1.0000 0.00000  0.39500  0.25000  Biso   1.000  N
  N12      1.0000 0.00000  0.60500  0.75000  Biso   1.000  N
  N13      1.0000 0.00000  0.14170  0.94870  Biso   1.000  N
  N14      1.0000 0.00000  0.85830  0.44870  Biso   1.000  N
  N15      1.0000 0.00000  0.85830  0.05130  Biso   1.000  N
  N16      1.0000 0.00000  0.14170  0.55130  Biso   1.000  N
  N17      1.0000 0.50000  0.64170  0.94870  Biso   1.000  N
  N18      1.0000 0.50000  0.35830  0.44870  Biso   1.000  N
  N19      1.0000 0.50000  0.35830  0.05130  Biso   1.000  N
  N20      1.0000 0.50000  0.64170  0.55130  Biso   1.000  N
  N21      1.0000 0.15150  0.21560  0.75000  Biso   1.000  N
  N22      1.0000 0.84850  0.78440  0.25000  Biso   1.000  N
  N23      1.0000 0.15150  0.78440  0.25000  Biso   1.000  N
  N24      1.0000 0.84850  0.21560  0.75000  Biso   1.000  N
  N25      1.0000 0.65150  0.71560  0.75000  Biso   1.000  N
  N26      1.0000 0.34850  0.28440  0.25000  Biso   1.000  N
  N27      1.0000 0.65150  0.28440  0.25000  Biso   1.000  N
  N28      1.0000 0.34850  0.71560  0.75000  Biso   1.000  N
  C17      1.0000 0.15020  0.17910  0.94140  Biso   1.000  C
  C18      1.0000 0.84980  0.82090  0.44140  Biso   1.000  C
  C19      1.0000 0.15020  0.82090  0.05860  Biso   1.000  C
  C20      1.0000 0.84980  0.17910  0.55860  Biso   1.000  C
  C21      1.0000 0.65020  0.67910  0.94140  Biso   1.000  C
  C22      1.0000 0.34980  0.32090  0.44140  Biso   1.000  C
  C23      1.0000 0.65020  0.32090  0.05860  Biso   1.000  C
  C24      1.0000 0.34980  0.67910  0.55860  Biso   1.000  C
  C25      1.0000 0.84980  0.82090  0.05860  Biso   1.000  C
  C26      1.0000 0.15020  0.17910  0.55860  Biso   1.000  C
  C27      1.0000 0.84980  0.17910  0.94140  Biso   1.000  C
  C28      1.0000 0.15020  0.82090  0.44140  Biso   1.000  C
  C29      1.0000 0.34980  0.32090  0.05860  Biso   1.000  C
  C30      1.0000 0.65020  0.67910  0.55860  Biso   1.000  C
  C31      1.0000 0.34980  0.67910  0.94140  Biso   1.000  C
  C32      1.0000 0.65020  0.32090  0.44140  Biso   1.000  C
  C33      1.0000 0.00000  0.25100  0.75000  Biso   1.000  C
  C34      1.0000 0.00000  0.74900  0.25000  Biso   1.000  C
  C35      1.0000 0.50000  0.75100  0.75000  Biso   1.000  C
  C36      1.0000 0.50000  0.24900  0.25000  Biso   1.000  C
  C37      1.0000 0.00000  0.10650  0.75000  Biso   1.000  C
  C38      1.0000 0.00000  0.89350  0.25000  Biso   1.000  C
  C39      1.0000 0.50000  0.60650  0.75000  Biso   1.000  C
  C40      1.0000 0.50000  0.39350  0.25000  Biso   1.000  C
  H1       1.0000 0.00000  0.27500  0.87700  Biso   1.000  H
  H2       1.0000 0.00000  0.72500  0.37700  Biso   1.000  H
  H3       1.0000 0.00000  0.72500  0.12300  Biso   1.000  H
  H4       1.0000 0.00000  0.27500  0.62300  Biso   1.000  H
  H5       1.0000 0.50000  0.77500  0.87700  Biso   1.000  H
  H6       1.0000 0.50000  0.22500  0.37700  Biso   1.000  H
  H7       1.0000 0.50000  0.22500  0.12300  Biso   1.000  H
  H8       1.0000 0.50000  0.77500  0.62300  Biso   1.000  H
  H9       1.0000 0.10600  0.08100  0.75000  Biso   1.000  H
  H10      1.0000 0.89400  0.91900  0.25000  Biso   1.000  H
  H11      1.0000 0.10600  0.91900  0.25000  Biso   1.000  H
  H12      1.0000 0.89400  0.08100  0.75000  Biso   1.000  H
  H13      1.0000 0.60600  0.58100  0.75000  Biso   1.000  H
  H14      1.0000 0.39400  0.41900  0.25000  Biso   1.000  H
  H15      1.0000 0.60600  0.41900  0.25000  Biso   1.000  H
  H16      1.0000 0.39400  0.58100  0.75000  Biso   1.000  H
  H17      1.0000 0.26000  0.15230  0.94010  Biso   1.000  H
  H18      1.0000 0.74000  0.84770  0.44010  Biso   1.000  H
  H19      1.0000 0.26000  0.84770  0.05990  Biso   1.000  H
  H20      1.0000 0.74000  0.15230  0.55990  Biso   1.000  H
  H21      1.0000 0.76000  0.65230  0.94010  Biso   1.000  H
  H22      1.0000 0.24000  0.34770  0.44010  Biso   1.000  H
  H23      1.0000 0.76000  0.34770  0.05990  Biso   1.000  H
  H24      1.0000 0.24000  0.65230  0.55990  Biso   1.000  H
  H25      1.0000 0.74000  0.84770  0.05990  Biso   1.000  H
  H26      1.0000 0.26000  0.15230  0.55990  Biso   1.000  H
  H27      1.0000 0.74000  0.15230  0.94010  Biso   1.000  H
  H28      1.0000 0.26000  0.84770  0.44010  Biso   1.000  H
  H29      1.0000 0.24000  0.34770  0.05990  Biso   1.000  H
  H30      1.0000 0.76000  0.65230  0.55990  Biso   1.000  H
  H31      1.0000 0.24000  0.65230  0.94010  Biso   1.000  H
  H32      1.0000 0.76000  0.34770  0.44010  Biso   1.000  H
  H33      1.0000 0.15170  0.20620  0.08350  Biso   1.000  H
  H34      1.0000 0.84830  0.79380  0.58350  Biso   1.000  H
  H35      1.0000 0.15170  0.79380  0.91650  Biso   1.000  H
  H36      1.0000 0.84830  0.20620  0.41650  Biso   1.000  H
  H37      1.0000 0.65170  0.70620  0.08350  Biso   1.000  H
  H38      1.0000 0.34830  0.29380  0.58350  Biso   1.000  H
  H39      1.0000 0.65170  0.29380  0.91650  Biso   1.000  H
  H40      1.0000 0.34830  0.70620  0.41650  Biso   1.000  H
  H41      1.0000 0.84830  0.79380  0.91650  Biso   1.000  H
  H42      1.0000 0.15170  0.20620  0.41650  Biso   1.000  H
  H43      1.0000 0.84830  0.20620  0.08350  Biso   1.000  H
  H44      1.0000 0.15170  0.79380  0.58350  Biso   1.000  H
  H45      1.0000 0.34830  0.29380  0.91650  Biso   1.000  H
  H46      1.0000 0.65170  0.70620  0.41650  Biso   1.000  H
  H47      1.0000 0.34830  0.70620  0.08350  Biso   1.000  H
  H48      1.0000 0.65170  0.29380  0.58350  Biso   1.000  H
