data_image0
_cell_length_a       7.882
_cell_length_b       25.465
_cell_length_c       18.713
_cell_angle_alpha    90
_cell_angle_beta     96.63
_cell_angle_gamma    90

_symmetry_space_group_name_H-M    "P 1"
_symmetry_int_tables_number       1

loop_
  _symmetry_equiv_pos_as_xyz
  'x, y, z'

loop_
  _atom_site_label
  _atom_site_occupancy
  _atom_site_fract_x
  _atom_site_fract_y
  _atom_site_fract_z
  _atom_site_thermal_displace_type
  _atom_site_B_iso_or_equiv
  _atom_site_type_symbol
  Cu1      1.0000 0.03780  0.31850  0.23990  Biso   1.000  Cu
  Cu2      1.0000 0.96220  0.81850  0.26010  Biso   1.000  Cu
  Cu3      1.0000 0.96220  0.68150  0.76010  Biso   1.000  Cu
  Cu4      1.0000 0.03780  0.18150  0.73990  Biso   1.000  Cu
  Cu5      1.0000 0.98710  0.93490  0.73290  Biso   1.000  Cu
  Cu6      1.0000 0.01290  0.43490  0.76710  Biso   1.000  Cu
  Cu7      1.0000 0.01290  0.06510  0.26710  Biso   1.000  Cu
  Cu8      1.0000 0.98710  0.56510  0.23290  Biso   1.000  Cu
  C1       1.0000 0.53920  0.40280  0.24230  Biso   1.000  C
  C2       1.0000 0.46080  0.90280  0.25770  Biso   1.000  C
  C3       1.0000 0.46080  0.59720  0.75770  Biso   1.000  C
  C4       1.0000 0.53920  0.09720  0.74230  Biso   1.000  C
  C5       1.0000 0.38550  0.37480  0.23950  Biso   1.000  C
  C6       1.0000 0.61450  0.87480  0.26050  Biso   1.000  C
  C7       1.0000 0.61450  0.62520  0.76050  Biso   1.000  C
  C8       1.0000 0.38550  0.12520  0.73950  Biso   1.000  C
  N1       1.0000 0.25530  0.35490  0.23810  Biso   1.000  N
  N2       1.0000 0.74470  0.85490  0.26190  Biso   1.000  N
  N3       1.0000 0.74470  0.64510  0.76190  Biso   1.000  N
  N4       1.0000 0.25530  0.14510  0.73810  Biso   1.000  N
  C9       1.0000 0.69600  0.37780  0.23810  Biso   1.000  C
  C10      1.0000 0.30400  0.87780  0.26190  Biso   1.000  C
  C11      1.0000 0.30400  0.62220  0.76190  Biso   1.000  C
  C12      1.0000 0.69600  0.12220  0.73810  Biso   1.000  C
  N5       1.0000 0.82370  0.35750  0.23420  Biso   1.000  N
  N6       1.0000 0.17630  0.85750  0.26580  Biso   1.000  N
  N7       1.0000 0.17630  0.64250  0.76580  Biso   1.000  N
  N8       1.0000 0.82370  0.14250  0.73420  Biso   1.000  N
  C13      1.0000 0.53390  0.45720  0.25570  Biso   1.000  C
  C14      1.0000 0.46610  0.95720  0.24430  Biso   1.000  C
  C15      1.0000 0.46610  0.54280  0.74430  Biso   1.000  C
  C16      1.0000 0.53390  0.04280  0.75570  Biso   1.000  C
  N9       1.0000 0.52140  0.50080  0.26900  Biso   1.000  N
  N10      1.0000 0.47860  0.00080  0.23100  Biso   1.000  N
  N11      1.0000 0.47860  0.49920  0.73100  Biso   1.000  N
  N12      1.0000 0.52140  0.99920  0.76900  Biso   1.000  N
  C17      1.0000 0.48990  0.85090  0.74090  Biso   1.000  C
  C18      1.0000 0.51010  0.35090  0.75910  Biso   1.000  C
  C19      1.0000 0.51010  0.14910  0.25910  Biso   1.000  C
  C20      1.0000 0.48990  0.64910  0.24090  Biso   1.000  C
  C21      1.0000 0.33620  0.87830  0.73860  Biso   1.000  C
  C22      1.0000 0.66380  0.37830  0.76140  Biso   1.000  C
  C23      1.0000 0.66380  0.12170  0.26140  Biso   1.000  C
  C24      1.0000 0.33620  0.62170  0.23860  Biso   1.000  C
  N13      1.0000 0.20520  0.89840  0.73740  Biso   1.000  N
  N14      1.0000 0.79480  0.39840  0.76260  Biso   1.000  N
  N15      1.0000 0.79480  0.10160  0.26260  Biso   1.000  N
  N16      1.0000 0.20520  0.60160  0.23740  Biso   1.000  N
  C25      1.0000 0.64560  0.87720  0.73700  Biso   1.000  C
  C26      1.0000 0.35440  0.37720  0.76300  Biso   1.000  C
  C27      1.0000 0.35440  0.12280  0.26300  Biso   1.000  C
  C28      1.0000 0.64560  0.62280  0.23700  Biso   1.000  C
  N17      1.0000 0.77370  0.89710  0.73470  Biso   1.000  N
  N18      1.0000 0.22630  0.39710  0.76530  Biso   1.000  N
  N19      1.0000 0.22630  0.10290  0.26530  Biso   1.000  N
  N20      1.0000 0.77370  0.60290  0.23470  Biso   1.000  N
  C29      1.0000 0.48860  0.79650  0.75080  Biso   1.000  C
  C30      1.0000 0.51140  0.29650  0.74920  Biso   1.000  C
  C31      1.0000 0.51140  0.20350  0.24920  Biso   1.000  C
  C32      1.0000 0.48860  0.70350  0.25080  Biso   1.000  C
  N21      1.0000 0.48430  0.75180  0.75930  Biso   1.000  N
  N22      1.0000 0.51570  0.25180  0.74070  Biso   1.000  N
  N23      1.0000 0.51570  0.24820  0.24070  Biso   1.000  N
  N24      1.0000 0.48430  0.74820  0.25930  Biso   1.000  N
  N25      1.0000 0.99070  0.98980  0.81720  Biso   1.000  N
  N26      1.0000 0.00930  0.48980  0.68280  Biso   1.000  N
  N27      1.0000 0.00930  0.01020  0.18280  Biso   1.000  N
  N28      1.0000 0.99070  0.51020  0.31720  Biso   1.000  N
  C33      1.0000 0.08270  0.03480  0.81820  Biso   1.000  C
  C34      1.0000 0.91730  0.53480  0.68180  Biso   1.000  C
  C35      1.0000 0.91730  0.96520  0.18180  Biso   1.000  C
  C36      1.0000 0.08270  0.46520  0.31820  Biso   1.000  C
  C37      1.0000 0.08210  0.07250  0.86980  Biso   1.000  C
  C38      1.0000 0.91790  0.57250  0.63020  Biso   1.000  C
  C39      1.0000 0.91790  0.92750  0.13020  Biso   1.000  C
  C40      1.0000 0.08210  0.42750  0.36980  Biso   1.000  C
  C41      1.0000 0.98750  0.06530  0.92590  Biso   1.000  C
  C42      1.0000 0.01250  0.56530  0.57410  Biso   1.000  C
  C43      1.0000 0.01250  0.93470  0.07410  Biso   1.000  C
  C44      1.0000 0.98750  0.43470  0.42590  Biso   1.000  C
  C45      1.0000 0.89060  0.02040  0.92390  Biso   1.000  C
  C46      1.0000 0.10940  0.52040  0.57610  Biso   1.000  C
  C47      1.0000 0.10940  0.97960  0.07610  Biso   1.000  C
  C48      1.0000 0.89060  0.47960  0.42390  Biso   1.000  C
  C49      1.0000 0.89580  0.98440  0.87050  Biso   1.000  C
  C50      1.0000 0.10420  0.48440  0.62950  Biso   1.000  C
  C51      1.0000 0.10420  0.01560  0.12950  Biso   1.000  C
  C52      1.0000 0.89580  0.51560  0.37050  Biso   1.000  C
  C53      1.0000 0.97950  0.10320  0.98540  Biso   1.000  C
  C54      1.0000 0.02050  0.60320  0.51460  Biso   1.000  C
  C55      1.0000 0.02050  0.89680  0.01460  Biso   1.000  C
  C56      1.0000 0.97950  0.39680  0.48540  Biso   1.000  C
  C57      1.0000 0.06540  0.14590  0.99530  Biso   1.000  C
  C58      1.0000 0.93460  0.64590  0.50470  Biso   1.000  C
  C59      1.0000 0.93460  0.85410  0.00470  Biso   1.000  C
  C60      1.0000 0.06540  0.35410  0.49530  Biso   1.000  C
  C61      1.0000 0.05710  0.18360  0.05550  Biso   1.000  C
  C62      1.0000 0.94290  0.68360  0.44450  Biso   1.000  C
  C63      1.0000 0.94290  0.81640  0.94450  Biso   1.000  C
  C64      1.0000 0.05710  0.31640  0.55550  Biso   1.000  C
  C65      1.0000 0.13930  0.23130  0.05350  Biso   1.000  C
  C66      1.0000 0.86070  0.73130  0.44650  Biso   1.000  C
  C67      1.0000 0.86070  0.76870  0.94650  Biso   1.000  C
  C68      1.0000 0.13930  0.26870  0.55350  Biso   1.000  C
  C69      1.0000 0.13080  0.26680  0.10740  Biso   1.000  C
  C70      1.0000 0.86920  0.76680  0.39260  Biso   1.000  C
  C71      1.0000 0.86920  0.73320  0.89260  Biso   1.000  C
  C72      1.0000 0.13080  0.23320  0.60740  Biso   1.000  C
  C73      1.0000 0.97090  0.21200  0.16780  Biso   1.000  C
  C74      1.0000 0.02910  0.71200  0.33220  Biso   1.000  C
  C75      1.0000 0.02910  0.78800  0.83220  Biso   1.000  C
  C76      1.0000 0.97090  0.28800  0.66780  Biso   1.000  C
  C77      1.0000 0.97280  0.17390  0.11540  Biso   1.000  C
  C78      1.0000 0.02720  0.67390  0.38460  Biso   1.000  C
  C79      1.0000 0.02720  0.82610  0.88460  Biso   1.000  C
  C80      1.0000 0.97280  0.32610  0.61540  Biso   1.000  C
  N29      1.0000 0.04540  0.25880  0.16450  Biso   1.000  N
  N30      1.0000 0.95460  0.75880  0.33550  Biso   1.000  N
  N31      1.0000 0.95460  0.74120  0.83550  Biso   1.000  N
  N32      1.0000 0.04540  0.24120  0.66450  Biso   1.000  N
  N33      1.0000 0.02960  0.26960  0.33070  Biso   1.000  N
  N34      1.0000 0.97040  0.76960  0.16930  Biso   1.000  N
  N35      1.0000 0.97040  0.73040  0.66930  Biso   1.000  N
  N36      1.0000 0.02960  0.23040  0.83070  Biso   1.000  N
  C81      1.0000 0.87970  0.25920  0.35380  Biso   1.000  C
  C82      1.0000 0.12030  0.75920  0.14620  Biso   1.000  C
  C83      1.0000 0.12030  0.74080  0.64620  Biso   1.000  C
  C84      1.0000 0.87970  0.24080  0.85380  Biso   1.000  C
  C85      1.0000 0.85490  0.21560  0.39520  Biso   1.000  C
  C86      1.0000 0.14510  0.71560  0.10480  Biso   1.000  C
  C87      1.0000 0.14510  0.78440  0.60480  Biso   1.000  C
  C88      1.0000 0.85490  0.28440  0.89520  Biso   1.000  C
  C89      1.0000 0.98570  0.18240  0.41480  Biso   1.000  C
  C90      1.0000 0.01430  0.68240  0.08520  Biso   1.000  C
  C91      1.0000 0.01430  0.81760  0.58520  Biso   1.000  C
  C92      1.0000 0.98570  0.31760  0.91480  Biso   1.000  C
  C93      1.0000 0.14270  0.19320  0.39060  Biso   1.000  C
  C94      1.0000 0.85730  0.69320  0.10940  Biso   1.000  C
  C95      1.0000 0.85730  0.80680  0.60940  Biso   1.000  C
  C96      1.0000 0.14270  0.30680  0.89060  Biso   1.000  C
  C97      1.0000 0.15840  0.23700  0.34980  Biso   1.000  C
  C98      1.0000 0.84160  0.73700  0.15020  Biso   1.000  C
  C99      1.0000 0.84160  0.76300  0.65020  Biso   1.000  C
  C100     1.0000 0.15840  0.26300  0.84980  Biso   1.000  C
  C101     1.0000 0.92990  0.13190  0.46730  Biso   1.000  C
  C102     1.0000 0.07010  0.63190  0.03270  Biso   1.000  C
  C103     1.0000 0.07010  0.86810  0.53270  Biso   1.000  C
  C104     1.0000 0.92990  0.36810  0.96730  Biso   1.000  C
  C105     1.0000 0.04800  0.11300  0.48960  Biso   1.000  C
  C106     1.0000 0.95200  0.61300  0.01040  Biso   1.000  C
  C107     1.0000 0.95200  0.88700  0.51040  Biso   1.000  C
  C108     1.0000 0.04800  0.38700  0.98960  Biso   1.000  C
  N37      1.0000 0.98430  0.98560  0.64700  Biso   1.000  N
  N38      1.0000 0.01570  0.48560  0.85300  Biso   1.000  N
  N39      1.0000 0.01570  0.01440  0.35300  Biso   1.000  N
  N40      1.0000 0.98430  0.51440  0.14700  Biso   1.000  N
  C109     1.0000 0.84370  0.00830  0.61530  Biso   1.000  C
  C110     1.0000 0.15630  0.50830  0.88470  Biso   1.000  C
  C111     1.0000 0.15630  0.99170  0.38470  Biso   1.000  C
  C112     1.0000 0.84370  0.49170  0.11530  Biso   1.000  C
  C113     1.0000 0.84670  0.04780  0.56480  Biso   1.000  C
  C114     1.0000 0.15330  0.54780  0.93520  Biso   1.000  C
  C115     1.0000 0.15330  0.95220  0.43520  Biso   1.000  C
  C116     1.0000 0.84670  0.45220  0.06480  Biso   1.000  C
  C117     1.0000 0.99970  0.06620  0.54760  Biso   1.000  C
  C118     1.0000 0.00030  0.56620  0.95240  Biso   1.000  C
  C119     1.0000 0.00030  0.93380  0.45240  Biso   1.000  C
  C120     1.0000 0.99970  0.43380  0.04760  Biso   1.000  C
  C121     1.0000 0.14600  0.04180  0.57850  Biso   1.000  C
  C122     1.0000 0.85400  0.54180  0.92150  Biso   1.000  C
  C123     1.0000 0.85400  0.95820  0.42150  Biso   1.000  C
  C124     1.0000 0.14600  0.45820  0.07850  Biso   1.000  C
  C125     1.0000 0.13240  0.00340  0.62790  Biso   1.000  C
  C126     1.0000 0.86760  0.50340  0.87210  Biso   1.000  C
  C127     1.0000 0.86760  0.99660  0.37210  Biso   1.000  C
  C128     1.0000 0.13240  0.49660  0.12790  Biso   1.000  C
  N41      1.0000 0.52760  0.31530  0.49460  Biso   1.000  N
  N42      1.0000 0.47240  0.81530  0.00540  Biso   1.000  N
  N43      1.0000 0.47240  0.68470  0.50540  Biso   1.000  N
  N44      1.0000 0.52760  0.18470  0.99460  Biso   1.000  N
  C129     1.0000 0.52110  0.33850  0.55790  Biso   1.000  C
  C130     1.0000 0.47890  0.83850  0.94210  Biso   1.000  C
  C131     1.0000 0.47890  0.66150  0.44210  Biso   1.000  C
  C132     1.0000 0.52110  0.16150  0.05790  Biso   1.000  C
  C133     1.0000 0.51510  0.39130  0.56830  Biso   1.000  C
  C134     1.0000 0.48490  0.89130  0.93170  Biso   1.000  C
  C135     1.0000 0.48490  0.60870  0.43170  Biso   1.000  C
  C136     1.0000 0.51510  0.10870  0.06830  Biso   1.000  C
  C137     1.0000 0.51100  0.42480  0.50990  Biso   1.000  C
  C138     1.0000 0.48900  0.92480  0.99010  Biso   1.000  C
  C139     1.0000 0.48900  0.57520  0.49010  Biso   1.000  C
  C140     1.0000 0.51100  0.07520  0.00990  Biso   1.000  C
  C141     1.0000 0.51510  0.40150  0.44380  Biso   1.000  C
  C142     1.0000 0.48490  0.90150  0.05620  Biso   1.000  C
  C143     1.0000 0.48490  0.59850  0.55620  Biso   1.000  C
  C144     1.0000 0.51510  0.09850  0.94380  Biso   1.000  C
  C145     1.0000 0.52180  0.34790  0.43830  Biso   1.000  C
  C146     1.0000 0.47820  0.84790  0.06170  Biso   1.000  C
  C147     1.0000 0.47820  0.65210  0.56170  Biso   1.000  C
  C148     1.0000 0.52180  0.15210  0.93830  Biso   1.000  C
  C149     1.0000 0.50730  0.48270  0.52370  Biso   1.000  C
  C150     1.0000 0.49270  0.98270  0.97630  Biso   1.000  C
  C151     1.0000 0.49270  0.51730  0.47630  Biso   1.000  C
  C152     1.0000 0.50730  0.01730  0.02370  Biso   1.000  C
  N45      1.0000 0.47130  0.13040  0.51640  Biso   1.000  N
  N46      1.0000 0.52870  0.63040  0.98360  Biso   1.000  N
  N47      1.0000 0.52870  0.86960  0.48360  Biso   1.000  N
  N48      1.0000 0.47130  0.36960  0.01640  Biso   1.000  N
  C153     1.0000 0.54340  0.16310  0.54600  Biso   1.000  C
  C154     1.0000 0.45660  0.66310  0.95400  Biso   1.000  C
  C155     1.0000 0.45660  0.83690  0.45400  Biso   1.000  C
  C156     1.0000 0.54340  0.33690  0.04600  Biso   1.000  C
  C157     1.0000 0.64170  0.20220  0.58180  Biso   1.000  C
  C158     1.0000 0.35830  0.70220  0.91820  Biso   1.000  C
  C159     1.0000 0.35830  0.79780  0.41820  Biso   1.000  C
  C160     1.0000 0.64170  0.29780  0.08180  Biso   1.000  C
  H1       1.0000 0.16130  0.04120  0.77540  Biso   1.000  H
  H2       1.0000 0.83870  0.54120  0.72460  Biso   1.000  H
  H3       1.0000 0.83870  0.95880  0.22460  Biso   1.000  H
  H4       1.0000 0.16130  0.45880  0.27540  Biso   1.000  H
  H5       1.0000 0.15610  0.10800  0.86650  Biso   1.000  H
  H6       1.0000 0.84390  0.60800  0.63350  Biso   1.000  H
  H7       1.0000 0.84390  0.89200  0.13350  Biso   1.000  H
  H8       1.0000 0.15610  0.39200  0.36650  Biso   1.000  H
  H9       1.0000 0.80890  0.01360  0.96550  Biso   1.000  H
  H10      1.0000 0.19110  0.51360  0.53450  Biso   1.000  H
  H11      1.0000 0.19110  0.98640  0.03450  Biso   1.000  H
  H12      1.0000 0.80890  0.48640  0.46550  Biso   1.000  H
  H13      1.0000 0.81810  0.94950  0.87170  Biso   1.000  H
  H14      1.0000 0.18190  0.44950  0.62830  Biso   1.000  H
  H15      1.0000 0.18190  0.05050  0.12830  Biso   1.000  H
  H16      1.0000 0.81810  0.55050  0.37170  Biso   1.000  H
  H17      1.0000 0.89290  0.09400  0.02430  Biso   1.000  H
  H18      1.0000 0.10710  0.59400  0.47570  Biso   1.000  H
  H19      1.0000 0.10710  0.90600  0.97570  Biso   1.000  H
  H20      1.0000 0.89290  0.40600  0.52430  Biso   1.000  H
  H21      1.0000 0.15180  0.15530  0.95640  Biso   1.000  H
  H22      1.0000 0.84820  0.65530  0.54360  Biso   1.000  H
  H23      1.0000 0.84820  0.84470  0.04360  Biso   1.000  H
  H24      1.0000 0.15180  0.34470  0.45640  Biso   1.000  H
  H25      1.0000 0.21050  0.24050  0.00910  Biso   1.000  H
  H26      1.0000 0.78950  0.74050  0.49090  Biso   1.000  H
  H27      1.0000 0.78950  0.75950  0.99090  Biso   1.000  H
  H28      1.0000 0.21050  0.25950  0.50910  Biso   1.000  H
  H29      1.0000 0.19690  0.30380  0.10400  Biso   1.000  H
  H30      1.0000 0.80310  0.80380  0.39600  Biso   1.000  H
  H31      1.0000 0.80310  0.69620  0.89600  Biso   1.000  H
  H32      1.0000 0.19690  0.19620  0.60400  Biso   1.000  H
  H33      1.0000 0.90530  0.20340  0.21400  Biso   1.000  H
  H34      1.0000 0.09470  0.70340  0.28600  Biso   1.000  H
  H35      1.0000 0.09470  0.79660  0.78600  Biso   1.000  H
  H36      1.0000 0.90530  0.29660  0.71400  Biso   1.000  H
  H37      1.0000 0.90910  0.13680  0.12100  Biso   1.000  H
  H38      1.0000 0.09090  0.63680  0.37900  Biso   1.000  H
  H39      1.0000 0.09090  0.86320  0.87900  Biso   1.000  H
  H40      1.0000 0.90910  0.36320  0.62100  Biso   1.000  H
  H41      1.0000 0.77420  0.28580  0.33970  Biso   1.000  H
  H42      1.0000 0.22580  0.78580  0.16030  Biso   1.000  H
  H43      1.0000 0.22580  0.71420  0.66030  Biso   1.000  H
  H44      1.0000 0.77420  0.21420  0.83970  Biso   1.000  H
  H45      1.0000 0.73060  0.20800  0.41190  Biso   1.000  H
  H46      1.0000 0.26940  0.70800  0.08810  Biso   1.000  H
  H47      1.0000 0.26940  0.79200  0.58810  Biso   1.000  H
  H48      1.0000 0.73060  0.29200  0.91190  Biso   1.000  H
  H49      1.0000 0.25030  0.16730  0.40390  Biso   1.000  H
  H50      1.0000 0.74970  0.66730  0.09610  Biso   1.000  H
  H51      1.0000 0.74970  0.83270  0.59610  Biso   1.000  H
  H52      1.0000 0.25030  0.33270  0.90390  Biso   1.000  H
  H53      1.0000 0.28120  0.24560  0.33220  Biso   1.000  H
  H54      1.0000 0.71880  0.74560  0.16780  Biso   1.000  H
  H55      1.0000 0.71880  0.75440  0.66780  Biso   1.000  H
  H56      1.0000 0.28120  0.25440  0.83220  Biso   1.000  H
  H57      1.0000 0.80200  0.12070  0.47660  Biso   1.000  H
  H58      1.0000 0.19800  0.62070  0.02340  Biso   1.000  H
  H59      1.0000 0.19800  0.87930  0.52340  Biso   1.000  H
  H60      1.0000 0.80200  0.37930  0.97660  Biso   1.000  H
  H61      1.0000 0.17440  0.12270  0.47670  Biso   1.000  H
  H62      1.0000 0.82560  0.62270  0.02330  Biso   1.000  H
  H63      1.0000 0.82560  0.87730  0.52330  Biso   1.000  H
  H64      1.0000 0.17440  0.37730  0.97670  Biso   1.000  H
  H65      1.0000 0.72160  0.99520  0.62950  Biso   1.000  H
  H66      1.0000 0.27840  0.49520  0.87050  Biso   1.000  H
  H67      1.0000 0.27840  0.00480  0.37050  Biso   1.000  H
  H68      1.0000 0.72160  0.50480  0.12950  Biso   1.000  H
  H69      1.0000 0.72860  0.06420  0.53910  Biso   1.000  H
  H70      1.0000 0.27140  0.56420  0.96090  Biso   1.000  H
  H71      1.0000 0.27140  0.93580  0.46090  Biso   1.000  H
  H72      1.0000 0.72860  0.43580  0.03910  Biso   1.000  H
  H73      1.0000 0.26940  0.05290  0.56360  Biso   1.000  H
  H74      1.0000 0.73060  0.55290  0.93640  Biso   1.000  H
  H75      1.0000 0.73060  0.94710  0.43640  Biso   1.000  H
  H76      1.0000 0.26940  0.44710  0.06360  Biso   1.000  H
  H77      1.0000 0.24890  0.98600  0.65350  Biso   1.000  H
  H78      1.0000 0.75110  0.48600  0.84650  Biso   1.000  H
  H79      1.0000 0.75110  0.01400  0.34650  Biso   1.000  H
  H80      1.0000 0.24890  0.51400  0.15350  Biso   1.000  H
  H81      1.0000 0.52050  0.31350  0.60460  Biso   1.000  H
  H82      1.0000 0.47950  0.81350  0.89540  Biso   1.000  H
  H83      1.0000 0.47950  0.68650  0.39540  Biso   1.000  H
  H84      1.0000 0.52050  0.18650  0.10460  Biso   1.000  H
  H85      1.0000 0.51340  0.40700  0.62180  Biso   1.000  H
  H86      1.0000 0.48660  0.90700  0.87820  Biso   1.000  H
  H87      1.0000 0.48660  0.59300  0.37820  Biso   1.000  H
  H88      1.0000 0.51340  0.09300  0.12180  Biso   1.000  H
  H89      1.0000 0.51300  0.42560  0.39610  Biso   1.000  H
  H90      1.0000 0.48700  0.92560  0.10390  Biso   1.000  H
  H91      1.0000 0.48700  0.57440  0.60390  Biso   1.000  H
  H92      1.0000 0.51300  0.07440  0.89610  Biso   1.000  H
  H93      1.0000 0.52240  0.33090  0.38540  Biso   1.000  H
  H94      1.0000 0.47760  0.83090  0.11460  Biso   1.000  H
  H95      1.0000 0.47760  0.66910  0.61460  Biso   1.000  H
  H96      1.0000 0.52240  0.16910  0.88540  Biso   1.000  H
  H97      1.0000 0.51810  0.49550  0.57910  Biso   1.000  H
  H98      1.0000 0.48190  0.99550  0.92090  Biso   1.000  H
  H99      1.0000 0.48190  0.50450  0.42090  Biso   1.000  H
  H100     1.0000 0.51810  0.00450  0.07910  Biso   1.000  H
  H101     1.0000 0.55960  0.23080  0.60270  Biso   1.000  H
  H102     1.0000 0.44040  0.73080  0.89730  Biso   1.000  H
  H103     1.0000 0.44040  0.76920  0.39730  Biso   1.000  H
  H104     1.0000 0.55960  0.26920  0.10270  Biso   1.000  H
  H105     1.0000 0.71790  0.22120  0.54490  Biso   1.000  H
  H106     1.0000 0.28210  0.72120  0.95510  Biso   1.000  H
  H107     1.0000 0.28210  0.77880  0.45510  Biso   1.000  H
  H108     1.0000 0.71790  0.27880  0.04490  Biso   1.000  H
  H109     1.0000 0.72450  0.18510  0.62570  Biso   1.000  H
  H110     1.0000 0.27550  0.68510  0.87430  Biso   1.000  H
  H111     1.0000 0.27550  0.81490  0.37430  Biso   1.000  H
  H112     1.0000 0.72450  0.31490  0.12570  Biso   1.000  H
