data_image0
_cell_length_a       14.0321
_cell_length_b       15.057
_cell_length_c       21.996
_cell_angle_alpha    90
_cell_angle_beta     91.277
_cell_angle_gamma    90

_symmetry_space_group_name_H-M    "P 1"
_symmetry_int_tables_number       1

loop_
  _symmetry_equiv_pos_as_xyz
  'x, y, z'

loop_
  _atom_site_label
  _atom_site_occupancy
  _atom_site_fract_x
  _atom_site_fract_y
  _atom_site_fract_z
  _atom_site_thermal_displace_type
  _atom_site_B_iso_or_equiv
  _atom_site_type_symbol
  Br1      1.0000 0.14069  0.68666  0.23523  Biso   1.000  Br
  Br2      1.0000 0.35931  0.18666  0.26477  Biso   1.000  Br
  Br3      1.0000 0.85931  0.31334  0.76477  Biso   1.000  Br
  Br4      1.0000 0.64069  0.81334  0.73523  Biso   1.000  Br
  Br5      1.0000 0.88633  0.79515  0.23142  Biso   1.000  Br
  Br6      1.0000 0.61367  0.29515  0.26858  Biso   1.000  Br
  Br7      1.0000 0.11367  0.20485  0.76858  Biso   1.000  Br
  Br8      1.0000 0.38633  0.70485  0.73142  Biso   1.000  Br
  C1       1.0000 0.11266  0.92228  0.31564  Biso   1.000  C
  C2       1.0000 0.38734  0.42228  0.18436  Biso   1.000  C
  C3       1.0000 0.88734  0.07772  0.68436  Biso   1.000  C
  C4       1.0000 0.61266  0.57772  0.81564  Biso   1.000  C
  H1       1.0000 0.16090  0.87460  0.32000  Biso   1.000  H
  H2       1.0000 0.33910  0.37460  0.18000  Biso   1.000  H
  H3       1.0000 0.83910  0.12540  0.68000  Biso   1.000  H
  H4       1.0000 0.66090  0.62540  0.82000  Biso   1.000  H
  H5       1.0000 0.05860  0.89860  0.29090  Biso   1.000  H
  H6       1.0000 0.44140  0.39860  0.20910  Biso   1.000  H
  H7       1.0000 0.94140  0.10140  0.70910  Biso   1.000  H
  H8       1.0000 0.55860  0.60140  0.79090  Biso   1.000  H
  C5       1.0000 0.15662  0.00072  0.28203  Biso   1.000  C
  C6       1.0000 0.34338  0.50072  0.21797  Biso   1.000  C
  C7       1.0000 0.84338  0.99928  0.71797  Biso   1.000  C
  C8       1.0000 0.65662  0.49928  0.78203  Biso   1.000  C
  H9       1.0000 0.10800  0.04800  0.27720  Biso   1.000  H
  H10      1.0000 0.39200  0.54800  0.22280  Biso   1.000  H
  H11      1.0000 0.89200  0.95200  0.72280  Biso   1.000  H
  H12      1.0000 0.60800  0.45200  0.77720  Biso   1.000  H
  H13      1.0000 0.20990  0.02510  0.30720  Biso   1.000  H
  H14      1.0000 0.29010  0.52510  0.19280  Biso   1.000  H
  H15      1.0000 0.79010  0.97490  0.69280  Biso   1.000  H
  H16      1.0000 0.70990  0.47490  0.80720  Biso   1.000  H
  C9       1.0000 0.19380  0.97670  0.21959  Biso   1.000  C
  C10      1.0000 0.30620  0.47670  0.28041  Biso   1.000  C
  C11      1.0000 0.80620  0.02330  0.78041  Biso   1.000  C
  C12      1.0000 0.69380  0.52330  0.71959  Biso   1.000  C
  H17      1.0000 0.24250  0.92960  0.22490  Biso   1.000  H
  H18      1.0000 0.25750  0.42960  0.27510  Biso   1.000  H
  H19      1.0000 0.75750  0.07040  0.77510  Biso   1.000  H
  H20      1.0000 0.74250  0.57040  0.72490  Biso   1.000  H
  H21      1.0000 0.22610  0.02950  0.20290  Biso   1.000  H
  H22      1.0000 0.27390  0.52950  0.29710  Biso   1.000  H
  H23      1.0000 0.77390  0.97050  0.79710  Biso   1.000  H
  H24      1.0000 0.72610  0.47050  0.70290  Biso   1.000  H
  C13      1.0000 0.02014  0.02613  0.16083  Biso   1.000  C
  C14      1.0000 0.47986  0.52613  0.33917  Biso   1.000  C
  C15      1.0000 0.97986  0.97387  0.83917  Biso   1.000  C
  C16      1.0000 0.52014  0.47387  0.66083  Biso   1.000  C
  C17      1.0000 0.04570  0.11519  0.16752  Biso   1.000  C
  C18      1.0000 0.45430  0.61519  0.33248  Biso   1.000  C
  C19      1.0000 0.95430  0.88481  0.83248  Biso   1.000  C
  C20      1.0000 0.54570  0.38481  0.66752  Biso   1.000  C
  H25      1.0000 0.11010  0.13090  0.17620  Biso   1.000  H
  H26      1.0000 0.38990  0.63090  0.32380  Biso   1.000  H
  H27      1.0000 0.88990  0.86910  0.82380  Biso   1.000  H
  H28      1.0000 0.61010  0.36910  0.67620  Biso   1.000  H
  C21      1.0000 0.97670  0.18081  0.16142  Biso   1.000  C
  C22      1.0000 0.52330  0.68081  0.33858  Biso   1.000  C
  C23      1.0000 0.02330  0.81919  0.83858  Biso   1.000  C
  C24      1.0000 0.47670  0.31919  0.66142  Biso   1.000  C
  H29      1.0000 0.99460  0.24120  0.16700  Biso   1.000  H
  H30      1.0000 0.50540  0.74120  0.33300  Biso   1.000  H
  H31      1.0000 0.00540  0.75880  0.83300  Biso   1.000  H
  H32      1.0000 0.49460  0.25880  0.66700  Biso   1.000  H
  C25      1.0000 0.88200  0.16064  0.14742  Biso   1.000  C
  C26      1.0000 0.61800  0.66064  0.35258  Biso   1.000  C
  C27      1.0000 0.11800  0.83936  0.85258  Biso   1.000  C
  C28      1.0000 0.38200  0.33936  0.64742  Biso   1.000  C
  C29      1.0000 0.80800  0.23310  0.14113  Biso   1.000  C
  C30      1.0000 0.69200  0.73310  0.35887  Biso   1.000  C
  C31      1.0000 0.19200  0.76690  0.85887  Biso   1.000  C
  C32      1.0000 0.30800  0.26690  0.64113  Biso   1.000  C
  H33      1.0000 0.77510  0.23990  0.17970  Biso   1.000  H
  H34      1.0000 0.72490  0.73990  0.32030  Biso   1.000  H
  H35      1.0000 0.22490  0.76010  0.82030  Biso   1.000  H
  H36      1.0000 0.27510  0.26010  0.67970  Biso   1.000  H
  H37      1.0000 0.76180  0.21720  0.10890  Biso   1.000  H
  H38      1.0000 0.73820  0.71720  0.39110  Biso   1.000  H
  H39      1.0000 0.23820  0.78280  0.89110  Biso   1.000  H
  H40      1.0000 0.26180  0.28280  0.60890  Biso   1.000  H
  H41      1.0000 0.83920  0.28910  0.13070  Biso   1.000  H
  H42      1.0000 0.66080  0.78910  0.36930  Biso   1.000  H
  H43      1.0000 0.16080  0.71090  0.86930  Biso   1.000  H
  H44      1.0000 0.33920  0.21090  0.63070  Biso   1.000  H
  C33      1.0000 0.85800  0.07152  0.14023  Biso   1.000  C
  C34      1.0000 0.64200  0.57152  0.35977  Biso   1.000  C
  C35      1.0000 0.14200  0.92848  0.85977  Biso   1.000  C
  C36      1.0000 0.35800  0.42848  0.64023  Biso   1.000  C
  H45      1.0000 0.79390  0.05610  0.13020  Biso   1.000  H
  H46      1.0000 0.70610  0.55610  0.36980  Biso   1.000  H
  H47      1.0000 0.20610  0.94390  0.86980  Biso   1.000  H
  H48      1.0000 0.29390  0.44390  0.63020  Biso   1.000  H
  C37      1.0000 0.92552  0.00441  0.14736  Biso   1.000  C
  C38      1.0000 0.57448  0.50441  0.35264  Biso   1.000  C
  C39      1.0000 0.07448  0.99559  0.85264  Biso   1.000  C
  C40      1.0000 0.42552  0.49559  0.64736  Biso   1.000  C
  H49      1.0000 0.90710  0.94400  0.14300  Biso   1.000  H
  H50      1.0000 0.59290  0.44400  0.35700  Biso   1.000  H
  H51      1.0000 0.09290  0.05600  0.85700  Biso   1.000  H
  H52      1.0000 0.40710  0.55600  0.64300  Biso   1.000  H
  C41      1.0000 0.80815  0.10070  0.34482  Biso   1.000  C
  C42      1.0000 0.69185  0.60070  0.15518  Biso   1.000  C
  C43      1.0000 0.19185  0.89930  0.65518  Biso   1.000  C
  C44      1.0000 0.30815  0.39930  0.84482  Biso   1.000  C
  H53      1.0000 0.75680  0.13840  0.36110  Biso   1.000  H
  H54      1.0000 0.74320  0.63840  0.13890  Biso   1.000  H
  H55      1.0000 0.24320  0.86160  0.63890  Biso   1.000  H
  H56      1.0000 0.25680  0.36160  0.86110  Biso   1.000  H
  H57      1.0000 0.85000  0.13980  0.32100  Biso   1.000  H
  H58      1.0000 0.65000  0.63980  0.17900  Biso   1.000  H
  H59      1.0000 0.15000  0.86020  0.67900  Biso   1.000  H
  H60      1.0000 0.35000  0.36020  0.82100  Biso   1.000  H
  C45      1.0000 0.76183  0.03353  0.30059  Biso   1.000  C
  C46      1.0000 0.73817  0.53353  0.19941  Biso   1.000  C
  C47      1.0000 0.23817  0.96647  0.69941  Biso   1.000  C
  C48      1.0000 0.26183  0.46647  0.80059  Biso   1.000  C
  H61      1.0000 0.73990  0.06550  0.26350  Biso   1.000  H
  H62      1.0000 0.76010  0.56550  0.23650  Biso   1.000  H
  H63      1.0000 0.26010  0.93450  0.73650  Biso   1.000  H
  H64      1.0000 0.23990  0.43450  0.76350  Biso   1.000  H
  H65      1.0000 0.81070  0.99000  0.28840  Biso   1.000  H
  H66      1.0000 0.68930  0.49000  0.21160  Biso   1.000  H
  H67      1.0000 0.18930  0.01000  0.71160  Biso   1.000  H
  H68      1.0000 0.31070  0.51000  0.78840  Biso   1.000  H
  C49      1.0000 0.67786  0.98351  0.32666  Biso   1.000  C
  C50      1.0000 0.82214  0.48351  0.17334  Biso   1.000  C
  C51      1.0000 0.32214  0.01649  0.67334  Biso   1.000  C
  C52      1.0000 0.17786  0.51649  0.82666  Biso   1.000  C
  H69      1.0000 0.69950  0.95020  0.36320  Biso   1.000  H
  H70      1.0000 0.80050  0.45020  0.13680  Biso   1.000  H
  H71      1.0000 0.30050  0.04980  0.63680  Biso   1.000  H
  H72      1.0000 0.19950  0.54980  0.86320  Biso   1.000  H
  H73      1.0000 0.65360  0.94010  0.29630  Biso   1.000  H
  H74      1.0000 0.84640  0.44010  0.20370  Biso   1.000  H
  H75      1.0000 0.34640  0.05990  0.70370  Biso   1.000  H
  H76      1.0000 0.15360  0.55990  0.79630  Biso   1.000  H
  C53      1.0000 0.49292  0.97828  0.36404  Biso   1.000  C
  C54      1.0000 0.00708  0.47828  0.13596  Biso   1.000  C
  C55      1.0000 0.50708  0.02172  0.63596  Biso   1.000  C
  C56      1.0000 0.99292  0.52172  0.86404  Biso   1.000  C
  C57      1.0000 0.48560  0.94880  0.42387  Biso   1.000  C
  C58      1.0000 0.01440  0.44880  0.07613  Biso   1.000  C
  C59      1.0000 0.51440  0.05120  0.57613  Biso   1.000  C
  C60      1.0000 0.98560  0.55120  0.92387  Biso   1.000  C
  H77      1.0000 0.52630  0.97270  0.45480  Biso   1.000  H
  H78      1.0000 0.97370  0.47270  0.04520  Biso   1.000  H
  H79      1.0000 0.47370  0.02730  0.54520  Biso   1.000  H
  H80      1.0000 0.02630  0.52730  0.95480  Biso   1.000  H
  C61      1.0000 0.41920  0.88460  0.43810  Biso   1.000  C
  C62      1.0000 0.08080  0.38460  0.06190  Biso   1.000  C
  C63      1.0000 0.58080  0.11540  0.56190  Biso   1.000  C
  C64      1.0000 0.91920  0.61540  0.93810  Biso   1.000  C
  H81      1.0000 0.41400  0.86550  0.47910  Biso   1.000  H
  H82      1.0000 0.08600  0.36550  0.02090  Biso   1.000  H
  H83      1.0000 0.58600  0.13450  0.52090  Biso   1.000  H
  H84      1.0000 0.91400  0.63450  0.97910  Biso   1.000  H
  C65      1.0000 0.35946  0.84740  0.39331  Biso   1.000  C
  C66      1.0000 0.14054  0.34740  0.10669  Biso   1.000  C
  C67      1.0000 0.64054  0.15260  0.60669  Biso   1.000  C
  C68      1.0000 0.85946  0.65260  0.89331  Biso   1.000  C
  C69      1.0000 0.28870  0.77590  0.40933  Biso   1.000  C
  C70      1.0000 0.21130  0.27590  0.09067  Biso   1.000  C
  C71      1.0000 0.71130  0.22410  0.59067  Biso   1.000  C
  C72      1.0000 0.78870  0.72410  0.90933  Biso   1.000  C
  H85      1.0000 0.24220  0.80010  0.43750  Biso   1.000  H
  H86      1.0000 0.25780  0.30010  0.06250  Biso   1.000  H
  H87      1.0000 0.75780  0.19990  0.56250  Biso   1.000  H
  H88      1.0000 0.74220  0.69990  0.93750  Biso   1.000  H
  H89      1.0000 0.32240  0.72600  0.42860  Biso   1.000  H
  H90      1.0000 0.17760  0.22600  0.07140  Biso   1.000  H
  H91      1.0000 0.67760  0.27400  0.57140  Biso   1.000  H
  H92      1.0000 0.82240  0.77400  0.92860  Biso   1.000  H
  H93      1.0000 0.25550  0.75540  0.37230  Biso   1.000  H
  H94      1.0000 0.24450  0.25540  0.12770  Biso   1.000  H
  H95      1.0000 0.74450  0.24460  0.62770  Biso   1.000  H
  H96      1.0000 0.75550  0.74460  0.87230  Biso   1.000  H
  C73      1.0000 0.36875  0.87650  0.33375  Biso   1.000  C
  C74      1.0000 0.13125  0.37650  0.16625  Biso   1.000  C
  C75      1.0000 0.63125  0.12350  0.66625  Biso   1.000  C
  C76      1.0000 0.86875  0.62350  0.83375  Biso   1.000  C
  H97      1.0000 0.32980  0.85090  0.30250  Biso   1.000  H
  H98      1.0000 0.17020  0.35090  0.19750  Biso   1.000  H
  H99      1.0000 0.67020  0.14910  0.69750  Biso   1.000  H
  H100     1.0000 0.82980  0.64910  0.80250  Biso   1.000  H
  C77      1.0000 0.43355  0.94200  0.31896  Biso   1.000  C
  C78      1.0000 0.06645  0.44200  0.18104  Biso   1.000  C
  C79      1.0000 0.56645  0.05800  0.68104  Biso   1.000  C
  C80      1.0000 0.93355  0.55800  0.81896  Biso   1.000  C
  H101     1.0000 0.43740  0.96220  0.27820  Biso   1.000  H
  H102     1.0000 0.06260  0.46220  0.22180  Biso   1.000  H
  H103     1.0000 0.56260  0.03780  0.72180  Biso   1.000  H
  H104     1.0000 0.93740  0.53780  0.77820  Biso   1.000  H
  C81      1.0000 0.71069  0.86950  0.52101  Biso   1.000  C
  C82      1.0000 0.78931  0.36950  0.97899  Biso   1.000  C
  C83      1.0000 0.28931  0.13050  0.47899  Biso   1.000  C
  C84      1.0000 0.21069  0.63050  0.02101  Biso   1.000  C
  H105     1.0000 0.66800  0.90770  0.54490  Biso   1.000  H
  H106     1.0000 0.83200  0.40770  0.95510  Biso   1.000  H
  H107     1.0000 0.33200  0.09230  0.45510  Biso   1.000  H
  H108     1.0000 0.16800  0.59230  0.04490  Biso   1.000  H
  H109     1.0000 0.68090  0.86180  0.48010  Biso   1.000  H
  H110     1.0000 0.81910  0.36180  0.01990  Biso   1.000  H
  H111     1.0000 0.31910  0.13820  0.51990  Biso   1.000  H
  H112     1.0000 0.18090  0.63820  0.98010  Biso   1.000  H
  C85      1.0000 0.71806  0.77773  0.55204  Biso   1.000  C
  C86      1.0000 0.78194  0.27773  0.94796  Biso   1.000  C
  C87      1.0000 0.28194  0.22227  0.44796  Biso   1.000  C
  C88      1.0000 0.21806  0.72227  0.05204  Biso   1.000  C
  H113     1.0000 0.77680  0.74780  0.53870  Biso   1.000  H
  H114     1.0000 0.72320  0.24780  0.96130  Biso   1.000  H
  H115     1.0000 0.22320  0.25220  0.46130  Biso   1.000  H
  H116     1.0000 0.27680  0.75220  0.03870  Biso   1.000  H
  H117     1.0000 0.72370  0.78630  0.59660  Biso   1.000  H
  H118     1.0000 0.77630  0.28630  0.90340  Biso   1.000  H
  H119     1.0000 0.27630  0.21370  0.40340  Biso   1.000  H
  H120     1.0000 0.22370  0.71370  0.09660  Biso   1.000  H
  C89      1.0000 0.63219  0.71755  0.53770  Biso   1.000  C
  C90      1.0000 0.86781  0.21755  0.96230  Biso   1.000  C
  C91      1.0000 0.36781  0.28245  0.46230  Biso   1.000  C
  C92      1.0000 0.13219  0.78245  0.03770  Biso   1.000  C
  H121     1.0000 0.64690  0.65600  0.55070  Biso   1.000  H
  H122     1.0000 0.85310  0.15600  0.94930  Biso   1.000  H
  H123     1.0000 0.35310  0.34400  0.44930  Biso   1.000  H
  H124     1.0000 0.14690  0.84400  0.05070  Biso   1.000  H
  H125     1.0000 0.61900  0.71710  0.49330  Biso   1.000  H
  H126     1.0000 0.88100  0.21710  0.00670  Biso   1.000  H
  H127     1.0000 0.38100  0.28290  0.50670  Biso   1.000  H
  H128     1.0000 0.11900  0.78290  0.99330  Biso   1.000  H
  C93      1.0000 0.43624  0.68655  0.54719  Biso   1.000  C
  C94      1.0000 0.06376  0.18655  0.95281  Biso   1.000  C
  C95      1.0000 0.56376  0.31345  0.45281  Biso   1.000  C
  C96      1.0000 0.93624  0.81345  0.04719  Biso   1.000  C
  C97      1.0000 0.34618  0.70005  0.57077  Biso   1.000  C
  C98      1.0000 0.15382  0.20005  0.92923  Biso   1.000  C
  C99      1.0000 0.65382  0.29995  0.42923  Biso   1.000  C
  C100     1.0000 0.84618  0.79995  0.07077  Biso   1.000  C
  H129     1.0000 0.33560  0.74770  0.59820  Biso   1.000  H
  H130     1.0000 0.16440  0.24770  0.90180  Biso   1.000  H
  H131     1.0000 0.66440  0.25230  0.40180  Biso   1.000  H
  H132     1.0000 0.83560  0.75230  0.09820  Biso   1.000  H
  C101     1.0000 0.27188  0.64375  0.55412  Biso   1.000  C
  C102     1.0000 0.22812  0.14375  0.94588  Biso   1.000  C
  C103     1.0000 0.72812  0.35625  0.44588  Biso   1.000  C
  C104     1.0000 0.77188  0.85625  0.05412  Biso   1.000  C
  H133     1.0000 0.21080  0.65290  0.57080  Biso   1.000  H
  H134     1.0000 0.28920  0.15290  0.92920  Biso   1.000  H
  H135     1.0000 0.78920  0.34710  0.42920  Biso   1.000  H
  H136     1.0000 0.71080  0.84710  0.07080  Biso   1.000  H
  C105     1.0000 0.28504  0.57409  0.51352  Biso   1.000  C
  C106     1.0000 0.21496  0.07409  0.98648  Biso   1.000  C
  C107     1.0000 0.71496  0.42591  0.48648  Biso   1.000  C
  C108     1.0000 0.78504  0.92591  0.01352  Biso   1.000  C
  C109     1.0000 0.20600  0.51020  0.49749  Biso   1.000  C
  C110     1.0000 0.29400  0.01020  0.00251  Biso   1.000  C
  C111     1.0000 0.79400  0.48980  0.50251  Biso   1.000  C
  C112     1.0000 0.70600  0.98980  0.99749  Biso   1.000  C
  H137     1.0000 0.22020  0.45210  0.51560  Biso   1.000  H
  H138     1.0000 0.27980  0.95210  0.98440  Biso   1.000  H
  H139     1.0000 0.77980  0.54790  0.48440  Biso   1.000  H
  H140     1.0000 0.72020  0.04790  0.01560  Biso   1.000  H
  H141     1.0000 0.20040  0.50430  0.45320  Biso   1.000  H
  H142     1.0000 0.29960  0.00430  0.04680  Biso   1.000  H
  H143     1.0000 0.79960  0.49570  0.54680  Biso   1.000  H
  H144     1.0000 0.70040  0.99570  0.95320  Biso   1.000  H
  H145     1.0000 0.14580  0.53260  0.51330  Biso   1.000  H
  H146     1.0000 0.35420  0.03260  0.98670  Biso   1.000  H
  H147     1.0000 0.85420  0.46740  0.48670  Biso   1.000  H
  H148     1.0000 0.64580  0.96740  0.01330  Biso   1.000  H
  C113     1.0000 0.37467  0.56406  0.48876  Biso   1.000  C
  C114     1.0000 0.12533  0.06406  0.01124  Biso   1.000  C
  C115     1.0000 0.62533  0.43594  0.51124  Biso   1.000  C
  C116     1.0000 0.87467  0.93594  0.98876  Biso   1.000  C
  H149     1.0000 0.38450  0.51830  0.45980  Biso   1.000  H
  H150     1.0000 0.11550  0.01830  0.04020  Biso   1.000  H
  H151     1.0000 0.61550  0.48170  0.54020  Biso   1.000  H
  H152     1.0000 0.88450  0.98170  0.95980  Biso   1.000  H
  C117     1.0000 0.45030  0.61920  0.50531  Biso   1.000  C
  C118     1.0000 0.04970  0.11920  0.99469  Biso   1.000  C
  C119     1.0000 0.54970  0.38080  0.49469  Biso   1.000  C
  C120     1.0000 0.95030  0.88080  0.00531  Biso   1.000  C
  H153     1.0000 0.51110  0.61080  0.48810  Biso   1.000  H
  H154     1.0000 0.98890  0.11080  0.01190  Biso   1.000  H
  H155     1.0000 0.48890  0.38920  0.51190  Biso   1.000  H
  H156     1.0000 0.01110  0.88920  0.98810  Biso   1.000  H
  C121     1.0000 0.02903  0.69996  0.49343  Biso   1.000  C
  C122     1.0000 0.47097  0.19996  0.00657  Biso   1.000  C
  C123     1.0000 0.97097  0.30004  0.50657  Biso   1.000  C
  C124     1.0000 0.52903  0.80004  0.99343  Biso   1.000  C
  H157     1.0000 0.09640  0.68550  0.48550  Biso   1.000  H
  H158     1.0000 0.40360  0.18550  0.01450  Biso   1.000  H
  H159     1.0000 0.90360  0.31450  0.51450  Biso   1.000  H
  H160     1.0000 0.59640  0.81450  0.98550  Biso   1.000  H
  H161     1.0000 0.01510  0.67780  0.53470  Biso   1.000  H
  H162     1.0000 0.48490  0.17780  0.96530  Biso   1.000  H
  H163     1.0000 0.98490  0.32220  0.46530  Biso   1.000  H
  H164     1.0000 0.51510  0.82220  0.03470  Biso   1.000  H
  C125     1.0000 0.96652  0.64795  0.44776  Biso   1.000  C
  C126     1.0000 0.53348  0.14795  0.05224  Biso   1.000  C
  C127     1.0000 0.03348  0.35205  0.55224  Biso   1.000  C
  C128     1.0000 0.46652  0.85205  0.94776  Biso   1.000  C
  H165     1.0000 0.97590  0.58360  0.45490  Biso   1.000  H
  H166     1.0000 0.52410  0.08360  0.04510  Biso   1.000  H
  H167     1.0000 0.02410  0.41640  0.54510  Biso   1.000  H
  H168     1.0000 0.47590  0.91640  0.95490  Biso   1.000  H
  H169     1.0000 0.89870  0.66180  0.45500  Biso   1.000  H
  H170     1.0000 0.60130  0.16180  0.04500  Biso   1.000  H
  H171     1.0000 0.10130  0.33820  0.54500  Biso   1.000  H
  H172     1.0000 0.39870  0.83820  0.95500  Biso   1.000  H
  C129     1.0000 0.98842  0.66893  0.38159  Biso   1.000  C
  C130     1.0000 0.51158  0.16893  0.11841  Biso   1.000  C
  C131     1.0000 0.01158  0.33107  0.61841  Biso   1.000  C
  C132     1.0000 0.48842  0.83107  0.88159  Biso   1.000  C
  H173     1.0000 0.05720  0.65920  0.37490  Biso   1.000  H
  H174     1.0000 0.44280  0.15920  0.12510  Biso   1.000  H
  H175     1.0000 0.94280  0.34080  0.62510  Biso   1.000  H
  H176     1.0000 0.55720  0.84080  0.87490  Biso   1.000  H
  H177     1.0000 0.97440  0.73230  0.37350  Biso   1.000  H
  H178     1.0000 0.52560  0.23230  0.12650  Biso   1.000  H
  H179     1.0000 0.02560  0.26770  0.62650  Biso   1.000  H
  H180     1.0000 0.47440  0.76770  0.87350  Biso   1.000  H
  C133     1.0000 0.96599  0.49170  0.33805  Biso   1.000  C
  C134     1.0000 0.53401  0.99170  0.16195  Biso   1.000  C
  C135     1.0000 0.03401  0.50830  0.66195  Biso   1.000  C
  C136     1.0000 0.46599  0.00830  0.83805  Biso   1.000  C
  C137     1.0000 0.06176  0.47371  0.35168  Biso   1.000  C
  C138     1.0000 0.43824  0.97371  0.14832  Biso   1.000  C
  C139     1.0000 0.93824  0.52629  0.64832  Biso   1.000  C
  C140     1.0000 0.56176  0.02629  0.85168  Biso   1.000  C
  H181     1.0000 0.10450  0.52070  0.36170  Biso   1.000  H
  H182     1.0000 0.39550  0.02070  0.13830  Biso   1.000  H
  H183     1.0000 0.89550  0.47930  0.63830  Biso   1.000  H
  H184     1.0000 0.60450  0.97930  0.86170  Biso   1.000  H
  C141     1.0000 0.09400  0.38648  0.35047  Biso   1.000  C
  C142     1.0000 0.40600  0.88648  0.14953  Biso   1.000  C
  C143     1.0000 0.90600  0.61352  0.64953  Biso   1.000  C
  C144     1.0000 0.59400  0.11352  0.85047  Biso   1.000  C
  H185     1.0000 0.15870  0.37440  0.36120  Biso   1.000  H
  H186     1.0000 0.34130  0.87440  0.13880  Biso   1.000  H
  H187     1.0000 0.84130  0.62560  0.63880  Biso   1.000  H
  H188     1.0000 0.65870  0.12560  0.86120  Biso   1.000  H
  C145     1.0000 0.03408  0.31618  0.33392  Biso   1.000  C
  C146     1.0000 0.46592  0.81618  0.16608  Biso   1.000  C
  C147     1.0000 0.96592  0.68382  0.66608  Biso   1.000  C
  C148     1.0000 0.53408  0.18382  0.83392  Biso   1.000  C
  C149     1.0000 0.07180  0.22292  0.32912  Biso   1.000  C
  C150     1.0000 0.42820  0.72292  0.17088  Biso   1.000  C
  C151     1.0000 0.92820  0.77708  0.67088  Biso   1.000  C
  C152     1.0000 0.57180  0.27708  0.82912  Biso   1.000  C
  H189     1.0000 0.07330  0.19520  0.36950  Biso   1.000  H
  H190     1.0000 0.42670  0.69520  0.13050  Biso   1.000  H
  H191     1.0000 0.92670  0.80480  0.63050  Biso   1.000  H
  H192     1.0000 0.57330  0.30480  0.86950  Biso   1.000  H
  H193     1.0000 0.13650  0.22440  0.31320  Biso   1.000  H
  H194     1.0000 0.36350  0.72440  0.18680  Biso   1.000  H
  H195     1.0000 0.86350  0.77560  0.68680  Biso   1.000  H
  H196     1.0000 0.63650  0.27560  0.81320  Biso   1.000  H
  H197     1.0000 0.03030  0.18840  0.30160  Biso   1.000  H
  H198     1.0000 0.46970  0.68840  0.19840  Biso   1.000  H
  H199     1.0000 0.96970  0.81160  0.69840  Biso   1.000  H
  H200     1.0000 0.53030  0.31160  0.80160  Biso   1.000  H
  C153     1.0000 0.93853  0.33564  0.32179  Biso   1.000  C
  C154     1.0000 0.56147  0.83564  0.17821  Biso   1.000  C
  C155     1.0000 0.06147  0.66436  0.67821  Biso   1.000  C
  C156     1.0000 0.43853  0.16436  0.82179  Biso   1.000  C
  H201     1.0000 0.89590  0.28890  0.31120  Biso   1.000  H
  H202     1.0000 0.60410  0.78890  0.18880  Biso   1.000  H
  H203     1.0000 0.10410  0.71110  0.68880  Biso   1.000  H
  H204     1.0000 0.39590  0.21110  0.81120  Biso   1.000  H
  C157     1.0000 0.90427  0.42217  0.32489  Biso   1.000  C
  C158     1.0000 0.59573  0.92217  0.17511  Biso   1.000  C
  C159     1.0000 0.09573  0.57783  0.67511  Biso   1.000  C
  C160     1.0000 0.40427  0.07783  0.82489  Biso   1.000  C
  H205     1.0000 0.83830  0.43360  0.31800  Biso   1.000  H
  H206     1.0000 0.66170  0.93360  0.18200  Biso   1.000  H
  H207     1.0000 0.16170  0.56640  0.68200  Biso   1.000  H
  H208     1.0000 0.33830  0.06640  0.81800  Biso   1.000  H
  Cu1      1.0000 0.04222  0.79840  0.18056  Biso   1.000  Cu
  Cu2      1.0000 0.45778  0.29840  0.31944  Biso   1.000  Cu
  Cu3      1.0000 0.95778  0.20160  0.81944  Biso   1.000  Cu
  Cu4      1.0000 0.54222  0.70160  0.68056  Biso   1.000  Cu
  Cu5      1.0000 0.53264  0.14606  0.26714  Biso   1.000  Cu
  Cu6      1.0000 0.96736  0.64606  0.23286  Biso   1.000  Cu
  Cu7      1.0000 0.46736  0.85394  0.73286  Biso   1.000  Cu
  Cu8      1.0000 0.03264  0.35394  0.76714  Biso   1.000  Cu
  O1       1.0000 0.96980  0.00460  0.38452  Biso   1.000  O
  O2       1.0000 0.53020  0.50460  0.11548  Biso   1.000  O
  O3       1.0000 0.03020  0.99540  0.61548  Biso   1.000  O
  O4       1.0000 0.46980  0.49540  0.88452  Biso   1.000  O
  O5       1.0000 0.81947  0.99183  0.45370  Biso   1.000  O
  O6       1.0000 0.68053  0.49183  0.04630  Biso   1.000  O
  O7       1.0000 0.18053  0.00817  0.54630  Biso   1.000  O
  O8       1.0000 0.31947  0.50817  0.95370  Biso   1.000  O
  O9       1.0000 0.85385  0.98488  0.57258  Biso   1.000  O
  O10      1.0000 0.64615  0.48488  0.92742  Biso   1.000  O
  O11      1.0000 0.14615  0.01512  0.42742  Biso   1.000  O
  O12      1.0000 0.35385  0.51512  0.07258  Biso   1.000  O
  O13      1.0000 0.90769  0.85232  0.50294  Biso   1.000  O
  O14      1.0000 0.59231  0.35232  0.99706  Biso   1.000  O
  O15      1.0000 0.09231  0.14768  0.49706  Biso   1.000  O
  O16      1.0000 0.40769  0.64768  0.00294  Biso   1.000  O
  O17      1.0000 0.08311  0.85841  0.55019  Biso   1.000  O
  O18      1.0000 0.41689  0.35841  0.94981  Biso   1.000  O
  O19      1.0000 0.91689  0.14159  0.44981  Biso   1.000  O
  O20      1.0000 0.58311  0.64159  0.05019  Biso   1.000  O
  O21      1.0000 0.05417  0.86266  0.43105  Biso   1.000  O
  O22      1.0000 0.44583  0.36266  0.06895  Biso   1.000  O
  O23      1.0000 0.94583  0.13734  0.56895  Biso   1.000  O
  O24      1.0000 0.55417  0.63734  0.93105  Biso   1.000  O
  S1       1.0000 0.10556  0.93859  0.16364  Biso   1.000  S
  S2       1.0000 0.39444  0.43859  0.33636  Biso   1.000  S
  S3       1.0000 0.89444  0.06141  0.83636  Biso   1.000  S
  S4       1.0000 0.60556  0.56141  0.66364  Biso   1.000  S
  S5       1.0000 0.58103  0.05948  0.34713  Biso   1.000  S
  S6       1.0000 0.91897  0.55948  0.15287  Biso   1.000  S
  S7       1.0000 0.41897  0.94052  0.65287  Biso   1.000  S
  S8       1.0000 0.08103  0.44052  0.84713  Biso   1.000  S
  S9       1.0000 0.52795  0.75706  0.57689  Biso   1.000  S
  S10      1.0000 0.97205  0.25706  0.92311  Biso   1.000  S
  S11      1.0000 0.47205  0.24294  0.42311  Biso   1.000  S
  S12      1.0000 0.02795  0.74294  0.07689  Biso   1.000  S
  S13      1.0000 0.91949  0.60080  0.32866  Biso   1.000  S
  S14      1.0000 0.58051  0.10080  0.17134  Biso   1.000  S
  S15      1.0000 0.08051  0.39920  0.67134  Biso   1.000  S
  S16      1.0000 0.41949  0.89920  0.82866  Biso   1.000  S
  Si1      1.0000 0.07001  0.95195  0.39129  Biso   1.000  Si
  Si2      1.0000 0.42999  0.45195  0.10871  Biso   1.000  Si
  Si3      1.0000 0.92999  0.04805  0.60871  Biso   1.000  Si
  Si4      1.0000 0.57001  0.54805  0.89129  Biso   1.000  Si
  Si5      1.0000 0.87898  0.05752  0.41006  Biso   1.000  Si
  Si6      1.0000 0.62102  0.55752  0.08994  Biso   1.000  Si
  Si7      1.0000 0.12102  0.94248  0.58994  Biso   1.000  Si
  Si8      1.0000 0.37898  0.44248  0.91006  Biso   1.000  Si
  Si9      1.0000 0.82586  0.92695  0.51291  Biso   1.000  Si
  Si10     1.0000 0.67414  0.42695  0.98709  Biso   1.000  Si
  Si11     1.0000 0.17414  0.07305  0.48709  Biso   1.000  Si
  Si12     1.0000 0.32586  0.57305  0.01291  Biso   1.000  Si
  Si13     1.0000 0.01731  0.82183  0.49425  Biso   1.000  Si
  Si14     1.0000 0.48269  0.32183  0.00575  Biso   1.000  Si
  Si15     1.0000 0.98269  0.17817  0.50575  Biso   1.000  Si
  Si16     1.0000 0.51731  0.67817  0.99425  Biso   1.000  Si
