data_image0
_cell_length_a       12.3656
_cell_length_b       23.5108
_cell_length_c       15.6675
_cell_angle_alpha    90
_cell_angle_beta     96.486
_cell_angle_gamma    90

_symmetry_space_group_name_H-M    "P 1"
_symmetry_int_tables_number       1

loop_
  _symmetry_equiv_pos_as_xyz
  'x, y, z'

loop_
  _atom_site_label
  _atom_site_occupancy
  _atom_site_fract_x
  _atom_site_fract_y
  _atom_site_fract_z
  _atom_site_thermal_displace_type
  _atom_site_B_iso_or_equiv
  _atom_site_type_symbol
  Mo1      1.0000 0.31819  0.35357  0.58581  Biso   1.000  Mo
  Mo2      1.0000 0.18181  0.85357  0.91419  Biso   1.000  Mo
  Mo3      1.0000 0.68181  0.64643  0.41419  Biso   1.000  Mo
  Mo4      1.0000 0.81819  0.14643  0.08581  Biso   1.000  Mo
  O1       1.0000 0.46840  0.35197  0.63580  Biso   1.000  O
  O2       1.0000 0.03160  0.85197  0.86420  Biso   1.000  O
  O3       1.0000 0.53160  0.64803  0.36420  Biso   1.000  O
  O4       1.0000 0.96840  0.14803  0.13580  Biso   1.000  O
  O5       1.0000 0.32160  0.43385  0.61020  Biso   1.000  O
  O6       1.0000 0.17840  0.93385  0.88980  Biso   1.000  O
  O7       1.0000 0.67840  0.56615  0.38980  Biso   1.000  O
  O8       1.0000 0.82160  0.06615  0.11020  Biso   1.000  O
  O9       1.0000 0.32800  0.35150  0.47990  Biso   1.000  O
  O10      1.0000 0.17200  0.85150  0.02010  Biso   1.000  O
  O11      1.0000 0.67200  0.64850  0.52010  Biso   1.000  O
  O12      1.0000 0.82800  0.14850  0.97990  Biso   1.000  O
  O13      1.0000 0.16410  0.35680  0.59180  Biso   1.000  O
  O14      1.0000 0.33590  0.85680  0.90820  Biso   1.000  O
  O15      1.0000 0.83590  0.64320  0.40820  Biso   1.000  O
  O16      1.0000 0.66410  0.14320  0.09180  Biso   1.000  O
  O17      1.0000 0.30580  0.35665  0.73192  Biso   1.000  O
  O18      1.0000 0.19420  0.85665  0.76808  Biso   1.000  O
  O19      1.0000 0.69420  0.64335  0.26808  Biso   1.000  O
  O20      1.0000 0.80580  0.14335  0.23192  Biso   1.000  O
  O21      1.0000 0.31110  0.27471  0.61710  Biso   1.000  O
  O22      1.0000 0.18890  0.77471  0.88290  Biso   1.000  O
  O23      1.0000 0.68890  0.72529  0.38290  Biso   1.000  O
  O24      1.0000 0.81110  0.22529  0.11710  Biso   1.000  O
  Mo5      1.0000 0.49424  0.35472  0.75874  Biso   1.000  Mo
  Mo6      1.0000 0.00576  0.85472  0.74126  Biso   1.000  Mo
  Mo7      1.0000 0.50576  0.64528  0.24126  Biso   1.000  Mo
  Mo8      1.0000 0.99424  0.14528  0.25874  Biso   1.000  Mo
  Mo9      1.0000 0.31013  0.45497  0.72711  Biso   1.000  Mo
  Mo10     1.0000 0.18987  0.95497  0.77289  Biso   1.000  Mo
  Mo11     1.0000 0.68987  0.54503  0.27289  Biso   1.000  Mo
  Mo12     1.0000 0.81013  0.04503  0.22711  Biso   1.000  Mo
  Mo13     1.0000 0.11749  0.35876  0.70551  Biso   1.000  Mo
  Mo14     1.0000 0.38251  0.85876  0.79449  Biso   1.000  Mo
  Mo15     1.0000 0.88251  0.64124  0.29449  Biso   1.000  Mo
  Mo16     1.0000 0.61749  0.14124  0.20551  Biso   1.000  Mo
  Mo17     1.0000 0.29350  0.35994  0.87847  Biso   1.000  Mo
  Mo18     1.0000 0.20650  0.85994  0.62153  Biso   1.000  Mo
  Mo19     1.0000 0.70650  0.64006  0.12153  Biso   1.000  Mo
  Mo20     1.0000 0.79350  0.14006  0.37847  Biso   1.000  Mo
  Mo21     1.0000 0.30103  0.25839  0.73618  Biso   1.000  Mo
  Mo22     1.0000 0.19897  0.75839  0.76382  Biso   1.000  Mo
  Mo23     1.0000 0.69897  0.74161  0.26382  Biso   1.000  Mo
  Mo24     1.0000 0.80103  0.24161  0.23618  Biso   1.000  Mo
  O25      1.0000 0.46210  0.43427  0.75040  Biso   1.000  O
  O26      1.0000 0.03790  0.93427  0.74960  Biso   1.000  O
  O27      1.0000 0.53790  0.56573  0.24960  Biso   1.000  O
  O28      1.0000 0.96210  0.06573  0.25040  Biso   1.000  O
  O29      1.0000 0.63060  0.35350  0.77910  Biso   1.000  O
  O30      1.0000 0.86940  0.85350  0.72090  Biso   1.000  O
  O31      1.0000 0.36940  0.64650  0.22090  Biso   1.000  O
  O32      1.0000 0.13060  0.14650  0.27910  Biso   1.000  O
  O33      1.0000 0.45310  0.27515  0.75730  Biso   1.000  O
  O34      1.0000 0.04690  0.77515  0.74270  Biso   1.000  O
  O35      1.0000 0.54690  0.72485  0.24270  Biso   1.000  O
  O36      1.0000 0.95310  0.22485  0.25730  Biso   1.000  O
  O37      1.0000 0.44790  0.35719  0.87230  Biso   1.000  O
  O38      1.0000 0.05210  0.85719  0.62770  Biso   1.000  O
  O39      1.0000 0.55210  0.64281  0.12770  Biso   1.000  O
  O40      1.0000 0.94790  0.14281  0.37230  Biso   1.000  O
  O41      1.0000 0.30030  0.43867  0.84630  Biso   1.000  O
  O42      1.0000 0.19970  0.93867  0.65370  Biso   1.000  O
  O43      1.0000 0.69970  0.56133  0.15370  Biso   1.000  O
  O44      1.0000 0.80030  0.06133  0.34630  Biso   1.000  O
  O45      1.0000 0.31450  0.52641  0.72330  Biso   1.000  O
  O46      1.0000 0.18550  0.02641  0.77670  Biso   1.000  O
  O47      1.0000 0.68550  0.47359  0.27670  Biso   1.000  O
  O48      1.0000 0.81450  0.97359  0.22330  Biso   1.000  O
  O49      1.0000 0.15930  0.43834  0.70680  Biso   1.000  O
  O50      1.0000 0.34070  0.93834  0.79320  Biso   1.000  O
  O51      1.0000 0.84070  0.56166  0.29320  Biso   1.000  O
  O52      1.0000 0.65930  0.06166  0.20680  Biso   1.000  O
  O53      1.0000 0.98100  0.36250  0.68600  Biso   1.000  O
  O54      1.0000 0.51900  0.86250  0.81400  Biso   1.000  O
  O55      1.0000 0.01900  0.63750  0.31400  Biso   1.000  O
  O56      1.0000 0.48100  0.13750  0.18600  Biso   1.000  O
  O57      1.0000 0.14910  0.27977  0.71360  Biso   1.000  O
  O58      1.0000 0.35090  0.77977  0.78640  Biso   1.000  O
  O59      1.0000 0.85090  0.72023  0.28640  Biso   1.000  O
  O60      1.0000 0.64910  0.22023  0.21360  Biso   1.000  O
  O61      1.0000 0.14400  0.36179  0.82850  Biso   1.000  O
  O62      1.0000 0.35600  0.86179  0.67150  Biso   1.000  O
  O63      1.0000 0.85600  0.63821  0.17150  Biso   1.000  O
  O64      1.0000 0.64400  0.13821  0.32850  Biso   1.000  O
  O65      1.0000 0.28370  0.36296  0.98510  Biso   1.000  O
  O66      1.0000 0.21630  0.86296  0.51490  Biso   1.000  O
  O67      1.0000 0.71630  0.63704  0.01490  Biso   1.000  O
  O68      1.0000 0.78370  0.13704  0.48510  Biso   1.000  O
  O69      1.0000 0.29000  0.28020  0.85310  Biso   1.000  O
  O70      1.0000 0.21000  0.78020  0.64690  Biso   1.000  O
  O71      1.0000 0.71000  0.71980  0.14690  Biso   1.000  O
  O72      1.0000 0.79000  0.21980  0.35310  Biso   1.000  O
  O73      1.0000 0.29690  0.18718  0.73860  Biso   1.000  O
  O74      1.0000 0.20310  0.68718  0.76140  Biso   1.000  O
  O75      1.0000 0.70310  0.81282  0.26140  Biso   1.000  O
  O76      1.0000 0.79690  0.31282  0.23860  Biso   1.000  O
  Cu1      1.0000 0.81640  0.42363  0.75504  Biso   1.000  Cu
  Cu2      1.0000 0.68360  0.92363  0.74496  Biso   1.000  Cu
  Cu3      1.0000 0.18360  0.57637  0.24496  Biso   1.000  Cu
  Cu4      1.0000 0.31640  0.07637  0.25504  Biso   1.000  Cu
  C1       1.0000 0.98210  0.44438  0.90010  Biso   1.000  C
  C2       1.0000 0.51790  0.94438  0.59990  Biso   1.000  C
  C3       1.0000 0.01790  0.55562  0.09990  Biso   1.000  C
  C4       1.0000 0.48210  0.05562  0.40010  Biso   1.000  C
  C5       1.0000 0.01890  0.42460  0.97810  Biso   1.000  C
  C6       1.0000 0.48110  0.92460  0.52190  Biso   1.000  C
  C7       1.0000 0.98110  0.57540  0.02190  Biso   1.000  C
  C8       1.0000 0.51890  0.07540  0.47810  Biso   1.000  C
  H1       1.0000 0.08010  0.43650  0.01340  Biso   1.000  H
  H2       1.0000 0.41990  0.93650  0.48660  Biso   1.000  H
  H3       1.0000 0.91990  0.56350  0.98660  Biso   1.000  H
  H4       1.0000 0.58010  0.06350  0.51340  Biso   1.000  H
  C9       1.0000 0.87130  0.37970  0.92610  Biso   1.000  C
  C10      1.0000 0.62870  0.87970  0.57390  Biso   1.000  C
  C11      1.0000 0.12870  0.62030  0.07390  Biso   1.000  C
  C12      1.0000 0.37130  0.12030  0.42610  Biso   1.000  C
  H5       1.0000 0.81330  0.35420  0.92130  Biso   1.000  H
  H6       1.0000 0.68670  0.85420  0.57870  Biso   1.000  H
  H7       1.0000 0.18670  0.64580  0.07870  Biso   1.000  H
  H8       1.0000 0.31330  0.14580  0.42130  Biso   1.000  H
  C13      1.0000 0.95450  0.34570  0.07000  Biso   1.000  C
  C14      1.0000 0.54550  0.84570  0.43000  Biso   1.000  C
  C15      1.0000 0.04550  0.65430  0.93000  Biso   1.000  C
  C16      1.0000 0.45450  0.15430  0.57000  Biso   1.000  C
  H9       1.0000 0.88650  0.32530  0.07100  Biso   1.000  H
  H10      1.0000 0.61350  0.82530  0.42900  Biso   1.000  H
  H11      1.0000 0.11350  0.67470  0.92900  Biso   1.000  H
  H12      1.0000 0.38650  0.17470  0.57100  Biso   1.000  H
  H13      1.0000 0.96620  0.36860  0.12160  Biso   1.000  H
  H14      1.0000 0.53380  0.86860  0.37840  Biso   1.000  H
  H15      1.0000 0.03380  0.63140  0.87840  Biso   1.000  H
  H16      1.0000 0.46620  0.13140  0.62160  Biso   1.000  H
  C17      1.0000 0.04670  0.30320  0.06930  Biso   1.000  C
  C18      1.0000 0.45330  0.80320  0.43070  Biso   1.000  C
  C19      1.0000 0.95330  0.69680  0.93070  Biso   1.000  C
  C20      1.0000 0.54670  0.19680  0.56930  Biso   1.000  C
  H17      1.0000 0.05150  0.28050  0.12120  Biso   1.000  H
  H18      1.0000 0.44850  0.78050  0.37880  Biso   1.000  H
  H19      1.0000 0.94850  0.71950  0.87880  Biso   1.000  H
  H20      1.0000 0.55150  0.21950  0.62120  Biso   1.000  H
  H21      1.0000 0.11500  0.32350  0.06870  Biso   1.000  H
  H22      1.0000 0.38500  0.82350  0.43130  Biso   1.000  H
  H23      1.0000 0.88500  0.67650  0.93130  Biso   1.000  H
  H24      1.0000 0.61500  0.17650  0.56870  Biso   1.000  H
  C21      1.0000 0.02920  0.26420  0.99090  Biso   1.000  C
  C22      1.0000 0.47080  0.76420  0.50910  Biso   1.000  C
  C23      1.0000 0.97080  0.73580  0.00910  Biso   1.000  C
  C24      1.0000 0.52920  0.23580  0.49090  Biso   1.000  C
  H25      1.0000 0.95710  0.24760  0.98790  Biso   1.000  H
  H26      1.0000 0.54290  0.74760  0.51210  Biso   1.000  H
  H27      1.0000 0.04290  0.75240  0.01210  Biso   1.000  H
  H28      1.0000 0.45710  0.25240  0.48790  Biso   1.000  H
  H29      1.0000 0.03280  0.28670  0.93940  Biso   1.000  H
  H30      1.0000 0.46720  0.78670  0.56060  Biso   1.000  H
  H31      1.0000 0.96720  0.71330  0.06060  Biso   1.000  H
  H32      1.0000 0.53280  0.21330  0.43940  Biso   1.000  H
  C25      1.0000 0.11230  0.21740  0.99380  Biso   1.000  C
  C26      1.0000 0.38770  0.71740  0.50620  Biso   1.000  C
  C27      1.0000 0.88770  0.78260  0.00620  Biso   1.000  C
  C28      1.0000 0.61230  0.28260  0.49380  Biso   1.000  C
  H33      1.0000 0.18320  0.23400  0.98900  Biso   1.000  H
  H34      1.0000 0.31680  0.73400  0.51100  Biso   1.000  H
  H35      1.0000 0.81680  0.76600  0.01100  Biso   1.000  H
  H36      1.0000 0.68320  0.26600  0.48900  Biso   1.000  H
  H37      1.0000 0.11590  0.19860  0.04920  Biso   1.000  H
  H38      1.0000 0.38410  0.69860  0.45080  Biso   1.000  H
  H39      1.0000 0.88410  0.80140  0.95080  Biso   1.000  H
  H40      1.0000 0.61590  0.30140  0.54920  Biso   1.000  H
  C29      1.0000 0.08870  0.17370  0.92420  Biso   1.000  C
  C30      1.0000 0.41130  0.67370  0.57580  Biso   1.000  C
  C31      1.0000 0.91130  0.82630  0.07580  Biso   1.000  C
  C32      1.0000 0.58870  0.32630  0.42420  Biso   1.000  C
  H41      1.0000 0.08350  0.19230  0.86870  Biso   1.000  H
  H42      1.0000 0.41650  0.69230  0.63130  Biso   1.000  H
  H43      1.0000 0.91650  0.80770  0.13130  Biso   1.000  H
  H44      1.0000 0.58350  0.30770  0.36870  Biso   1.000  H
  H45      1.0000 0.01920  0.15580  0.93000  Biso   1.000  H
  H46      1.0000 0.48080  0.65580  0.57000  Biso   1.000  H
  H47      1.0000 0.98080  0.84420  0.07000  Biso   1.000  H
  H48      1.0000 0.51920  0.34420  0.43000  Biso   1.000  H
  C33      1.0000 0.17690  0.12840  0.92850  Biso   1.000  C
  C34      1.0000 0.32310  0.62840  0.57150  Biso   1.000  C
  C35      1.0000 0.82310  0.87160  0.07150  Biso   1.000  C
  C36      1.0000 0.67690  0.37160  0.42850  Biso   1.000  C
  H49      1.0000 0.16100  0.10240  0.88070  Biso   1.000  H
  H50      1.0000 0.33900  0.60240  0.61930  Biso   1.000  H
  H51      1.0000 0.83900  0.89760  0.11930  Biso   1.000  H
  H52      1.0000 0.66100  0.39760  0.38070  Biso   1.000  H
  H53      1.0000 0.24620  0.14640  0.92250  Biso   1.000  H
  H54      1.0000 0.25380  0.64640  0.57750  Biso   1.000  H
  H55      1.0000 0.75380  0.85360  0.07750  Biso   1.000  H
  H56      1.0000 0.74620  0.35360  0.42250  Biso   1.000  H
  C37      1.0000 0.12880  0.04940  0.02760  Biso   1.000  C
  C38      1.0000 0.37120  0.54940  0.47240  Biso   1.000  C
  C39      1.0000 0.87120  0.95060  0.97240  Biso   1.000  C
  C40      1.0000 0.62880  0.45060  0.52760  Biso   1.000  C
  H57      1.0000 0.07560  0.03060  0.99140  Biso   1.000  H
  H58      1.0000 0.42440  0.53060  0.50860  Biso   1.000  H
  H59      1.0000 0.92440  0.96940  0.00860  Biso   1.000  H
  H60      1.0000 0.57560  0.46940  0.49140  Biso   1.000  H
  C41      1.0000 0.16470  0.03610  0.10940  Biso   1.000  C
  C42      1.0000 0.33530  0.53610  0.39060  Biso   1.000  C
  C43      1.0000 0.83530  0.96390  0.89060  Biso   1.000  C
  C44      1.0000 0.66470  0.46390  0.60940  Biso   1.000  C
  C45      1.0000 0.25460  0.10870  0.07990  Biso   1.000  C
  C46      1.0000 0.24540  0.60870  0.42010  Biso   1.000  C
  C47      1.0000 0.74540  0.89130  0.92010  Biso   1.000  C
  C48      1.0000 0.75460  0.39130  0.57990  Biso   1.000  C
  H61      1.0000 0.30310  0.13900  0.08370  Biso   1.000  H
  H62      1.0000 0.19690  0.63900  0.41630  Biso   1.000  H
  H63      1.0000 0.69690  0.86100  0.91630  Biso   1.000  H
  H64      1.0000 0.80310  0.36100  0.58370  Biso   1.000  H
  N1       1.0000 0.88970  0.41697  0.86680  Biso   1.000  N
  N2       1.0000 0.61030  0.91697  0.63320  Biso   1.000  N
  N3       1.0000 0.11030  0.58303  0.13320  Biso   1.000  N
  N4       1.0000 0.38970  0.08303  0.36680  Biso   1.000  N
  N5       1.0000 0.94680  0.38299  0.99450  Biso   1.000  N
  N6       1.0000 0.55320  0.88299  0.50550  Biso   1.000  N
  N7       1.0000 0.05320  0.61701  0.00550  Biso   1.000  N
  N8       1.0000 0.44680  0.11701  0.49450  Biso   1.000  N
  N9       1.0000 0.18620  0.09599  0.00890  Biso   1.000  N
  N10      1.0000 0.31380  0.59599  0.49110  Biso   1.000  N
  N11      1.0000 0.81380  0.90401  0.99110  Biso   1.000  N
  N12      1.0000 0.68620  0.40401  0.50890  Biso   1.000  N
  N13      1.0000 0.24420  0.07294  0.14290  Biso   1.000  N
  N14      1.0000 0.25580  0.57294  0.35710  Biso   1.000  N
  N15      1.0000 0.75580  0.92706  0.85710  Biso   1.000  N
  N16      1.0000 0.74420  0.42706  0.64290  Biso   1.000  N
  N17      1.0000 0.13080  0.99020  0.16060  Biso   1.000  N
  N18      1.0000 0.36920  0.49020  0.33940  Biso   1.000  N
  N19      1.0000 0.86920  0.00980  0.83940  Biso   1.000  N
  N20      1.0000 0.63080  0.50980  0.66060  Biso   1.000  N
  N21      1.0000 0.02550  0.49000  0.85480  Biso   1.000  N
  N22      1.0000 0.47450  0.99000  0.64520  Biso   1.000  N
  N23      1.0000 0.97450  0.51000  0.14520  Biso   1.000  N
  N24      1.0000 0.52550  0.01000  0.35480  Biso   1.000  N
  O77      1.0000 0.17730  0.98350  0.23290  Biso   1.000  O
  O78      1.0000 0.32270  0.48350  0.26710  Biso   1.000  O
  O79      1.0000 0.82270  0.01650  0.76710  Biso   1.000  O
  O80      1.0000 0.67730  0.51650  0.73290  Biso   1.000  O
  O81      1.0000 0.05550  0.96050  0.12990  Biso   1.000  O
  O82      1.0000 0.44450  0.46050  0.37010  Biso   1.000  O
  O83      1.0000 0.94450  0.03950  0.87010  Biso   1.000  O
  O84      1.0000 0.55550  0.53950  0.62990  Biso   1.000  O
  O85      1.0000 0.10770  0.51327  0.88960  Biso   1.000  O
  O86      1.0000 0.39230  0.01327  0.61040  Biso   1.000  O
  O87      1.0000 0.89230  0.48673  0.11040  Biso   1.000  O
  O88      1.0000 0.60770  0.98673  0.38960  Biso   1.000  O
  O89      1.0000 0.97710  0.50350  0.78480  Biso   1.000  O
  O90      1.0000 0.52290  0.00350  0.71520  Biso   1.000  O
  O91      1.0000 0.02290  0.49650  0.21520  Biso   1.000  O
  O92      1.0000 0.47710  0.99650  0.28480  Biso   1.000  O
  Cu5      1.0000 0.31867  0.33464  0.24339  Biso   1.000  Cu
  Cu6      1.0000 0.18133  0.83464  0.25661  Biso   1.000  Cu
  Cu7      1.0000 0.68133  0.66536  0.75661  Biso   1.000  Cu
  Cu8      1.0000 0.81867  0.16536  0.74339  Biso   1.000  Cu
  C49      1.0000 0.45970  0.30228  0.11700  Biso   1.000  C
  C50      1.0000 0.04030  0.80228  0.38300  Biso   1.000  C
  C51      1.0000 0.54030  0.69772  0.88300  Biso   1.000  C
  C52      1.0000 0.95970  0.19772  0.61700  Biso   1.000  C
  C53      1.0000 0.54390  0.32030  0.07560  Biso   1.000  C
  C54      1.0000 0.95610  0.82030  0.42440  Biso   1.000  C
  C55      1.0000 0.45610  0.67970  0.92440  Biso   1.000  C
  C56      1.0000 0.04390  0.17970  0.57560  Biso   1.000  C
  H65      1.0000 0.57200  0.30310  0.02940  Biso   1.000  H
  H66      1.0000 0.92800  0.80310  0.47060  Biso   1.000  H
  H67      1.0000 0.42800  0.69690  0.97060  Biso   1.000  H
  H68      1.0000 0.07200  0.19690  0.52940  Biso   1.000  H
  C57      1.0000 0.51520  0.37860  0.17940  Biso   1.000  C
  C58      1.0000 0.98480  0.87860  0.32060  Biso   1.000  C
  C59      1.0000 0.48480  0.62140  0.82060  Biso   1.000  C
  C60      1.0000 0.01520  0.12140  0.67940  Biso   1.000  C
  H69      1.0000 0.52320  0.40950  0.21660  Biso   1.000  H
  H70      1.0000 0.97680  0.90950  0.28340  Biso   1.000  H
  H71      1.0000 0.47680  0.59050  0.78340  Biso   1.000  H
  H72      1.0000 0.02320  0.09050  0.71660  Biso   1.000  H
  C61      1.0000 0.66170  0.40720  0.09040  Biso   1.000  C
  C62      1.0000 0.83830  0.90720  0.40960  Biso   1.000  C
  C63      1.0000 0.33830  0.59280  0.90960  Biso   1.000  C
  C64      1.0000 0.16170  0.09280  0.59040  Biso   1.000  C
  H73      1.0000 0.72170  0.38490  0.07350  Biso   1.000  H
  H74      1.0000 0.77830  0.88490  0.42650  Biso   1.000  H
  H75      1.0000 0.27830  0.61510  0.92650  Biso   1.000  H
  H76      1.0000 0.22170  0.11510  0.57350  Biso   1.000  H
  H77      1.0000 0.68940  0.43060  0.13900  Biso   1.000  H
  H78      1.0000 0.81060  0.93060  0.36100  Biso   1.000  H
  H79      1.0000 0.31060  0.56940  0.86100  Biso   1.000  H
  H80      1.0000 0.18940  0.06940  0.63900  Biso   1.000  H
  C65      1.0000 0.61800  0.44520  0.01640  Biso   1.000  C
  C66      1.0000 0.88200  0.94520  0.48360  Biso   1.000  C
  C67      1.0000 0.38200  0.55480  0.98360  Biso   1.000  C
  C68      1.0000 0.11800  0.05480  0.51640  Biso   1.000  C
  H81      1.0000 0.60120  0.42210  0.96530  Biso   1.000  H
  H82      1.0000 0.89880  0.92210  0.53470  Biso   1.000  H
  H83      1.0000 0.39880  0.57790  0.03470  Biso   1.000  H
  H84      1.0000 0.10120  0.07790  0.46530  Biso   1.000  H
  H85      1.0000 0.67400  0.47220  0.00500  Biso   1.000  H
  H86      1.0000 0.82600  0.97220  0.49500  Biso   1.000  H
  H87      1.0000 0.32600  0.52780  0.99500  Biso   1.000  H
  H88      1.0000 0.17400  0.02780  0.50500  Biso   1.000  H
  C69      1.0000 0.51620  0.47790  0.03370  Biso   1.000  C
  C70      1.0000 0.98380  0.97790  0.46630  Biso   1.000  C
  C71      1.0000 0.48380  0.52210  0.96630  Biso   1.000  C
  C72      1.0000 0.01620  0.02210  0.53370  Biso   1.000  C
  H89      1.0000 0.45660  0.45130  0.03600  Biso   1.000  H
  H90      1.0000 0.04340  0.95130  0.46400  Biso   1.000  H
  H91      1.0000 0.54340  0.54870  0.96400  Biso   1.000  H
  H92      1.0000 0.95660  0.04870  0.53600  Biso   1.000  H
  H93      1.0000 0.52930  0.49640  0.08930  Biso   1.000  H
  H94      1.0000 0.97070  0.99640  0.41070  Biso   1.000  H
  H95      1.0000 0.47070  0.50360  0.91070  Biso   1.000  H
  H96      1.0000 0.02930  0.00360  0.58930  Biso   1.000  H
  C73      1.0000 0.15760  0.30390  0.35530  Biso   1.000  C
  C74      1.0000 0.34240  0.80390  0.14470  Biso   1.000  C
  C75      1.0000 0.84240  0.69610  0.64470  Biso   1.000  C
  C76      1.0000 0.65760  0.19610  0.85530  Biso   1.000  C
  C77      1.0000 0.06660  0.32130  0.38720  Biso   1.000  C
  C78      1.0000 0.43340  0.82130  0.11280  Biso   1.000  C
  C79      1.0000 0.93340  0.67870  0.61280  Biso   1.000  C
  C80      1.0000 0.56660  0.17870  0.88720  Biso   1.000  C
  H97      1.0000 0.02900  0.30280  0.42720  Biso   1.000  H
  H98      1.0000 0.47100  0.80280  0.07280  Biso   1.000  H
  H99      1.0000 0.97100  0.69720  0.57280  Biso   1.000  H
  H100     1.0000 0.52900  0.19720  0.92720  Biso   1.000  H
  C81      1.0000 0.11850  0.38290  0.29530  Biso   1.000  C
  C82      1.0000 0.38150  0.88290  0.20470  Biso   1.000  C
  C83      1.0000 0.88150  0.61710  0.70470  Biso   1.000  C
  C84      1.0000 0.61850  0.11710  0.79530  Biso   1.000  C
  H101     1.0000 0.11990  0.41520  0.26120  Biso   1.000  H
  H102     1.0000 0.38010  0.91520  0.23880  Biso   1.000  H
  H103     1.0000 0.88010  0.58480  0.73880  Biso   1.000  H
  H104     1.0000 0.61990  0.08480  0.76120  Biso   1.000  H
  C85      1.0000 0.94950  0.40920  0.36000  Biso   1.000  C
  C86      1.0000 0.55050  0.90920  0.14000  Biso   1.000  C
  C87      1.0000 0.05050  0.59080  0.64000  Biso   1.000  C
  C88      1.0000 0.44950  0.09080  0.86000  Biso   1.000  C
  H105     1.0000 0.88420  0.38640  0.35950  Biso   1.000  H
  H106     1.0000 0.61580  0.88640  0.14050  Biso   1.000  H
  H107     1.0000 0.11580  0.61360  0.64050  Biso   1.000  H
  H108     1.0000 0.38420  0.11360  0.85950  Biso   1.000  H
  H109     1.0000 0.93840  0.43600  0.31260  Biso   1.000  H
  H110     1.0000 0.56160  0.93600  0.18740  Biso   1.000  H
  H111     1.0000 0.06160  0.56400  0.68740  Biso   1.000  H
  H112     1.0000 0.43840  0.06400  0.81260  Biso   1.000  H
  N25      1.0000 0.19140  0.34188  0.29820  Biso   1.000  N
  N26      1.0000 0.30860  0.84188  0.20180  Biso   1.000  N
  N27      1.0000 0.80860  0.65812  0.70180  Biso   1.000  N
  N28      1.0000 0.69140  0.15812  0.79820  Biso   1.000  N
  N29      1.0000 0.04160  0.37230  0.34770  Biso   1.000  N
  N30      1.0000 0.45840  0.87230  0.15230  Biso   1.000  N
  N31      1.0000 0.95840  0.62770  0.65230  Biso   1.000  N
  N32      1.0000 0.54160  0.12770  0.84770  Biso   1.000  N
  N33      1.0000 0.44040  0.33849  0.18170  Biso   1.000  N
  N34      1.0000 0.05960  0.83849  0.31830  Biso   1.000  N
  N35      1.0000 0.55960  0.66151  0.81830  Biso   1.000  N
  N36      1.0000 0.94040  0.16151  0.68170  Biso   1.000  N
  N37      1.0000 0.57790  0.36889  0.11640  Biso   1.000  N
  N38      1.0000 0.92210  0.86889  0.38360  Biso   1.000  N
  N39      1.0000 0.42210  0.63111  0.88360  Biso   1.000  N
  N40      1.0000 0.07790  0.13111  0.61640  Biso   1.000  N
  N41      1.0000 0.39400  0.25307  0.09840  Biso   1.000  N
  N42      1.0000 0.10600  0.75307  0.40160  Biso   1.000  N
  N43      1.0000 0.60600  0.74693  0.90160  Biso   1.000  N
  N44      1.0000 0.89400  0.24693  0.59840  Biso   1.000  N
  N45      1.0000 0.21950  0.25394  0.37800  Biso   1.000  N
  N46      1.0000 0.28050  0.75394  0.12200  Biso   1.000  N
  N47      1.0000 0.78050  0.74606  0.62200  Biso   1.000  N
  N48      1.0000 0.71950  0.24606  0.87800  Biso   1.000  N
  O93      1.0000 0.19020  0.22297  0.43410  Biso   1.000  O
  O94      1.0000 0.30980  0.72297  0.06590  Biso   1.000  O
  O95      1.0000 0.80980  0.77703  0.56590  Biso   1.000  O
  O96      1.0000 0.69020  0.27703  0.93410  Biso   1.000  O
  O97      1.0000 0.30030  0.24482  0.34170  Biso   1.000  O
  O98      1.0000 0.19970  0.74482  0.15830  Biso   1.000  O
  O99      1.0000 0.69970  0.75518  0.65830  Biso   1.000  O
  O100     1.0000 0.80030  0.25518  0.84170  Biso   1.000  O
  O101     1.0000 0.41470  0.22267  0.03820  Biso   1.000  O
  O102     1.0000 0.08530  0.72267  0.46180  Biso   1.000  O
  O103     1.0000 0.58530  0.77733  0.96180  Biso   1.000  O
  O104     1.0000 0.91470  0.27733  0.53820  Biso   1.000  O
  O105     1.0000 0.32160  0.24352  0.14330  Biso   1.000  O
  O106     1.0000 0.17840  0.74352  0.35670  Biso   1.000  O
  O107     1.0000 0.67840  0.75648  0.85670  Biso   1.000  O
  O108     1.0000 0.82160  0.25648  0.64330  Biso   1.000  O
  C89      1.0000 0.96810  0.44170  0.44380  Biso   1.000  C
  C90      1.0000 0.53190  0.94170  0.05620  Biso   1.000  C
  C91      1.0000 0.03190  0.55830  0.55620  Biso   1.000  C
  C92      1.0000 0.46810  0.05830  0.94380  Biso   1.000  C
  C93      1.0000 0.92210  0.49300  0.47160  Biso   1.000  C
  C94      1.0000 0.57790  0.99300  0.02840  Biso   1.000  C
  C95      1.0000 0.07790  0.50700  0.52840  Biso   1.000  C
  C96      1.0000 0.42210  0.00700  0.97160  Biso   1.000  C
  C97      1.0000 0.03780  0.47880  0.45020  Biso   1.000  C
  C98      1.0000 0.46220  0.97880  0.04980  Biso   1.000  C
  C99      1.0000 0.96220  0.52120  0.54980  Biso   1.000  C
  C100     1.0000 0.53780  0.02120  0.95020  Biso   1.000  C
  O109     1.0000 0.28310  0.93690  0.38250  Biso   1.000  O
  O110     1.0000 0.21690  0.43690  0.11750  Biso   1.000  O
  O111     1.0000 0.71690  0.06310  0.61750  Biso   1.000  O
  O112     1.0000 0.78310  0.56310  0.88250  Biso   1.000  O
