data_image0
_cell_length_a       10.0434
_cell_length_b       11.1271
_cell_length_c       15.1788
_cell_angle_alpha    77.221
_cell_angle_beta     75.542
_cell_angle_gamma    79.048

_symmetry_space_group_name_H-M    "P 1"
_symmetry_int_tables_number       1

loop_
  _symmetry_equiv_pos_as_xyz
  'x, y, z'

loop_
  _atom_site_label
  _atom_site_occupancy
  _atom_site_fract_x
  _atom_site_fract_y
  _atom_site_fract_z
  _atom_site_thermal_displace_type
  _atom_site_B_iso_or_equiv
  _atom_site_type_symbol
  Cu1      1.0000 0.68044  0.10509  0.83006  Biso   1.000  Cu
  Cu2      1.0000 0.31956  0.89491  0.16994  Biso   1.000  Cu
  Cu3      1.0000 0.26249  0.50993  0.08395  Biso   1.000  Cu
  Cu4      1.0000 0.73751  0.49007  0.91605  Biso   1.000  Cu
  Mo1      1.0000 0.28318  0.32338  0.36096  Biso   1.000  Mo
  Mo2      1.0000 0.71682  0.67662  0.63904  Biso   1.000  Mo
  Mo3      1.0000 0.93416  0.41521  0.43880  Biso   1.000  Mo
  Mo4      1.0000 0.06584  0.58479  0.56120  Biso   1.000  Mo
  Mo5      1.0000 0.16474  0.28758  0.58634  Biso   1.000  Mo
  Mo6      1.0000 0.83526  0.71242  0.41366  Biso   1.000  Mo
  Mo7      1.0000 0.81951  0.37903  0.65975  Biso   1.000  Mo
  Mo8      1.0000 0.18049  0.62097  0.34025  Biso   1.000  Mo
  C1       1.0000 0.71710  0.06120  0.01830  Biso   1.000  C
  C2       1.0000 0.28290  0.93880  0.98170  Biso   1.000  C
  H1       1.0000 0.80800  0.02180  0.00350  Biso   1.000  H
  H2       1.0000 0.19200  0.97820  0.99650  Biso   1.000  H
  C3       1.0000 0.51810  0.15830  0.00810  Biso   1.000  C
  C4       1.0000 0.48190  0.84170  0.99190  Biso   1.000  C
  C5       1.0000 0.52260  0.13890  0.09920  Biso   1.000  C
  C6       1.0000 0.47740  0.86110  0.90080  Biso   1.000  C
  H3       1.0000 0.45260  0.16310  0.14770  Biso   1.000  H
  H4       1.0000 0.54740  0.83690  0.85230  Biso   1.000  H
  C7       1.0000 0.70800  0.03680  0.18660  Biso   1.000  C
  C8       1.0000 0.29200  0.96320  0.81340  Biso   1.000  C
  H5       1.0000 0.80370  0.99840  0.16980  Biso   1.000  H
  H6       1.0000 0.19630  0.00160  0.83020  Biso   1.000  H
  H7       1.0000 0.65600  0.97470  0.22930  Biso   1.000  H
  H8       1.0000 0.34400  0.02530  0.77070  Biso   1.000  H
  C9       1.0000 0.70300  0.14190  0.23380  Biso   1.000  C
  C10      1.0000 0.29700  0.85810  0.76620  Biso   1.000  C
  H9       1.0000 0.73840  0.10920  0.28960  Biso   1.000  H
  H10      1.0000 0.26160  0.89080  0.71040  Biso   1.000  H
  H11      1.0000 0.60680  0.17800  0.25230  Biso   1.000  H
  H12      1.0000 0.39320  0.82200  0.74770  Biso   1.000  H
  C11      1.0000 0.78370  0.24260  0.17670  Biso   1.000  C
  C12      1.0000 0.21630  0.75740  0.82330  Biso   1.000  C
  H13      1.0000 0.74200  0.28430  0.12470  Biso   1.000  H
  H14      1.0000 0.25800  0.71570  0.87530  Biso   1.000  H
  H15      1.0000 0.87840  0.20720  0.15260  Biso   1.000  H
  H16      1.0000 0.12160  0.79280  0.84740  Biso   1.000  H
  C13      1.0000 0.78300  0.33530  0.23690  Biso   1.000  C
  C14      1.0000 0.21700  0.66470  0.76310  Biso   1.000  C
  H17      1.0000 0.68910  0.37740  0.25420  Biso   1.000  H
  H18      1.0000 0.31090  0.62260  0.74580  Biso   1.000  H
  H19      1.0000 0.81160  0.29060  0.29330  Biso   1.000  H
  H20      1.0000 0.18840  0.70940  0.70670  Biso   1.000  H
  C15      1.0000 0.80750  0.02060  0.65720  Biso   1.000  C
  C16      1.0000 0.19250  0.97940  0.34280  Biso   1.000  C
  C17      1.0000 0.60750  0.12090  0.65350  Biso   1.000  C
  C18      1.0000 0.39250  0.87910  0.34650  Biso   1.000  C
  H21      1.0000 0.51910  0.16450  0.67000  Biso   1.000  H
  H22      1.0000 0.48090  0.83550  0.33000  Biso   1.000  H
  C19      1.0000 0.79390  0.03430  0.56870  Biso   1.000  C
  C20      1.0000 0.20610  0.96570  0.43130  Biso   1.000  C
  H23      1.0000 0.85850  0.00600  0.51950  Biso   1.000  H
  H24      1.0000 0.14150  0.99400  0.48050  Biso   1.000  H
  C21      1.0000 0.59790  0.13980  0.48930  Biso   1.000  C
  C22      1.0000 0.40210  0.86020  0.51070  Biso   1.000  C
  H25      1.0000 0.66220  0.17920  0.43680  Biso   1.000  H
  H26      1.0000 0.33780  0.82080  0.56320  Biso   1.000  H
  H27      1.0000 0.51790  0.20160  0.50480  Biso   1.000  H
  H28      1.0000 0.48210  0.79840  0.49520  Biso   1.000  H
  C23      1.0000 0.55080  0.03320  0.46200  Biso   1.000  C
  C24      1.0000 0.44920  0.96680  0.53800  Biso   1.000  C
  H29      1.0000 0.50850  0.06610  0.40910  Biso   1.000  H
  H30      1.0000 0.49150  0.93390  0.59090  Biso   1.000  H
  H31      1.0000 0.63160  0.97380  0.44330  Biso   1.000  H
  H32      1.0000 0.36840  0.02620  0.55670  Biso   1.000  H
  C25      1.0000 0.01340  0.39960  0.16230  Biso   1.000  C
  C26      1.0000 0.98660  0.60040  0.83770  Biso   1.000  C
  H33      1.0000 0.06040  0.31870  0.16920  Biso   1.000  H
  H34      1.0000 0.93960  0.68130  0.83080  Biso   1.000  H
  C27      1.0000 0.84490  0.55290  0.17090  Biso   1.000  C
  C28      1.0000 0.15510  0.44710  0.82910  Biso   1.000  C
  H35      1.0000 0.75760  0.59980  0.18340  Biso   1.000  H
  H36      1.0000 0.24240  0.40020  0.81660  Biso   1.000  H
  C29      1.0000 0.96510  0.59530  0.13020  Biso   1.000  C
  C30      1.0000 0.03490  0.40470  0.86980  Biso   1.000  C
  O1       1.0000 0.91150  0.94010  0.77970  Biso   1.000  O
  O2       1.0000 0.08850  0.05990  0.22030  Biso   1.000  O
  O3       1.0000 0.02810  0.91930  0.64150  Biso   1.000  O
  O4       1.0000 0.97190  0.08070  0.35850  Biso   1.000  O
  O5       1.0000 0.29600  0.25590  0.01940  Biso   1.000  O
  O6       1.0000 0.70400  0.74410  0.98060  Biso   1.000  O
  O7       1.0000 0.42210  0.23260  0.88300  Biso   1.000  O
  O8       1.0000 0.57790  0.76740  0.11700  Biso   1.000  O
  O9       1.0000 0.89450  0.80250  0.10780  Biso   1.000  O
  O10      1.0000 0.10550  0.19750  0.89220  Biso   1.000  O
  O11      1.0000 0.10900  0.73840  0.05100  Biso   1.000  O
  O12      1.0000 0.89100  0.26160  0.94900  Biso   1.000  O
  O13      1.0000 0.77850  0.39550  0.42570  Biso   1.000  O
  O14      1.0000 0.22150  0.60450  0.57430  Biso   1.000  O
  O15      1.0000 0.66830  0.36510  0.63470  Biso   1.000  O
  O16      1.0000 0.33170  0.63490  0.36530  Biso   1.000  O
  O17      1.0000 0.83940  0.26340  0.75170  Biso   1.000  O
  O18      1.0000 0.16060  0.73660  0.24830  Biso   1.000  O
  O19      1.0000 0.04070  0.42430  0.64420  Biso   1.000  O
  O20      1.0000 0.95930  0.57570  0.35580  Biso   1.000  O
  O21      1.0000 0.12930  0.15970  0.66710  Biso   1.000  O
  O22      1.0000 0.87070  0.84030  0.33290  Biso   1.000  O
  O23      1.0000 0.94580  0.30390  0.55480  Biso   1.000  O
  O24      1.0000 0.05420  0.69610  0.44520  Biso   1.000  O
  O25      1.0000 0.31680  0.31910  0.60130  Biso   1.000  O
  O26      1.0000 0.68320  0.68090  0.39870  Biso   1.000  O
  O27      1.0000 0.13790  0.45780  0.46610  Biso   1.000  O
  O28      1.0000 0.86210  0.54220  0.53390  Biso   1.000  O
  O29      1.0000 0.22820  0.21690  0.47750  Biso   1.000  O
  O30      1.0000 0.77180  0.78310  0.52250  Biso   1.000  O
  O31      1.0000 0.05460  0.32430  0.36720  Biso   1.000  O
  O32      1.0000 0.94540  0.67570  0.63280  Biso   1.000  O
  O33      1.0000 0.33060  0.22210  0.28560  Biso   1.000  O
  O34      1.0000 0.66940  0.77790  0.71440  Biso   1.000  O
  O35      1.0000 0.23500  0.48000  0.28270  Biso   1.000  O
  O36      1.0000 0.76500  0.52000  0.71730  Biso   1.000  O
  O37      1.0000 0.43540  0.35270  0.37570  Biso   1.000  O
  O38      1.0000 0.56460  0.64730  0.62430  Biso   1.000  O
  N1       1.0000 0.69060  0.07380  0.71190  Biso   1.000  N
  N2       1.0000 0.30940  0.92620  0.28810  Biso   1.000  N
  N3       1.0000 0.66540  0.09840  0.56810  Biso   1.000  N
  N4       1.0000 0.33460  0.90160  0.43190  Biso   1.000  N
  N5       1.0000 0.92420  0.95680  0.69570  Biso   1.000  N
  N6       1.0000 0.07580  0.04320  0.30430  Biso   1.000  N
  N7       1.0000 0.63890  0.10770  0.95750  Biso   1.000  N
  N8       1.0000 0.36110  0.89230  0.04250  Biso   1.000  N
  N9       1.0000 0.65080  0.07690  0.10370  Biso   1.000  N
  N10      1.0000 0.34920  0.92310  0.89630  Biso   1.000  N
  N11      1.0000 0.40420  0.21960  0.96750  Biso   1.000  N
  N12      1.0000 0.59580  0.78040  0.03250  Biso   1.000  N
  N13      1.0000 0.87610  0.42880  0.18990  Biso   1.000  N
  N14      1.0000 0.12390  0.57120  0.81010  Biso   1.000  N
  N15      1.0000 0.07410  0.49920  0.12410  Biso   1.000  N
  N16      1.0000 0.92590  0.50080  0.87590  Biso   1.000  N
  N17      1.0000 0.98980  0.71970  0.09430  Biso   1.000  N
  N18      1.0000 0.01020  0.28030  0.90570  Biso   1.000  N
  O39      1.0000 0.44530  0.50370  0.02180  Biso   1.000  O
  O40      1.0000 0.55470  0.49630  0.97820  Biso   1.000  O
  O41      1.0000 0.50000  0.50000  0.50000  Biso   1.000  O
