data_image0
_cell_length_a       13.2917
_cell_length_b       17.1187
_cell_length_c       11.2791
_cell_angle_alpha    90
_cell_angle_beta     126
_cell_angle_gamma    90

_symmetry_space_group_name_H-M    "P 1"
_symmetry_int_tables_number       1

loop_
  _symmetry_equiv_pos_as_xyz
  'x, y, z'

loop_
  _atom_site_label
  _atom_site_occupancy
  _atom_site_fract_x
  _atom_site_fract_y
  _atom_site_fract_z
  _atom_site_thermal_displace_type
  _atom_site_B_iso_or_equiv
  _atom_site_type_symbol
  Cu1      1.0000 0.90490  0.48164  0.04852  Biso   1.000  Cu
  Cu2      1.0000 0.09510  0.48164  0.95148  Biso   1.000  Cu
  Cu3      1.0000 0.40490  0.98164  0.04852  Biso   1.000  Cu
  Cu4      1.0000 0.59510  0.98164  0.95148  Biso   1.000  Cu
  Cu5      1.0000 0.64506  0.46956  0.03197  Biso   1.000  Cu
  Cu6      1.0000 0.35494  0.46956  0.96803  Biso   1.000  Cu
  Cu7      1.0000 0.14506  0.96956  0.03197  Biso   1.000  Cu
  Cu8      1.0000 0.85494  0.96956  0.96803  Biso   1.000  Cu
  Br1      1.0000 0.00000  0.37509  0.00000  Biso   1.000  Br
  Br2      1.0000 0.50000  0.87509  0.00000  Biso   1.000  Br
  Br3      1.0000 0.68556  0.50852  0.85396  Biso   1.000  Br
  Br4      1.0000 0.31444  0.50852  0.14604  Biso   1.000  Br
  Br5      1.0000 0.18556  0.00852  0.85396  Biso   1.000  Br
  Br6      1.0000 0.81444  0.00852  0.14604  Biso   1.000  Br
  Br7      1.0000 0.50000  0.57320  0.00000  Biso   1.000  Br
  Br8      1.0000 0.00000  0.07320  0.00000  Biso   1.000  Br
  N1       1.0000 0.92450  0.45790  0.23990  Biso   1.000  N
  N2       1.0000 0.07550  0.45790  0.76010  Biso   1.000  N
  N3       1.0000 0.42450  0.95790  0.23990  Biso   1.000  N
  N4       1.0000 0.57550  0.95790  0.76010  Biso   1.000  N
  N5       1.0000 0.81790  0.45790  0.23590  Biso   1.000  N
  N6       1.0000 0.18210  0.45790  0.76410  Biso   1.000  N
  N7       1.0000 0.31790  0.95790  0.23590  Biso   1.000  N
  N8       1.0000 0.68210  0.95790  0.76410  Biso   1.000  N
  N9       1.0000 0.96840  0.58910  0.03100  Biso   1.000  N
  N10      1.0000 0.03160  0.58910  0.96900  Biso   1.000  N
  N11      1.0000 0.46840  0.08910  0.03100  Biso   1.000  N
  N12      1.0000 0.53160  0.08910  0.96900  Biso   1.000  N
  N13      1.0000 0.95780  0.86750  0.01800  Biso   1.000  N
  N14      1.0000 0.04220  0.86750  0.98200  Biso   1.000  N
  N15      1.0000 0.45780  0.36750  0.01800  Biso   1.000  N
  N16      1.0000 0.54220  0.36750  0.98200  Biso   1.000  N
  N17      1.0000 0.68290  0.75940  0.68620  Biso   1.000  N
  N18      1.0000 0.31710  0.75940  0.31380  Biso   1.000  N
  N19      1.0000 0.18290  0.25940  0.68620  Biso   1.000  N
  N20      1.0000 0.81710  0.25940  0.31380  Biso   1.000  N
  C1       1.0000 0.03760  0.45070  0.36620  Biso   1.000  C
  C2       1.0000 0.96240  0.45070  0.63380  Biso   1.000  C
  C3       1.0000 0.53760  0.95070  0.36620  Biso   1.000  C
  C4       1.0000 0.46240  0.95070  0.63380  Biso   1.000  C
  C5       1.0000 0.05230  0.44770  0.50150  Biso   1.000  C
  C6       1.0000 0.94770  0.44770  0.49850  Biso   1.000  C
  C7       1.0000 0.55230  0.94770  0.50150  Biso   1.000  C
  C8       1.0000 0.44770  0.94770  0.49850  Biso   1.000  C
  C9       1.0000 0.82920  0.45040  0.36020  Biso   1.000  C
  C10      1.0000 0.17080  0.45040  0.63980  Biso   1.000  C
  C11      1.0000 0.32920  0.95040  0.36020  Biso   1.000  C
  C12      1.0000 0.67080  0.95040  0.63980  Biso   1.000  C
  C13      1.0000 0.71400  0.44490  0.35590  Biso   1.000  C
  C14      1.0000 0.28600  0.44490  0.64410  Biso   1.000  C
  C15      1.0000 0.21400  0.94490  0.35590  Biso   1.000  C
  C16      1.0000 0.78600  0.94490  0.64410  Biso   1.000  C
  H1       1.0000 0.69320  0.39090  0.35260  Biso   1.000  H
  H2       1.0000 0.30680  0.39090  0.64740  Biso   1.000  H
  H3       1.0000 0.19320  0.89090  0.35260  Biso   1.000  H
  H4       1.0000 0.80680  0.89090  0.64740  Biso   1.000  H
  H5       1.0000 0.64560  0.46990  0.26890  Biso   1.000  H
  H6       1.0000 0.35440  0.46990  0.73110  Biso   1.000  H
  H7       1.0000 0.14560  0.96990  0.26890  Biso   1.000  H
  H8       1.0000 0.85440  0.96990  0.73110  Biso   1.000  H
  C17      1.0000 0.73530  0.48460  0.49150  Biso   1.000  C
  C18      1.0000 0.26470  0.48460  0.50850  Biso   1.000  C
  C19      1.0000 0.23530  0.98460  0.49150  Biso   1.000  C
  C20      1.0000 0.76470  0.98460  0.50850  Biso   1.000  C
  C21      1.0000 0.15120  0.45000  0.36830  Biso   1.000  C
  C22      1.0000 0.84880  0.45000  0.63170  Biso   1.000  C
  C23      1.0000 0.65120  0.95000  0.36830  Biso   1.000  C
  C24      1.0000 0.34880  0.95000  0.63170  Biso   1.000  C
  H9       1.0000 0.13550  0.47880  0.28590  Biso   1.000  H
  H10      1.0000 0.86450  0.47880  0.71410  Biso   1.000  H
  H11      1.0000 0.63550  0.97880  0.28590  Biso   1.000  H
  H12      1.0000 0.36450  0.97880  0.71410  Biso   1.000  H
  H13      1.0000 0.16830  0.39680  0.35860  Biso   1.000  H
  H14      1.0000 0.83170  0.39680  0.64140  Biso   1.000  H
  H15      1.0000 0.66830  0.89680  0.35860  Biso   1.000  H
  H16      1.0000 0.33170  0.89680  0.64140  Biso   1.000  H
  C25      1.0000 0.75410  0.57200  0.48900  Biso   1.000  C
  C26      1.0000 0.24590  0.57200  0.51100  Biso   1.000  C
  C27      1.0000 0.25410  0.07200  0.48900  Biso   1.000  C
  C28      1.0000 0.74590  0.07200  0.51100  Biso   1.000  C
  H17      1.0000 0.74340  0.59710  0.55700  Biso   1.000  H
  H18      1.0000 0.25660  0.59710  0.44300  Biso   1.000  H
  H19      1.0000 0.24340  0.09710  0.55700  Biso   1.000  H
  H20      1.0000 0.75660  0.09710  0.44300  Biso   1.000  H
  H21      1.0000 0.69440  0.59310  0.39310  Biso   1.000  H
  H22      1.0000 0.30560  0.59310  0.60690  Biso   1.000  H
  H23      1.0000 0.19440  0.09310  0.39310  Biso   1.000  H
  H24      1.0000 0.80560  0.09310  0.60690  Biso   1.000  H
  H25      1.0000 0.83620  0.58310  0.51720  Biso   1.000  H
  H26      1.0000 0.16380  0.58310  0.48280  Biso   1.000  H
  H27      1.0000 0.33620  0.08310  0.51720  Biso   1.000  H
  H28      1.0000 0.66380  0.08310  0.48280  Biso   1.000  H
  C29      1.0000 0.62060  0.46870  0.49030  Biso   1.000  C
  C30      1.0000 0.37940  0.46870  0.50970  Biso   1.000  C
  C31      1.0000 0.12060  0.96870  0.49030  Biso   1.000  C
  C32      1.0000 0.87940  0.96870  0.50970  Biso   1.000  C
  H29      1.0000 0.63500  0.48840  0.57870  Biso   1.000  H
  H30      1.0000 0.36500  0.48840  0.42130  Biso   1.000  H
  H31      1.0000 0.13500  0.98840  0.57870  Biso   1.000  H
  H32      1.0000 0.86500  0.98840  0.42130  Biso   1.000  H
  H33      1.0000 0.60450  0.41360  0.48230  Biso   1.000  H
  H34      1.0000 0.39550  0.41360  0.51770  Biso   1.000  H
  H35      1.0000 0.10450  0.91360  0.48230  Biso   1.000  H
  H36      1.0000 0.89550  0.91360  0.51770  Biso   1.000  H
  H37      1.0000 0.54920  0.49380  0.40690  Biso   1.000  H
  H38      1.0000 0.45080  0.49380  0.59310  Biso   1.000  H
  H39      1.0000 0.04920  0.99380  0.40690  Biso   1.000  H
  H40      1.0000 0.95080  0.99380  0.59310  Biso   1.000  H
  C33      1.0000 0.93410  0.65520  0.05750  Biso   1.000  C
  C34      1.0000 0.06590  0.65520  0.94250  Biso   1.000  C
  C35      1.0000 0.43410  0.15520  0.05750  Biso   1.000  C
  C36      1.0000 0.56590  0.15520  0.94250  Biso   1.000  C
  C37      1.0000 0.96500  0.72790  0.02690  Biso   1.000  C
  C38      1.0000 0.03500  0.72790  0.97310  Biso   1.000  C
  C39      1.0000 0.46500  0.22790  0.02690  Biso   1.000  C
  C40      1.0000 0.53500  0.22790  0.97310  Biso   1.000  C
  C41      1.0000 0.92480  0.80150  0.04460  Biso   1.000  C
  C42      1.0000 0.07520  0.80150  0.95540  Biso   1.000  C
  C43      1.0000 0.42480  0.30150  0.04460  Biso   1.000  C
  C44      1.0000 0.57520  0.30150  0.95540  Biso   1.000  C
  C45      1.0000 0.84030  0.80080  0.09200  Biso   1.000  C
  C46      1.0000 0.15970  0.80080  0.90800  Biso   1.000  C
  C47      1.0000 0.34030  0.30080  0.09200  Biso   1.000  C
  C48      1.0000 0.65970  0.30080  0.90800  Biso   1.000  C
  H41      1.0000 0.75540  0.79710  0.00770  Biso   1.000  H
  H42      1.0000 0.24460  0.79710  0.99230  Biso   1.000  H
  H43      1.0000 0.25540  0.29710  0.00770  Biso   1.000  H
  H44      1.0000 0.74460  0.29710  0.99230  Biso   1.000  H
  H45      1.0000 0.85000  0.84870  0.14200  Biso   1.000  H
  H46      1.0000 0.15000  0.84870  0.85800  Biso   1.000  H
  H47      1.0000 0.35000  0.34870  0.14200  Biso   1.000  H
  H48      1.0000 0.65000  0.34870  0.85800  Biso   1.000  H
  C49      1.0000 0.87260  0.73240  0.19690  Biso   1.000  C
  C50      1.0000 0.12740  0.73240  0.80310  Biso   1.000  C
  C51      1.0000 0.37260  0.23240  0.19690  Biso   1.000  C
  C52      1.0000 0.62740  0.23240  0.80310  Biso   1.000  C
  C53      1.0000 0.86210  0.65460  0.12150  Biso   1.000  C
  C54      1.0000 0.13790  0.65460  0.87850  Biso   1.000  C
  C55      1.0000 0.36210  0.15460  0.12150  Biso   1.000  C
  C56      1.0000 0.63790  0.15460  0.87850  Biso   1.000  C
  H49      1.0000 0.89180  0.61290  0.19140  Biso   1.000  H
  H50      1.0000 0.10820  0.61290  0.80860  Biso   1.000  H
  H51      1.0000 0.39180  0.11290  0.19140  Biso   1.000  H
  H52      1.0000 0.60820  0.11290  0.80860  Biso   1.000  H
  H53      1.0000 0.77610  0.64480  0.04480  Biso   1.000  H
  H54      1.0000 0.22390  0.64480  0.95520  Biso   1.000  H
  H55      1.0000 0.27610  0.14480  0.04480  Biso   1.000  H
  H56      1.0000 0.72390  0.14480  0.95520  Biso   1.000  H
  C57      1.0000 0.00340  0.74130  0.33850  Biso   1.000  C
  C58      1.0000 0.99660  0.74130  0.66150  Biso   1.000  C
  C59      1.0000 0.50340  0.24130  0.33850  Biso   1.000  C
  C60      1.0000 0.49660  0.24130  0.66150  Biso   1.000  C
  H57      1.0000 0.99910  0.75950  0.41590  Biso   1.000  H
  H58      1.0000 0.00090  0.75950  0.58410  Biso   1.000  H
  H59      1.0000 0.49910  0.25950  0.41590  Biso   1.000  H
  H60      1.0000 0.50090  0.25950  0.58410  Biso   1.000  H
  H61      1.0000 0.04870  0.77790  0.32180  Biso   1.000  H
  H62      1.0000 0.95130  0.77790  0.67820  Biso   1.000  H
  H63      1.0000 0.54870  0.27790  0.32180  Biso   1.000  H
  H64      1.0000 0.45130  0.27790  0.67820  Biso   1.000  H
  H65      1.0000 0.04610  0.69210  0.36440  Biso   1.000  H
  H66      1.0000 0.95390  0.69210  0.63560  Biso   1.000  H
  H67      1.0000 0.54610  0.19210  0.36440  Biso   1.000  H
  H68      1.0000 0.45390  0.19210  0.63560  Biso   1.000  H
  C61      1.0000 0.77660  0.73130  0.23260  Biso   1.000  C
  C62      1.0000 0.22340  0.73130  0.76740  Biso   1.000  C
  C63      1.0000 0.27660  0.23130  0.23260  Biso   1.000  C
  C64      1.0000 0.72340  0.23130  0.76740  Biso   1.000  C
  H69      1.0000 0.69370  0.72830  0.14390  Biso   1.000  H
  H70      1.0000 0.30630  0.72830  0.85610  Biso   1.000  H
  H71      1.0000 0.19370  0.22830  0.14390  Biso   1.000  H
  H72      1.0000 0.80630  0.22830  0.85610  Biso   1.000  H
  H73      1.0000 0.78590  0.77790  0.28550  Biso   1.000  H
  H74      1.0000 0.21410  0.77790  0.71450  Biso   1.000  H
  H75      1.0000 0.28590  0.27790  0.28550  Biso   1.000  H
  H76      1.0000 0.71410  0.27790  0.71450  Biso   1.000  H
  H77      1.0000 0.79240  0.68730  0.29410  Biso   1.000  H
  H78      1.0000 0.20760  0.68730  0.70590  Biso   1.000  H
  H79      1.0000 0.29240  0.18730  0.29410  Biso   1.000  H
  H80      1.0000 0.70760  0.18730  0.70590  Biso   1.000  H
  C65      1.0000 0.61200  0.74220  0.70260  Biso   1.000  C
  C66      1.0000 0.38800  0.74220  0.29740  Biso   1.000  C
  C67      1.0000 0.11200  0.24220  0.70260  Biso   1.000  C
  C68      1.0000 0.88800  0.24220  0.29740  Biso   1.000  C
  C69      1.0000 0.51690  0.72340  0.72660  Biso   1.000  C
  C70      1.0000 0.48310  0.72340  0.27340  Biso   1.000  C
  C71      1.0000 0.01690  0.22340  0.72660  Biso   1.000  C
  C72      1.0000 0.98310  0.22340  0.27340  Biso   1.000  C
  H81      1.0000 0.43610  0.73910  0.64330  Biso   1.000  H
  H82      1.0000 0.56390  0.73910  0.35670  Biso   1.000  H
  H83      1.0000 0.93610  0.23910  0.64330  Biso   1.000  H
  H84      1.0000 0.06390  0.23910  0.35670  Biso   1.000  H
  H85      1.0000 0.53720  0.74980  0.81330  Biso   1.000  H
  H86      1.0000 0.46280  0.74980  0.18670  Biso   1.000  H
  H87      1.0000 0.03720  0.24980  0.81330  Biso   1.000  H
  H88      1.0000 0.96280  0.24980  0.18670  Biso   1.000  H
  H89      1.0000 0.51840  0.66830  0.74300  Biso   1.000  H
  H90      1.0000 0.48160  0.66830  0.25700  Biso   1.000  H
  H91      1.0000 0.01840  0.16830  0.74300  Biso   1.000  H
  H92      1.0000 0.98160  0.16830  0.25700  Biso   1.000  H
