data_image0
_cell_length_a       11.965
_cell_length_b       12.546
_cell_length_c       16.425
_cell_angle_alpha    68.069
_cell_angle_beta     89.949
_cell_angle_gamma    77.067

_symmetry_space_group_name_H-M    "P 1"
_symmetry_int_tables_number       1

loop_
  _symmetry_equiv_pos_as_xyz
  'x, y, z'

loop_
  _atom_site_label
  _atom_site_occupancy
  _atom_site_fract_x
  _atom_site_fract_y
  _atom_site_fract_z
  _atom_site_thermal_displace_type
  _atom_site_B_iso_or_equiv
  _atom_site_type_symbol
  Cu1      1.0000 0.24969  0.50418  0.29842  Biso   1.000  Cu
  Cu2      1.0000 0.75031  0.49582  0.70158  Biso   1.000  Cu
  Cu3      1.0000 0.24948  0.50643  0.79779  Biso   1.000  Cu
  Cu4      1.0000 0.75052  0.49357  0.20221  Biso   1.000  Cu
  I1       1.0000 0.25274  0.49791  0.15196  Biso   1.000  I
  I2       1.0000 0.74726  0.50209  0.84804  Biso   1.000  I
  I3       1.0000 0.24897  0.49562  0.65229  Biso   1.000  I
  I4       1.0000 0.75103  0.50438  0.34771  Biso   1.000  I
  N1       1.0000 0.33910  0.62760  0.38710  Biso   1.000  N
  N2       1.0000 0.66090  0.37240  0.61290  Biso   1.000  N
  N3       1.0000 0.36810  0.52100  0.37660  Biso   1.000  N
  N4       1.0000 0.63190  0.47900  0.62340  Biso   1.000  N
  N5       1.0000 0.15860  0.37560  0.45320  Biso   1.000  N
  N6       1.0000 0.84140  0.62440  0.54680  Biso   1.000  N
  N7       1.0000 0.12970  0.48530  0.38560  Biso   1.000  N
  N8       1.0000 0.87030  0.51470  0.61440  Biso   1.000  N
  N9       1.0000 0.11850  0.52330  0.87560  Biso   1.000  N
  N10      1.0000 0.88150  0.47670  0.12440  Biso   1.000  N
  N11      1.0000 0.09820  0.63080  0.88570  Biso   1.000  N
  N12      1.0000 0.90180  0.36920  0.11430  Biso   1.000  N
  N13      1.0000 0.39750  0.37740  0.95310  Biso   1.000  N
  N14      1.0000 0.60250  0.62260  0.04690  Biso   1.000  N
  N15      1.0000 0.37630  0.48720  0.88560  Biso   1.000  N
  N16      1.0000 0.62370  0.51280  0.11440  Biso   1.000  N
  C1       1.0000 0.39120  0.64320  0.44950  Biso   1.000  C
  C2       1.0000 0.60880  0.35680  0.55050  Biso   1.000  C
  C3       1.0000 0.48400  0.55170  0.50730  Biso   1.000  C
  C4       1.0000 0.51600  0.44830  0.49270  Biso   1.000  C
  C5       1.0000 0.45550  0.43590  0.42500  Biso   1.000  C
  C6       1.0000 0.54450  0.56410  0.57500  Biso   1.000  C
  C7       1.0000 0.48940  0.32360  0.40930  Biso   1.000  C
  C8       1.0000 0.51060  0.67640  0.59070  Biso   1.000  C
  H1       1.0000 0.42170  0.30970  0.38780  Biso   1.000  H
  H2       1.0000 0.57830  0.69030  0.61220  Biso   1.000  H
  H3       1.0000 0.54310  0.33110  0.36520  Biso   1.000  H
  H4       1.0000 0.45690  0.66890  0.63480  Biso   1.000  H
  C9       1.0000 0.54320  0.21540  0.49530  Biso   1.000  C
  C10      1.0000 0.45680  0.78460  0.50470  Biso   1.000  C
  C11      1.0000 0.35920  0.75720  0.46350  Biso   1.000  C
  C12      1.0000 0.64080  0.24280  0.53650  Biso   1.000  C
  H5       1.0000 0.29740  0.75420  0.50100  Biso   1.000  H
  H6       1.0000 0.70260  0.24580  0.49900  Biso   1.000  H
  H7       1.0000 0.33140  0.82100  0.40790  Biso   1.000  H
  H8       1.0000 0.66860  0.17900  0.59210  Biso   1.000  H
  C13      1.0000 0.59140  0.11100  0.46890  Biso   1.000  C
  C14      1.0000 0.40860  0.88900  0.53110  Biso   1.000  C
  H9       1.0000 0.62640  0.04280  0.52040  Biso   1.000  H
  H10      1.0000 0.37360  0.95720  0.47960  Biso   1.000  H
  H11      1.0000 0.64810  0.13030  0.42800  Biso   1.000  H
  H12      1.0000 0.35190  0.86970  0.57200  Biso   1.000  H
  H13      1.0000 0.53020  0.09420  0.44170  Biso   1.000  H
  H14      1.0000 0.46980  0.90580  0.55830  Biso   1.000  H
  C15      1.0000 0.45030  0.18780  0.55890  Biso   1.000  C
  C16      1.0000 0.54970  0.81220  0.44110  Biso   1.000  C
  H15      1.0000 0.48330  0.12240  0.61260  Biso   1.000  H
  H16      1.0000 0.51670  0.87760  0.38740  Biso   1.000  H
  H17      1.0000 0.39170  0.16780  0.53150  Biso   1.000  H
  H18      1.0000 0.60830  0.83220  0.46850  Biso   1.000  H
  H19      1.0000 0.41700  0.25600  0.57190  Biso   1.000  H
  H20      1.0000 0.58300  0.74400  0.42810  Biso   1.000  H
  C17      1.0000 0.10360  0.35640  0.52430  Biso   1.000  C
  C18      1.0000 0.89640  0.64360  0.47570  Biso   1.000  C
  C19      1.0000 0.01610  0.44680  0.53350  Biso   1.000  C
  C20      1.0000 0.98390  0.55320  0.46650  Biso   1.000  C
  C21      1.0000 0.04620  0.57220  0.38920  Biso   1.000  C
  C22      1.0000 0.95380  0.42780  0.61080  Biso   1.000  C
  C23      1.0000 0.01330  0.69050  0.31450  Biso   1.000  C
  C24      1.0000 0.98670  0.30950  0.68550  Biso   1.000  C
  H21      1.0000 0.07980  0.70570  0.28370  Biso   1.000  H
  H22      1.0000 0.92020  0.29430  0.71630  Biso   1.000  H
  H23      1.0000 0.95680  0.68830  0.27410  Biso   1.000  H
  H24      1.0000 0.04320  0.31170  0.72590  Biso   1.000  H
  C25      1.0000 0.96420  0.79210  0.34520  Biso   1.000  C
  C26      1.0000 0.03580  0.20790  0.65480  Biso   1.000  C
  C27      1.0000 0.13720  0.23750  0.59910  Biso   1.000  C
  C28      1.0000 0.86280  0.76250  0.40090  Biso   1.000  C
  H25      1.0000 0.19910  0.23740  0.63630  Biso   1.000  H
  H26      1.0000 0.80090  0.76260  0.36370  Biso   1.000  H
  H27      1.0000 0.16480  0.17750  0.57600  Biso   1.000  H
  H28      1.0000 0.83520  0.82250  0.42400  Biso   1.000  H
  C29      1.0000 0.91870  0.90450  0.26470  Biso   1.000  C
  C30      1.0000 0.08130  0.09550  0.73530  Biso   1.000  C
  H29      1.0000 0.98040  0.92460  0.22930  Biso   1.000  H
  H30      1.0000 0.01960  0.07540  0.77070  Biso   1.000  H
  H31      1.0000 0.88490  0.96800  0.28290  Biso   1.000  H
  H32      1.0000 0.11510  0.03200  0.71710  Biso   1.000  H
  H33      1.0000 0.86130  0.89170  0.23090  Biso   1.000  H
  H34      1.0000 0.13870  0.10830  0.76910  Biso   1.000  H
  C31      1.0000 0.05650  0.80890  0.39730  Biso   1.000  C
  C32      1.0000 0.94350  0.19110  0.60270  Biso   1.000  C
  H35      1.0000 0.11830  0.82740  0.36140  Biso   1.000  H
  H36      1.0000 0.88170  0.17260  0.63860  Biso   1.000  H
  H37      1.0000 0.08530  0.73770  0.44830  Biso   1.000  H
  H38      1.0000 0.91470  0.26230  0.55170  Biso   1.000  H
  H39      1.0000 0.02490  0.87290  0.41560  Biso   1.000  H
  H40      1.0000 0.97510  0.12710  0.58440  Biso   1.000  H
  C33      1.0000 0.07650  0.43810  0.92380  Biso   1.000  C
  C34      1.0000 0.92350  0.56190  0.07620  Biso   1.000  C
  C35      1.0000 0.00910  0.44770  0.99340  Biso   1.000  C
  C36      1.0000 0.99090  0.55230  0.00660  Biso   1.000  C
  C37      1.0000 0.03670  0.64390  0.94840  Biso   1.000  C
  C38      1.0000 0.96330  0.35610  0.05160  Biso   1.000  C
  C39      1.0000 0.01760  0.75770  0.96330  Biso   1.000  C
  C40      1.0000 0.98240  0.24230  0.03670  Biso   1.000  C
  H41      1.0000 0.08160  0.75510  0.99980  Biso   1.000  H
  H42      1.0000 0.91840  0.24490  0.00020  Biso   1.000  H
  H43      1.0000 0.01340  0.82180  0.90740  Biso   1.000  H
  H44      1.0000 0.98660  0.17820  0.09260  Biso   1.000  H
  C41      1.0000 0.90440  0.78170  0.00610  Biso   1.000  C
  C42      1.0000 0.09560  0.21830  0.99390  Biso   1.000  C
  C43      1.0000 0.09520  0.32420  0.90950  Biso   1.000  C
  C44      1.0000 0.90480  0.67580  0.09050  Biso   1.000  C
  H45      1.0000 0.16650  0.31070  0.88390  Biso   1.000  H
  H46      1.0000 0.83350  0.68930  0.11610  Biso   1.000  H
  H47      1.0000 0.03420  0.33140  0.86850  Biso   1.000  H
  H48      1.0000 0.96580  0.66860  0.13150  Biso   1.000  H
  C45      1.0000 0.90140  0.89180  0.03090  Biso   1.000  C
  C46      1.0000 0.09860  0.10820  0.96910  Biso   1.000  C
  H49      1.0000 0.83240  0.90820  0.05850  Biso   1.000  H
  H50      1.0000 0.16760  0.09180  0.94150  Biso   1.000  H
  H51      1.0000 0.90250  0.95920  0.97820  Biso   1.000  H
  H52      1.0000 0.09750  0.04080  0.02180  Biso   1.000  H
  H53      1.0000 0.96740  0.87540  0.07070  Biso   1.000  H
  H54      1.0000 0.03260  0.12460  0.92930  Biso   1.000  H
  C47      1.0000 0.79870  0.80940  0.94250  Biso   1.000  C
  C48      1.0000 0.20130  0.19060  0.05750  Biso   1.000  C
  H55      1.0000 0.72940  0.82290  0.97050  Biso   1.000  H
  H56      1.0000 0.27060  0.17710  0.02950  Biso   1.000  H
  H57      1.0000 0.80230  0.74330  0.92570  Biso   1.000  H
  H58      1.0000 0.19770  0.25670  0.07430  Biso   1.000  H
  H59      1.0000 0.79880  0.87870  0.89110  Biso   1.000  H
  H60      1.0000 0.20120  0.12130  0.10890  Biso   1.000  H
  C49      1.0000 0.46090  0.35750  0.02420  Biso   1.000  C
  C50      1.0000 0.53910  0.64250  0.97580  Biso   1.000  C
  C51      1.0000 0.50810  0.44440  0.03440  Biso   1.000  C
  C52      1.0000 0.49190  0.55560  0.96560  Biso   1.000  C
  C53      1.0000 0.42080  0.57010  0.89050  Biso   1.000  C
  C54      1.0000 0.57920  0.42990  0.10950  Biso   1.000  C
  C55      1.0000 0.40210  0.69000  0.81460  Biso   1.000  C
  C56      1.0000 0.59790  0.31000  0.18540  Biso   1.000  C
  H61      1.0000 0.45940  0.68580  0.77430  Biso   1.000  H
  H62      1.0000 0.54060  0.31420  0.22570  Biso   1.000  H
  H63      1.0000 0.32810  0.70670  0.78380  Biso   1.000  H
  H64      1.0000 0.67190  0.29330  0.21620  Biso   1.000  H
  C57      1.0000 0.40560  0.79190  0.84340  Biso   1.000  C
  C58      1.0000 0.59440  0.20810  0.15660  Biso   1.000  C
  C59      1.0000 0.48170  0.23990  0.09880  Biso   1.000  C
  C60      1.0000 0.51830  0.76010  0.90120  Biso   1.000  C
  H65      1.0000 0.48400  0.18060  0.07460  Biso   1.000  H
  H66      1.0000 0.51600  0.81940  0.92540  Biso   1.000  H
  H67      1.0000 0.41840  0.23860  0.13480  Biso   1.000  H
  H68      1.0000 0.58160  0.76140  0.86520  Biso   1.000  H
  C61      1.0000 0.40150  0.90130  0.76170  Biso   1.000  C
  C62      1.0000 0.59850  0.09870  0.23830  Biso   1.000  C
  H69      1.0000 0.40440  0.96500  0.77990  Biso   1.000  H
  H70      1.0000 0.59560  0.03500  0.22010  Biso   1.000  H
  H71      1.0000 0.33180  0.92190  0.72440  Biso   1.000  H
  H72      1.0000 0.66820  0.07810  0.27560  Biso   1.000  H
  H73      1.0000 0.46670  0.88740  0.72970  Biso   1.000  H
  H74      1.0000 0.53330  0.11260  0.27030  Biso   1.000  H
  C63      1.0000 0.30220  0.81520  0.89520  Biso   1.000  C
  C64      1.0000 0.69780  0.18480  0.10480  Biso   1.000  C
  H75      1.0000 0.30610  0.87880  0.91340  Biso   1.000  H
  H76      1.0000 0.69390  0.12120  0.08660  Biso   1.000  H
  H77      1.0000 0.30310  0.74510  0.94620  Biso   1.000  H
  H78      1.0000 0.69690  0.25490  0.05380  Biso   1.000  H
  H79      1.0000 0.23240  0.83650  0.85800  Biso   1.000  H
  H80      1.0000 0.76760  0.16350  0.14200  Biso   1.000  H
  N17      1.0000 0.13160  0.86980  0.63210  Biso   1.000  N
  N18      1.0000 0.86840  0.13020  0.36790  Biso   1.000  N
  N19      1.0000 0.20370  0.86130  0.19510  Biso   1.000  N
  N20      1.0000 0.79630  0.13870  0.80490  Biso   1.000  N
  C65      1.0000 0.06480  0.82190  0.64770  Biso   1.000  C
  C66      1.0000 0.93520  0.17810  0.35230  Biso   1.000  C
  C67      1.0000 0.97840  0.76080  0.65630  Biso   1.000  C
  C68      1.0000 0.02160  0.23920  0.34370  Biso   1.000  C
  C69      1.0000 0.28940  0.82100  0.16800  Biso   1.000  C
  C70      1.0000 0.71060  0.17900  0.83200  Biso   1.000  C
  C71      1.0000 0.40260  0.75530  0.16230  Biso   1.000  C
  C72      1.0000 0.59740  0.24470  0.83770  Biso   1.000  C
