data_image0
_cell_length_a       9.777
_cell_length_b       12.125
_cell_length_c       12.939
_cell_angle_alpha    78.014
_cell_angle_beta     76.24
_cell_angle_gamma    89.046

_symmetry_space_group_name_H-M    "P 1"
_symmetry_int_tables_number       1

loop_
  _symmetry_equiv_pos_as_xyz
  'x, y, z'

loop_
  _atom_site_label
  _atom_site_occupancy
  _atom_site_fract_x
  _atom_site_fract_y
  _atom_site_fract_z
  _atom_site_thermal_displace_type
  _atom_site_B_iso_or_equiv
  _atom_site_type_symbol
  Cu1      1.0000 0.32567  0.94455  0.20372  Biso   1.000  Cu
  Cu2      1.0000 0.67433  0.05545  0.79628  Biso   1.000  Cu
  Cu3      1.0000 0.55564  0.89637  0.03696  Biso   1.000  Cu
  Cu4      1.0000 0.44436  0.10363  0.96304  Biso   1.000  Cu
  I1       1.0000 0.43192  0.74289  0.19868  Biso   1.000  I
  I2       1.0000 0.56808  0.25711  0.80132  Biso   1.000  I
  I3       1.0000 0.54403  0.09100  0.13506  Biso   1.000  I
  I4       1.0000 0.45597  0.90900  0.86494  Biso   1.000  I
  N1       1.0000 0.19510  0.96100  0.35110  Biso   1.000  N
  N2       1.0000 0.80490  0.03900  0.64890  Biso   1.000  N
  N3       1.0000 0.17500  0.86390  0.43300  Biso   1.000  N
  N4       1.0000 0.82500  0.13610  0.56700  Biso   1.000  N
  N5       1.0000 0.19350  0.98090  0.09609  Biso   1.000  N
  N6       1.0000 0.80650  0.01910  0.90391  Biso   1.000  N
  N7       1.0000 0.22700  0.07710  0.01400  Biso   1.000  N
  N8       1.0000 0.77300  0.92290  0.98600  Biso   1.000  N
  N9       1.0000 0.65390  0.37800  0.27400  Biso   1.000  N
  N10      1.0000 0.34610  0.62200  0.72600  Biso   1.000  N
  N11      1.0000 0.23460  0.42500  0.38180  Biso   1.000  N
  N12      1.0000 0.76540  0.57500  0.61820  Biso   1.000  N
  N13      1.0000 0.21120  0.15660  0.57340  Biso   1.000  N
  N14      1.0000 0.78880  0.84340  0.42660  Biso   1.000  N
  C1       1.0000 0.12110  0.05100  0.36520  Biso   1.000  C
  C2       1.0000 0.87890  0.94900  0.63480  Biso   1.000  C
  C3       1.0000 0.01230  0.04850  0.46060  Biso   1.000  C
  C4       1.0000 0.98770  0.95150  0.53940  Biso   1.000  C
  C5       1.0000 0.07660  0.85900  0.52320  Biso   1.000  C
  C6       1.0000 0.92340  0.14100  0.47680  Biso   1.000  C
  C7       1.0000 0.05720  0.75410  0.61020  Biso   1.000  C
  C8       1.0000 0.94280  0.24590  0.38980  Biso   1.000  C
  H1       1.0000 0.00000  0.70100  0.59500  Biso   1.000  H
  H2       1.0000 0.00000  0.29900  0.40500  Biso   1.000  H
  H3       1.0000 0.15500  0.72000  0.60900  Biso   1.000  H
  H4       1.0000 0.84500  0.28000  0.39100  Biso   1.000  H
  C9       1.0000 0.98730  0.77720  0.72410  Biso   1.000  C
  C10      1.0000 0.01270  0.22280  0.27590  Biso   1.000  C
  C11      1.0000 0.14990  0.15930  0.28170  Biso   1.000  C
  C12      1.0000 0.85010  0.84070  0.71830  Biso   1.000  C
  H5       1.0000 0.19600  0.14800  0.21300  Biso   1.000  H
  H6       1.0000 0.80400  0.85200  0.78700  Biso   1.000  H
  H7       1.0000 0.21300  0.20600  0.30300  Biso   1.000  H
  H8       1.0000 0.78700  0.79400  0.69700  Biso   1.000  H
  C13      1.0000 0.08770  0.84580  0.76210  Biso   1.000  C
  C14      1.0000 0.91230  0.15420  0.23790  Biso   1.000  C
  H9       1.0000 0.17300  0.80600  0.76300  Biso   1.000  H
  H10      1.0000 0.82700  0.19400  0.23700  Biso   1.000  H
  H11      1.0000 0.11200  0.91600  0.71500  Biso   1.000  H
  H12      1.0000 0.88800  0.08400  0.28500  Biso   1.000  H
  H13      1.0000 0.04600  0.85500  0.83000  Biso   1.000  H
  H14      1.0000 0.95400  0.14500  0.17000  Biso   1.000  H
  C15      1.0000 0.94950  0.66390  0.80480  Biso   1.000  C
  C16      1.0000 0.05050  0.33610  0.19520  Biso   1.000  C
  H15      1.0000 0.89200  0.62000  0.78200  Biso   1.000  H
  H16      1.0000 0.10800  0.38000  0.21800  Biso   1.000  H
  H17      1.0000 0.03200  0.62000  0.81400  Biso   1.000  H
  H18      1.0000 0.96800  0.38000  0.18600  Biso   1.000  H
  H19      1.0000 0.90400  0.67900  0.87600  Biso   1.000  H
  H20      1.0000 0.09600  0.32100  0.12400  Biso   1.000  H
  C17      1.0000 0.07810  0.92040  0.10920  Biso   1.000  C
  C18      1.0000 0.92190  0.07960  0.89080  Biso   1.000  C
  C19      1.0000 0.98470  0.95090  0.03910  Biso   1.000  C
  C20      1.0000 0.01530  0.04910  0.96090  Biso   1.000  C
  C21      1.0000 0.13940  0.11260  0.95090  Biso   1.000  C
  C22      1.0000 0.86060  0.88740  0.04910  Biso   1.000  C
  C23      1.0000 0.17370  0.21930  0.86520  Biso   1.000  C
  C24      1.0000 0.82630  0.78070  0.13480  Biso   1.000  C
  H21      1.0000 0.21700  0.27100  0.89400  Biso   1.000  H
  H22      1.0000 0.78300  0.72900  0.10600  Biso   1.000  H
  H23      1.0000 0.23400  0.20000  0.80500  Biso   1.000  H
  H24      1.0000 0.76600  0.80000  0.19500  Biso   1.000  H
  C25      1.0000 0.04250  0.27240  0.83150  Biso   1.000  C
  C26      1.0000 0.95750  0.72760  0.16850  Biso   1.000  C
  C27      1.0000 0.04040  0.81830  0.19920  Biso   1.000  C
  C28      1.0000 0.95960  0.18170  0.80080  Biso   1.000  C
  H25      1.0000 0.98800  0.84100  0.26200  Biso   1.000  H
  H26      1.0000 0.01200  0.15900  0.73800  Biso   1.000  H
  H27      1.0000 0.12000  0.78800  0.21700  Biso   1.000  H
  H28      1.0000 0.88000  0.21200  0.78300  Biso   1.000  H
  C29      1.0000 0.09150  0.36780  0.73110  Biso   1.000  C
  C30      1.0000 0.90850  0.63220  0.26890  Biso   1.000  C
  H29      1.0000 0.14700  0.42600  0.75100  Biso   1.000  H
  H30      1.0000 0.85300  0.57400  0.24900  Biso   1.000  H
  H31      1.0000 0.14600  0.34000  0.67100  Biso   1.000  H
  H32      1.0000 0.85400  0.66000  0.32900  Biso   1.000  H
  H33      1.0000 0.01400  0.39700  0.70800  Biso   1.000  H
  H34      1.0000 0.98600  0.60300  0.29200  Biso   1.000  H
  C31      1.0000 0.94800  0.32020  0.92240  Biso   1.000  C
  C32      1.0000 0.05200  0.67980  0.07760  Biso   1.000  C
  H35      1.0000 0.90700  0.26700  0.99000  Biso   1.000  H
  H36      1.0000 0.09300  0.73300  0.01000  Biso   1.000  H
  H37      1.0000 0.99100  0.37100  0.93900  Biso   1.000  H
  H38      1.0000 0.00900  0.62900  0.06100  Biso   1.000  H
  H39      1.0000 0.86200  0.35800  0.90400  Biso   1.000  H
  H40      1.0000 0.13800  0.64200  0.09600  Biso   1.000  H
  C33      1.0000 0.55240  0.48520  0.03530  Biso   1.000  C
  C34      1.0000 0.44760  0.51480  0.96470  Biso   1.000  C
  H41      1.0000 0.62420  0.43950  0.00260  Biso   1.000  H
  H42      1.0000 0.37580  0.56050  0.99740  Biso   1.000  H
  H43      1.0000 0.59660  0.55330  0.04040  Biso   1.000  H
  H44      1.0000 0.40340  0.44670  0.95960  Biso   1.000  H
  C35      1.0000 0.47870  0.42190  0.14820  Biso   1.000  C
  C36      1.0000 0.52130  0.57810  0.85180  Biso   1.000  C
  H45      1.0000 0.43690  0.35290  0.14290  Biso   1.000  H
  H46      1.0000 0.56310  0.64710  0.85710  Biso   1.000  H
  H47      1.0000 0.40480  0.46680  0.17950  Biso   1.000  H
  H48      1.0000 0.59520  0.53320  0.82050  Biso   1.000  H
  C37      1.0000 0.57730  0.39590  0.21920  Biso   1.000  C
  C38      1.0000 0.42270  0.60410  0.78080  Biso   1.000  C
  C39      1.0000 0.48090  0.55590  0.47180  Biso   1.000  C
  C40      1.0000 0.51910  0.44410  0.52820  Biso   1.000  C
  H49      1.0000 0.51220  0.61350  0.50260  Biso   1.000  H
  H50      1.0000 0.48780  0.38650  0.49740  Biso   1.000  H
  H51      1.0000 0.52900  0.56890  0.39620  Biso   1.000  H
  H52      1.0000 0.47100  0.43110  0.60380  Biso   1.000  H
  C41      1.0000 0.32130  0.56380  0.48120  Biso   1.000  C
  C42      1.0000 0.67870  0.43620  0.51880  Biso   1.000  C
  H53      1.0000 0.30030  0.63940  0.45080  Biso   1.000  H
  H54      1.0000 0.69970  0.36060  0.54920  Biso   1.000  H
  H55      1.0000 0.27300  0.54680  0.55680  Biso   1.000  H
  H56      1.0000 0.72700  0.45320  0.44320  Biso   1.000  H
  C43      1.0000 0.26940  0.48620  0.42590  Biso   1.000  C
  C44      1.0000 0.73060  0.51380  0.57410  Biso   1.000  C
  C45      1.0000 0.52640  0.05240  0.46370  Biso   1.000  C
  C46      1.0000 0.47360  0.94760  0.53630  Biso   1.000  C
  H57      1.0000 0.62690  0.05160  0.43790  Biso   1.000  H
  H58      1.0000 0.37310  0.94840  0.56210  Biso   1.000  H
  H59      1.0000 0.48500  0.06100  0.40240  Biso   1.000  H
  H60      1.0000 0.51500  0.93900  0.59760  Biso   1.000  H
  C47      1.0000 0.48370  0.15000  0.51880  Biso   1.000  C
  C48      1.0000 0.51630  0.85000  0.48120  Biso   1.000  C
  H61      1.0000 0.52360  0.21970  0.47180  Biso   1.000  H
  H62      1.0000 0.47640  0.78030  0.52820  Biso   1.000  H
  H63      1.0000 0.51950  0.13870  0.58300  Biso   1.000  H
  H64      1.0000 0.48050  0.86130  0.41700  Biso   1.000  H
  C49      1.0000 0.32800  0.15590  0.55040  Biso   1.000  C
  C50      1.0000 0.67200  0.84410  0.44960  Biso   1.000  C
