data_image0
_cell_length_a       18.6509
_cell_length_b       18.6509
_cell_length_c       12.2593
_cell_angle_alpha    90
_cell_angle_beta     90
_cell_angle_gamma    90

_symmetry_space_group_name_H-M    "P 1"
_symmetry_int_tables_number       1

loop_
  _symmetry_equiv_pos_as_xyz
  'x, y, z'

loop_
  _atom_site_label
  _atom_site_occupancy
  _atom_site_fract_x
  _atom_site_fract_y
  _atom_site_fract_z
  _atom_site_thermal_displace_type
  _atom_site_B_iso_or_equiv
  _atom_site_type_symbol
  Tb1      1.0000 0.43306  0.43306  0.62881  Biso   1.000  Tb
  Tb2      1.0000 0.06694  0.06694  0.62881  Biso   1.000  Tb
  Tb3      1.0000 0.06694  0.43306  0.62881  Biso   1.000  Tb
  Tb4      1.0000 0.43306  0.06694  0.62881  Biso   1.000  Tb
  Tb5      1.0000 0.56694  0.93306  0.37119  Biso   1.000  Tb
  Tb6      1.0000 0.93306  0.56694  0.37119  Biso   1.000  Tb
  Tb7      1.0000 0.93306  0.93306  0.37119  Biso   1.000  Tb
  Tb8      1.0000 0.56694  0.56694  0.37119  Biso   1.000  Tb
  Cu1      1.0000 0.25000  0.68066  0.08242  Biso   1.000  Cu
  Cu2      1.0000 0.25000  0.81934  0.08242  Biso   1.000  Cu
  Cu3      1.0000 0.81934  0.25000  0.08242  Biso   1.000  Cu
  Cu4      1.0000 0.68066  0.25000  0.08242  Biso   1.000  Cu
  Cu5      1.0000 0.75000  0.18066  0.91758  Biso   1.000  Cu
  Cu6      1.0000 0.75000  0.31934  0.91758  Biso   1.000  Cu
  Cu7      1.0000 0.18066  0.75000  0.91758  Biso   1.000  Cu
  Cu8      1.0000 0.31934  0.75000  0.91758  Biso   1.000  Cu
  I1       1.0000 0.25000  0.62220  0.88798  Biso   1.000  I
  I2       1.0000 0.25000  0.87780  0.88798  Biso   1.000  I
  I3       1.0000 0.87780  0.25000  0.88798  Biso   1.000  I
  I4       1.0000 0.62220  0.25000  0.88798  Biso   1.000  I
  I5       1.0000 0.75000  0.12220  0.11202  Biso   1.000  I
  I6       1.0000 0.75000  0.37780  0.11202  Biso   1.000  I
  I7       1.0000 0.12220  0.75000  0.11202  Biso   1.000  I
  I8       1.0000 0.37780  0.75000  0.11202  Biso   1.000  I
  O1       1.0000 0.38350  0.48870  0.48190  Biso   1.000  O
  O2       1.0000 0.11650  0.01130  0.48190  Biso   1.000  O
  O3       1.0000 0.01130  0.38350  0.48190  Biso   1.000  O
  O4       1.0000 0.48870  0.11650  0.48190  Biso   1.000  O
  O5       1.0000 0.61650  0.98870  0.51810  Biso   1.000  O
  O6       1.0000 0.88350  0.51130  0.51810  Biso   1.000  O
  O7       1.0000 0.98870  0.88350  0.51810  Biso   1.000  O
  O8       1.0000 0.51130  0.61650  0.51810  Biso   1.000  O
  O9       1.0000 0.61650  0.51130  0.51810  Biso   1.000  O
  O10      1.0000 0.88350  0.98870  0.51810  Biso   1.000  O
  O11      1.0000 0.98870  0.61650  0.51810  Biso   1.000  O
  O12      1.0000 0.51130  0.88350  0.51810  Biso   1.000  O
  O13      1.0000 0.38350  0.01130  0.48190  Biso   1.000  O
  O14      1.0000 0.11650  0.48870  0.48190  Biso   1.000  O
  O15      1.0000 0.01130  0.11650  0.48190  Biso   1.000  O
  O16      1.0000 0.48870  0.38350  0.48190  Biso   1.000  O
  O17      1.0000 0.43890  0.54560  0.34800  Biso   1.000  O
  O18      1.0000 0.06110  0.95440  0.34800  Biso   1.000  O
  O19      1.0000 0.95440  0.43890  0.34800  Biso   1.000  O
  O20      1.0000 0.54560  0.06110  0.34800  Biso   1.000  O
  O21      1.0000 0.56110  0.04560  0.65200  Biso   1.000  O
  O22      1.0000 0.93890  0.45440  0.65200  Biso   1.000  O
  O23      1.0000 0.04560  0.93890  0.65200  Biso   1.000  O
  O24      1.0000 0.45440  0.56110  0.65200  Biso   1.000  O
  O25      1.0000 0.56110  0.45440  0.65200  Biso   1.000  O
  O26      1.0000 0.93890  0.04560  0.65200  Biso   1.000  O
  O27      1.0000 0.04560  0.56110  0.65200  Biso   1.000  O
  O28      1.0000 0.45440  0.93890  0.65200  Biso   1.000  O
  O29      1.0000 0.43890  0.95440  0.34800  Biso   1.000  O
  O30      1.0000 0.06110  0.54560  0.34800  Biso   1.000  O
  O31      1.0000 0.95440  0.06110  0.34800  Biso   1.000  O
  O32      1.0000 0.54560  0.43890  0.34800  Biso   1.000  O
  O33      1.0000 0.43960  0.43960  0.85300  Biso   1.000  O
  O34      1.0000 0.06040  0.06040  0.85300  Biso   1.000  O
  O35      1.0000 0.06040  0.43960  0.85300  Biso   1.000  O
  O36      1.0000 0.43960  0.06040  0.85300  Biso   1.000  O
  O37      1.0000 0.56040  0.93960  0.14700  Biso   1.000  O
  O38      1.0000 0.93960  0.56040  0.14700  Biso   1.000  O
  O39      1.0000 0.93960  0.93960  0.14700  Biso   1.000  O
  O40      1.0000 0.56040  0.56040  0.14700  Biso   1.000  O
  H1       1.0000 0.41310  0.41310  0.89290  Biso   1.000  H
  H2       1.0000 0.08690  0.08690  0.89290  Biso   1.000  H
  H3       1.0000 0.08690  0.41310  0.89290  Biso   1.000  H
  H4       1.0000 0.41310  0.08690  0.89290  Biso   1.000  H
  H5       1.0000 0.58690  0.91310  0.10710  Biso   1.000  H
  H6       1.0000 0.91310  0.58690  0.10710  Biso   1.000  H
  H7       1.0000 0.91310  0.91310  0.10710  Biso   1.000  H
  H8       1.0000 0.58690  0.58690  0.10710  Biso   1.000  H
  H9       1.0000 0.46870  0.46870  0.88300  Biso   1.000  H
  H10      1.0000 0.03130  0.03130  0.88300  Biso   1.000  H
  H11      1.0000 0.03130  0.46870  0.88300  Biso   1.000  H
  H12      1.0000 0.46870  0.03130  0.88300  Biso   1.000  H
  H13      1.0000 0.53130  0.96870  0.11700  Biso   1.000  H
  H14      1.0000 0.96870  0.53130  0.11700  Biso   1.000  H
  H15      1.0000 0.96870  0.96870  0.11700  Biso   1.000  H
  H16      1.0000 0.53130  0.53130  0.11700  Biso   1.000  H
  O41      1.0000 0.35100  0.35100  0.62700  Biso   1.000  O
  O42      1.0000 0.14900  0.14900  0.62700  Biso   1.000  O
  O43      1.0000 0.14900  0.35100  0.62700  Biso   1.000  O
  O44      1.0000 0.35100  0.14900  0.62700  Biso   1.000  O
  O45      1.0000 0.64900  0.85100  0.37300  Biso   1.000  O
  O46      1.0000 0.85100  0.64900  0.37300  Biso   1.000  O
  O47      1.0000 0.85100  0.85100  0.37300  Biso   1.000  O
  O48      1.0000 0.64900  0.64900  0.37300  Biso   1.000  O
  H17      1.0000 0.32520  0.32510  0.66840  Biso   1.000  H
  H18      1.0000 0.17480  0.17490  0.66840  Biso   1.000  H
  H19      1.0000 0.17490  0.32520  0.66840  Biso   1.000  H
  H20      1.0000 0.32510  0.17480  0.66840  Biso   1.000  H
  H21      1.0000 0.67480  0.82510  0.33160  Biso   1.000  H
  H22      1.0000 0.82520  0.67490  0.33160  Biso   1.000  H
  H23      1.0000 0.82510  0.82520  0.33160  Biso   1.000  H
  H24      1.0000 0.67490  0.67480  0.33160  Biso   1.000  H
  H25      1.0000 0.34700  0.34690  0.55790  Biso   1.000  H
  H26      1.0000 0.15300  0.15310  0.55790  Biso   1.000  H
  H27      1.0000 0.15310  0.34700  0.55790  Biso   1.000  H
  H28      1.0000 0.34690  0.15300  0.55790  Biso   1.000  H
  H29      1.0000 0.65300  0.84690  0.44210  Biso   1.000  H
  H30      1.0000 0.84700  0.65310  0.44210  Biso   1.000  H
  H31      1.0000 0.84690  0.84700  0.44210  Biso   1.000  H
  H32      1.0000 0.65310  0.65300  0.44210  Biso   1.000  H
  O49      1.0000 0.45300  0.31520  0.69390  Biso   1.000  O
  O50      1.0000 0.04700  0.18480  0.69390  Biso   1.000  O
  O51      1.0000 0.18480  0.45300  0.69390  Biso   1.000  O
  O52      1.0000 0.31520  0.04700  0.69390  Biso   1.000  O
  O53      1.0000 0.54700  0.81520  0.30610  Biso   1.000  O
  O54      1.0000 0.95300  0.68480  0.30610  Biso   1.000  O
  O55      1.0000 0.81520  0.95300  0.30610  Biso   1.000  O
  O56      1.0000 0.68480  0.54700  0.30610  Biso   1.000  O
  O57      1.0000 0.54700  0.68480  0.30610  Biso   1.000  O
  O58      1.0000 0.95300  0.81520  0.30610  Biso   1.000  O
  O59      1.0000 0.81520  0.54700  0.30610  Biso   1.000  O
  O60      1.0000 0.68480  0.95300  0.30610  Biso   1.000  O
  O61      1.0000 0.45300  0.18480  0.69390  Biso   1.000  O
  O62      1.0000 0.04700  0.31520  0.69390  Biso   1.000  O
  O63      1.0000 0.18480  0.04700  0.69390  Biso   1.000  O
  O64      1.0000 0.31520  0.45300  0.69390  Biso   1.000  O
  H33      1.0000 0.45720  0.30700  0.76180  Biso   1.000  H
  H34      1.0000 0.04280  0.19300  0.76180  Biso   1.000  H
  H35      1.0000 0.19300  0.45720  0.76180  Biso   1.000  H
  H36      1.0000 0.30700  0.04280  0.76180  Biso   1.000  H
  H37      1.0000 0.54280  0.80700  0.23820  Biso   1.000  H
  H38      1.0000 0.95720  0.69300  0.23820  Biso   1.000  H
  H39      1.0000 0.80700  0.95720  0.23820  Biso   1.000  H
  H40      1.0000 0.69300  0.54280  0.23820  Biso   1.000  H
  H41      1.0000 0.54280  0.69300  0.23820  Biso   1.000  H
  H42      1.0000 0.95720  0.80700  0.23820  Biso   1.000  H
  H43      1.0000 0.80700  0.54280  0.23820  Biso   1.000  H
  H44      1.0000 0.69300  0.95720  0.23820  Biso   1.000  H
  H45      1.0000 0.45720  0.19300  0.76180  Biso   1.000  H
  H46      1.0000 0.04280  0.30700  0.76180  Biso   1.000  H
  H47      1.0000 0.19300  0.04280  0.76180  Biso   1.000  H
  H48      1.0000 0.30700  0.45720  0.76180  Biso   1.000  H
  H49      1.0000 0.45610  0.28090  0.64850  Biso   1.000  H
  H50      1.0000 0.04390  0.21910  0.64850  Biso   1.000  H
  H51      1.0000 0.21910  0.45610  0.64850  Biso   1.000  H
  H52      1.0000 0.28090  0.04390  0.64850  Biso   1.000  H
  H53      1.0000 0.54390  0.78090  0.35150  Biso   1.000  H
  H54      1.0000 0.95610  0.71910  0.35150  Biso   1.000  H
  H55      1.0000 0.78090  0.95610  0.35150  Biso   1.000  H
  H56      1.0000 0.71910  0.54390  0.35150  Biso   1.000  H
  H57      1.0000 0.54390  0.71910  0.35150  Biso   1.000  H
  H58      1.0000 0.95610  0.78090  0.35150  Biso   1.000  H
  H59      1.0000 0.78090  0.54390  0.35150  Biso   1.000  H
  H60      1.0000 0.71910  0.95610  0.35150  Biso   1.000  H
  H61      1.0000 0.45610  0.21910  0.64850  Biso   1.000  H
  H62      1.0000 0.04390  0.28090  0.64850  Biso   1.000  H
  H63      1.0000 0.21910  0.04390  0.64850  Biso   1.000  H
  H64      1.0000 0.28090  0.45610  0.64850  Biso   1.000  H
  N1       1.0000 0.25000  0.60910  0.20630  Biso   1.000  N
  N2       1.0000 0.25000  0.89090  0.20630  Biso   1.000  N
  N3       1.0000 0.89090  0.25000  0.20630  Biso   1.000  N
  N4       1.0000 0.60910  0.25000  0.20630  Biso   1.000  N
  N5       1.0000 0.75000  0.10910  0.79370  Biso   1.000  N
  N6       1.0000 0.75000  0.39090  0.79370  Biso   1.000  N
  N7       1.0000 0.10910  0.75000  0.79370  Biso   1.000  N
  N8       1.0000 0.39090  0.75000  0.79370  Biso   1.000  N
  C1       1.0000 0.31410  0.54300  0.34590  Biso   1.000  C
  C2       1.0000 0.18590  0.95700  0.34590  Biso   1.000  C
  C3       1.0000 0.95700  0.31410  0.34590  Biso   1.000  C
  C4       1.0000 0.54300  0.18590  0.34590  Biso   1.000  C
  C5       1.0000 0.68590  0.04300  0.65410  Biso   1.000  C
  C6       1.0000 0.81410  0.45700  0.65410  Biso   1.000  C
  C7       1.0000 0.04300  0.81410  0.65410  Biso   1.000  C
  C8       1.0000 0.45700  0.68590  0.65410  Biso   1.000  C
  C9       1.0000 0.68590  0.45700  0.65410  Biso   1.000  C
  C10      1.0000 0.81410  0.04300  0.65410  Biso   1.000  C
  C11      1.0000 0.04300  0.68590  0.65410  Biso   1.000  C
  C12      1.0000 0.45700  0.81410  0.65410  Biso   1.000  C
  C13      1.0000 0.31410  0.95700  0.34590  Biso   1.000  C
  C14      1.0000 0.18590  0.54300  0.34590  Biso   1.000  C
  C15      1.0000 0.95700  0.18590  0.34590  Biso   1.000  C
  C16      1.0000 0.54300  0.31410  0.34590  Biso   1.000  C
  C17      1.0000 0.31160  0.58680  0.25470  Biso   1.000  C
  C18      1.0000 0.18840  0.91320  0.25470  Biso   1.000  C
  C19      1.0000 0.91320  0.31160  0.25470  Biso   1.000  C
  C20      1.0000 0.58680  0.18840  0.25470  Biso   1.000  C
  C21      1.0000 0.68840  0.08680  0.74530  Biso   1.000  C
  C22      1.0000 0.81160  0.41320  0.74530  Biso   1.000  C
  C23      1.0000 0.08680  0.81160  0.74530  Biso   1.000  C
  C24      1.0000 0.41320  0.68840  0.74530  Biso   1.000  C
  C25      1.0000 0.68840  0.41320  0.74530  Biso   1.000  C
  C26      1.0000 0.81160  0.08680  0.74530  Biso   1.000  C
  C27      1.0000 0.08680  0.68840  0.74530  Biso   1.000  C
  C28      1.0000 0.41320  0.81160  0.74530  Biso   1.000  C
  C29      1.0000 0.31160  0.91320  0.25470  Biso   1.000  C
  C30      1.0000 0.18840  0.58680  0.25470  Biso   1.000  C
  C31      1.0000 0.91320  0.18840  0.25470  Biso   1.000  C
  C32      1.0000 0.58680  0.31160  0.25470  Biso   1.000  C
  H65      1.0000 0.35490  0.60180  0.22470  Biso   1.000  H
  H66      1.0000 0.14510  0.89820  0.22470  Biso   1.000  H
  H67      1.0000 0.89820  0.35490  0.22470  Biso   1.000  H
  H68      1.0000 0.60180  0.14510  0.22470  Biso   1.000  H
  H69      1.0000 0.64510  0.10180  0.77530  Biso   1.000  H
  H70      1.0000 0.85490  0.39820  0.77530  Biso   1.000  H
  H71      1.0000 0.10180  0.85490  0.77530  Biso   1.000  H
  H72      1.0000 0.39820  0.64510  0.77530  Biso   1.000  H
  H73      1.0000 0.64510  0.39820  0.77530  Biso   1.000  H
  H74      1.0000 0.85490  0.10180  0.77530  Biso   1.000  H
  H75      1.0000 0.10180  0.64510  0.77530  Biso   1.000  H
  H76      1.0000 0.39820  0.85490  0.77530  Biso   1.000  H
  H77      1.0000 0.35490  0.89820  0.22470  Biso   1.000  H
  H78      1.0000 0.14510  0.60180  0.22470  Biso   1.000  H
  H79      1.0000 0.89820  0.14510  0.22470  Biso   1.000  H
  H80      1.0000 0.60180  0.35490  0.22470  Biso   1.000  H
  C33      1.0000 0.25000  0.52080  0.39100  Biso   1.000  C
  C34      1.0000 0.25000  0.97920  0.39100  Biso   1.000  C
  C35      1.0000 0.97920  0.25000  0.39100  Biso   1.000  C
  C36      1.0000 0.52080  0.25000  0.39100  Biso   1.000  C
  C37      1.0000 0.75000  0.02080  0.60900  Biso   1.000  C
  C38      1.0000 0.75000  0.47920  0.60900  Biso   1.000  C
  C39      1.0000 0.02080  0.75000  0.60900  Biso   1.000  C
  C40      1.0000 0.47920  0.75000  0.60900  Biso   1.000  C
  H81      1.0000 0.25000  0.49090  0.45170  Biso   1.000  H
  H82      1.0000 0.25000  0.00910  0.45170  Biso   1.000  H
  H83      1.0000 0.00910  0.25000  0.45170  Biso   1.000  H
  H84      1.0000 0.49090  0.25000  0.45170  Biso   1.000  H
  H85      1.0000 0.75000  0.99090  0.54830  Biso   1.000  H
  H86      1.0000 0.75000  0.50910  0.54830  Biso   1.000  H
  H87      1.0000 0.99090  0.75000  0.54830  Biso   1.000  H
  H88      1.0000 0.50910  0.75000  0.54830  Biso   1.000  H
  C41      1.0000 0.38370  0.52390  0.39670  Biso   1.000  C
  C42      1.0000 0.11630  0.97610  0.39670  Biso   1.000  C
  C43      1.0000 0.97610  0.38370  0.39670  Biso   1.000  C
  C44      1.0000 0.52390  0.11630  0.39670  Biso   1.000  C
  C45      1.0000 0.61630  0.02390  0.60330  Biso   1.000  C
  C46      1.0000 0.88370  0.47610  0.60330  Biso   1.000  C
  C47      1.0000 0.02390  0.88370  0.60330  Biso   1.000  C
  C48      1.0000 0.47610  0.61630  0.60330  Biso   1.000  C
  C49      1.0000 0.61630  0.47610  0.60330  Biso   1.000  C
  C50      1.0000 0.88370  0.02390  0.60330  Biso   1.000  C
  C51      1.0000 0.02390  0.61630  0.60330  Biso   1.000  C
  C52      1.0000 0.47610  0.88370  0.60330  Biso   1.000  C
  C53      1.0000 0.38370  0.97610  0.39670  Biso   1.000  C
  C54      1.0000 0.11630  0.52390  0.39670  Biso   1.000  C
  C55      1.0000 0.97610  0.11630  0.39670  Biso   1.000  C
  C56      1.0000 0.52390  0.38370  0.39670  Biso   1.000  C
  Tb9      1.0000 0.47407  0.47407  0.57660  Biso   1.000  Tb
  Tb10     1.0000 0.02593  0.02593  0.57660  Biso   1.000  Tb
  Tb11     1.0000 0.02593  0.47407  0.57660  Biso   1.000  Tb
  Tb12     1.0000 0.47407  0.02593  0.57660  Biso   1.000  Tb
  Tb13     1.0000 0.52593  0.97407  0.42340  Biso   1.000  Tb
  Tb14     1.0000 0.97407  0.52593  0.42340  Biso   1.000  Tb
  Tb15     1.0000 0.97407  0.97407  0.42340  Biso   1.000  Tb
  Tb16     1.0000 0.52593  0.52593  0.42340  Biso   1.000  Tb
