data_image0
_cell_length_a       18.621
_cell_length_b       18.621
_cell_length_c       12.3194
_cell_angle_alpha    90
_cell_angle_beta     90
_cell_angle_gamma    90

_symmetry_space_group_name_H-M    "P 1"
_symmetry_int_tables_number       1

loop_
  _symmetry_equiv_pos_as_xyz
  'x, y, z'

loop_
  _atom_site_label
  _atom_site_occupancy
  _atom_site_fract_x
  _atom_site_fract_y
  _atom_site_fract_z
  _atom_site_thermal_displace_type
  _atom_site_B_iso_or_equiv
  _atom_site_type_symbol
  Eu1      1.0000 0.06597  0.06597  0.62665  Biso   1.000  Eu
  Eu2      1.0000 0.43403  0.43403  0.62665  Biso   1.000  Eu
  Eu3      1.0000 0.43403  0.06597  0.62665  Biso   1.000  Eu
  Eu4      1.0000 0.06597  0.43403  0.62665  Biso   1.000  Eu
  Eu5      1.0000 0.93403  0.56597  0.37335  Biso   1.000  Eu
  Eu6      1.0000 0.56597  0.93403  0.37335  Biso   1.000  Eu
  Eu7      1.0000 0.56597  0.56597  0.37335  Biso   1.000  Eu
  Eu8      1.0000 0.93403  0.93403  0.37335  Biso   1.000  Eu
  Cu1      1.0000 0.25000  0.81935  0.08205  Biso   1.000  Cu
  Cu2      1.0000 0.25000  0.68065  0.08205  Biso   1.000  Cu
  Cu3      1.0000 0.68065  0.25000  0.08205  Biso   1.000  Cu
  Cu4      1.0000 0.81935  0.25000  0.08205  Biso   1.000  Cu
  Cu5      1.0000 0.75000  0.31935  0.91795  Biso   1.000  Cu
  Cu6      1.0000 0.75000  0.18065  0.91795  Biso   1.000  Cu
  Cu7      1.0000 0.31935  0.75000  0.91795  Biso   1.000  Cu
  Cu8      1.0000 0.18065  0.75000  0.91795  Biso   1.000  Cu
  I1       1.0000 0.25000  0.87813  0.88844  Biso   1.000  I
  I2       1.0000 0.25000  0.62187  0.88844  Biso   1.000  I
  I3       1.0000 0.62187  0.25000  0.88844  Biso   1.000  I
  I4       1.0000 0.87813  0.25000  0.88844  Biso   1.000  I
  I5       1.0000 0.75000  0.37813  0.11156  Biso   1.000  I
  I6       1.0000 0.75000  0.12187  0.11156  Biso   1.000  I
  I7       1.0000 0.37813  0.75000  0.11156  Biso   1.000  I
  I8       1.0000 0.12187  0.75000  0.11156  Biso   1.000  I
  O1       1.0000 0.11640  0.01060  0.47880  Biso   1.000  O
  O2       1.0000 0.38360  0.48940  0.47880  Biso   1.000  O
  O3       1.0000 0.48940  0.11640  0.47880  Biso   1.000  O
  O4       1.0000 0.01060  0.38360  0.47880  Biso   1.000  O
  O5       1.0000 0.88360  0.51060  0.52120  Biso   1.000  O
  O6       1.0000 0.61640  0.98940  0.52120  Biso   1.000  O
  O7       1.0000 0.51060  0.61640  0.52120  Biso   1.000  O
  O8       1.0000 0.98940  0.88360  0.52120  Biso   1.000  O
  O9       1.0000 0.88360  0.98940  0.52120  Biso   1.000  O
  O10      1.0000 0.61640  0.51060  0.52120  Biso   1.000  O
  O11      1.0000 0.51060  0.88360  0.52120  Biso   1.000  O
  O12      1.0000 0.98940  0.61640  0.52120  Biso   1.000  O
  O13      1.0000 0.11640  0.48940  0.47880  Biso   1.000  O
  O14      1.0000 0.38360  0.01060  0.47880  Biso   1.000  O
  O15      1.0000 0.48940  0.38360  0.47880  Biso   1.000  O
  O16      1.0000 0.01060  0.11640  0.47880  Biso   1.000  O
  O17      1.0000 0.06110  0.95290  0.34690  Biso   1.000  O
  O18      1.0000 0.43890  0.54710  0.34690  Biso   1.000  O
  O19      1.0000 0.54710  0.06110  0.34690  Biso   1.000  O
  O20      1.0000 0.95290  0.43890  0.34690  Biso   1.000  O
  O21      1.0000 0.93890  0.45290  0.65310  Biso   1.000  O
  O22      1.0000 0.56110  0.04710  0.65310  Biso   1.000  O
  O23      1.0000 0.45290  0.56110  0.65310  Biso   1.000  O
  O24      1.0000 0.04710  0.93890  0.65310  Biso   1.000  O
  O25      1.0000 0.93890  0.04710  0.65310  Biso   1.000  O
  O26      1.0000 0.56110  0.45290  0.65310  Biso   1.000  O
  O27      1.0000 0.45290  0.93890  0.65310  Biso   1.000  O
  O28      1.0000 0.04710  0.56110  0.65310  Biso   1.000  O
  O29      1.0000 0.06110  0.54710  0.34690  Biso   1.000  O
  O30      1.0000 0.43890  0.95290  0.34690  Biso   1.000  O
  O31      1.0000 0.54710  0.43890  0.34690  Biso   1.000  O
  O32      1.0000 0.95290  0.06110  0.34690  Biso   1.000  O
  O33      1.0000 0.18450  0.05100  0.69220  Biso   1.000  O
  O34      1.0000 0.31550  0.44900  0.69220  Biso   1.000  O
  O35      1.0000 0.44900  0.18450  0.69220  Biso   1.000  O
  O36      1.0000 0.05100  0.31550  0.69220  Biso   1.000  O
  O37      1.0000 0.81550  0.55100  0.30780  Biso   1.000  O
  O38      1.0000 0.68450  0.94900  0.30780  Biso   1.000  O
  O39      1.0000 0.55100  0.68450  0.30780  Biso   1.000  O
  O40      1.0000 0.94900  0.81550  0.30780  Biso   1.000  O
  O41      1.0000 0.81550  0.94900  0.30780  Biso   1.000  O
  O42      1.0000 0.68450  0.55100  0.30780  Biso   1.000  O
  O43      1.0000 0.55100  0.81550  0.30780  Biso   1.000  O
  O44      1.0000 0.94900  0.68450  0.30780  Biso   1.000  O
  O45      1.0000 0.18450  0.44900  0.69220  Biso   1.000  O
  O46      1.0000 0.31550  0.05100  0.69220  Biso   1.000  O
  O47      1.0000 0.44900  0.31550  0.69220  Biso   1.000  O
  O48      1.0000 0.05100  0.18450  0.69220  Biso   1.000  O
  H1       1.0000 0.19300  0.04860  0.75990  Biso   1.000  H
  H2       1.0000 0.30700  0.45140  0.75990  Biso   1.000  H
  H3       1.0000 0.45140  0.19300  0.75990  Biso   1.000  H
  H4       1.0000 0.04860  0.30700  0.75990  Biso   1.000  H
  H5       1.0000 0.80700  0.54860  0.24010  Biso   1.000  H
  H6       1.0000 0.69300  0.95140  0.24010  Biso   1.000  H
  H7       1.0000 0.54860  0.69300  0.24010  Biso   1.000  H
  H8       1.0000 0.95140  0.80700  0.24010  Biso   1.000  H
  H9       1.0000 0.80700  0.95140  0.24010  Biso   1.000  H
  H10      1.0000 0.69300  0.54860  0.24010  Biso   1.000  H
  H11      1.0000 0.54860  0.80700  0.24010  Biso   1.000  H
  H12      1.0000 0.95140  0.69300  0.24010  Biso   1.000  H
  H13      1.0000 0.19300  0.45140  0.75990  Biso   1.000  H
  H14      1.0000 0.30700  0.04860  0.75990  Biso   1.000  H
  H15      1.0000 0.45140  0.30700  0.75990  Biso   1.000  H
  H16      1.0000 0.04860  0.19300  0.75990  Biso   1.000  H
  H17      1.0000 0.21880  0.04820  0.64690  Biso   1.000  H
  H18      1.0000 0.28120  0.45180  0.64690  Biso   1.000  H
  H19      1.0000 0.45180  0.21880  0.64690  Biso   1.000  H
  H20      1.0000 0.04820  0.28120  0.64690  Biso   1.000  H
  H21      1.0000 0.78120  0.54820  0.35310  Biso   1.000  H
  H22      1.0000 0.71880  0.95180  0.35310  Biso   1.000  H
  H23      1.0000 0.54820  0.71880  0.35310  Biso   1.000  H
  H24      1.0000 0.95180  0.78120  0.35310  Biso   1.000  H
  H25      1.0000 0.78120  0.95180  0.35310  Biso   1.000  H
  H26      1.0000 0.71880  0.54820  0.35310  Biso   1.000  H
  H27      1.0000 0.54820  0.78120  0.35310  Biso   1.000  H
  H28      1.0000 0.95180  0.71880  0.35310  Biso   1.000  H
  H29      1.0000 0.21880  0.45180  0.64690  Biso   1.000  H
  H30      1.0000 0.28120  0.04820  0.64690  Biso   1.000  H
  H31      1.0000 0.45180  0.28120  0.64690  Biso   1.000  H
  H32      1.0000 0.04820  0.21880  0.64690  Biso   1.000  H
  O49      1.0000 0.06260  0.06260  0.83600  Biso   1.000  O
  O50      1.0000 0.43740  0.43740  0.83600  Biso   1.000  O
  O51      1.0000 0.43740  0.06260  0.83600  Biso   1.000  O
  O52      1.0000 0.06260  0.43740  0.83600  Biso   1.000  O
  O53      1.0000 0.93740  0.56260  0.16400  Biso   1.000  O
  O54      1.0000 0.56260  0.93740  0.16400  Biso   1.000  O
  O55      1.0000 0.56260  0.56260  0.16400  Biso   1.000  O
  O56      1.0000 0.93740  0.93740  0.16400  Biso   1.000  O
  H33      1.0000 0.10110  0.06730  0.87280  Biso   1.000  H
  H34      1.0000 0.39890  0.43270  0.87280  Biso   1.000  H
  H35      1.0000 0.43270  0.10110  0.87280  Biso   1.000  H
  H36      1.0000 0.06730  0.39890  0.87280  Biso   1.000  H
  H37      1.0000 0.89890  0.56730  0.12720  Biso   1.000  H
  H38      1.0000 0.60110  0.93270  0.12720  Biso   1.000  H
  H39      1.0000 0.56730  0.60110  0.12720  Biso   1.000  H
  H40      1.0000 0.93270  0.89890  0.12720  Biso   1.000  H
  H41      1.0000 0.89890  0.93270  0.12720  Biso   1.000  H
  H42      1.0000 0.60110  0.56730  0.12720  Biso   1.000  H
  H43      1.0000 0.56730  0.89890  0.12720  Biso   1.000  H
  H44      1.0000 0.93270  0.60110  0.12720  Biso   1.000  H
  H45      1.0000 0.10110  0.43270  0.87280  Biso   1.000  H
  H46      1.0000 0.39890  0.06730  0.87280  Biso   1.000  H
  H47      1.0000 0.43270  0.39890  0.87280  Biso   1.000  H
  H48      1.0000 0.06730  0.10110  0.87280  Biso   1.000  H
  O57      1.0000 0.15300  0.15300  0.63900  Biso   1.000  O
  O58      1.0000 0.34700  0.34700  0.63900  Biso   1.000  O
  O59      1.0000 0.34700  0.15300  0.63900  Biso   1.000  O
  O60      1.0000 0.15300  0.34700  0.63900  Biso   1.000  O
  O61      1.0000 0.84700  0.65300  0.36100  Biso   1.000  O
  O62      1.0000 0.65300  0.84700  0.36100  Biso   1.000  O
  O63      1.0000 0.65300  0.65300  0.36100  Biso   1.000  O
  O64      1.0000 0.84700  0.84700  0.36100  Biso   1.000  O
  H49      1.0000 0.17420  0.17410  0.69150  Biso   1.000  H
  H50      1.0000 0.32580  0.32590  0.69150  Biso   1.000  H
  H51      1.0000 0.32590  0.17420  0.69150  Biso   1.000  H
  H52      1.0000 0.17410  0.32580  0.69150  Biso   1.000  H
  H53      1.0000 0.82580  0.67410  0.30850  Biso   1.000  H
  H54      1.0000 0.67420  0.82590  0.30850  Biso   1.000  H
  H55      1.0000 0.67410  0.67420  0.30850  Biso   1.000  H
  H56      1.0000 0.82590  0.82580  0.30850  Biso   1.000  H
  H57      1.0000 0.16430  0.16430  0.57390  Biso   1.000  H
  H58      1.0000 0.33570  0.33570  0.57390  Biso   1.000  H
  H59      1.0000 0.33570  0.16430  0.57390  Biso   1.000  H
  H60      1.0000 0.16430  0.33570  0.57390  Biso   1.000  H
  H61      1.0000 0.83570  0.66430  0.42610  Biso   1.000  H
  H62      1.0000 0.66430  0.83570  0.42610  Biso   1.000  H
  H63      1.0000 0.66430  0.66430  0.42610  Biso   1.000  H
  H64      1.0000 0.83570  0.83570  0.42610  Biso   1.000  H
  N1       1.0000 0.25000  0.89100  0.20580  Biso   1.000  N
  N2       1.0000 0.25000  0.60900  0.20580  Biso   1.000  N
  N3       1.0000 0.60900  0.25000  0.20580  Biso   1.000  N
  N4       1.0000 0.89100  0.25000  0.20580  Biso   1.000  N
  N5       1.0000 0.75000  0.39100  0.79420  Biso   1.000  N
  N6       1.0000 0.75000  0.10900  0.79420  Biso   1.000  N
  N7       1.0000 0.39100  0.75000  0.79420  Biso   1.000  N
  N8       1.0000 0.10900  0.75000  0.79420  Biso   1.000  N
  C1       1.0000 0.25000  0.97900  0.39030  Biso   1.000  C
  C2       1.0000 0.25000  0.52100  0.39030  Biso   1.000  C
  C3       1.0000 0.52100  0.25000  0.39030  Biso   1.000  C
  C4       1.0000 0.97900  0.25000  0.39030  Biso   1.000  C
  C5       1.0000 0.75000  0.47900  0.60970  Biso   1.000  C
  C6       1.0000 0.75000  0.02100  0.60970  Biso   1.000  C
  C7       1.0000 0.47900  0.75000  0.60970  Biso   1.000  C
  C8       1.0000 0.02100  0.75000  0.60970  Biso   1.000  C
  H65      1.0000 0.25000  0.00710  0.45270  Biso   1.000  H
  H66      1.0000 0.25000  0.49290  0.45270  Biso   1.000  H
  H67      1.0000 0.49290  0.25000  0.45270  Biso   1.000  H
  H68      1.0000 0.00710  0.25000  0.45270  Biso   1.000  H
  H69      1.0000 0.75000  0.50710  0.54730  Biso   1.000  H
  H70      1.0000 0.75000  0.99290  0.54730  Biso   1.000  H
  H71      1.0000 0.50710  0.75000  0.54730  Biso   1.000  H
  H72      1.0000 0.99290  0.75000  0.54730  Biso   1.000  H
  C9       1.0000 0.18680  0.95720  0.34210  Biso   1.000  C
  C10      1.0000 0.31320  0.54280  0.34210  Biso   1.000  C
  C11      1.0000 0.54280  0.18680  0.34210  Biso   1.000  C
  C12      1.0000 0.95720  0.31320  0.34210  Biso   1.000  C
  C13      1.0000 0.81320  0.45720  0.65790  Biso   1.000  C
  C14      1.0000 0.68680  0.04280  0.65790  Biso   1.000  C
  C15      1.0000 0.45720  0.68680  0.65790  Biso   1.000  C
  C16      1.0000 0.04280  0.81320  0.65790  Biso   1.000  C
  C17      1.0000 0.81320  0.04280  0.65790  Biso   1.000  C
  C18      1.0000 0.68680  0.45720  0.65790  Biso   1.000  C
  C19      1.0000 0.45720  0.81320  0.65790  Biso   1.000  C
  C20      1.0000 0.04280  0.68680  0.65790  Biso   1.000  C
  C21      1.0000 0.18680  0.54280  0.34210  Biso   1.000  C
  C22      1.0000 0.31320  0.95720  0.34210  Biso   1.000  C
  C23      1.0000 0.54280  0.31320  0.34210  Biso   1.000  C
  C24      1.0000 0.95720  0.18680  0.34210  Biso   1.000  C
  C25      1.0000 0.18880  0.91270  0.25230  Biso   1.000  C
  C26      1.0000 0.31120  0.58730  0.25230  Biso   1.000  C
  C27      1.0000 0.58730  0.18880  0.25230  Biso   1.000  C
  C28      1.0000 0.91270  0.31120  0.25230  Biso   1.000  C
  C29      1.0000 0.81120  0.41270  0.74770  Biso   1.000  C
  C30      1.0000 0.68880  0.08730  0.74770  Biso   1.000  C
  C31      1.0000 0.41270  0.68880  0.74770  Biso   1.000  C
  C32      1.0000 0.08730  0.81120  0.74770  Biso   1.000  C
  C33      1.0000 0.81120  0.08730  0.74770  Biso   1.000  C
  C34      1.0000 0.68880  0.41270  0.74770  Biso   1.000  C
  C35      1.0000 0.41270  0.81120  0.74770  Biso   1.000  C
  C36      1.0000 0.08730  0.68880  0.74770  Biso   1.000  C
  C37      1.0000 0.18880  0.58730  0.25230  Biso   1.000  C
  C38      1.0000 0.31120  0.91270  0.25230  Biso   1.000  C
  C39      1.0000 0.58730  0.31120  0.25230  Biso   1.000  C
  C40      1.0000 0.91270  0.18880  0.25230  Biso   1.000  C
  H73      1.0000 0.14550  0.89720  0.22280  Biso   1.000  H
  H74      1.0000 0.35450  0.60280  0.22280  Biso   1.000  H
  H75      1.0000 0.60280  0.14550  0.22280  Biso   1.000  H
  H76      1.0000 0.89720  0.35450  0.22280  Biso   1.000  H
  H77      1.0000 0.85450  0.39720  0.77720  Biso   1.000  H
  H78      1.0000 0.64550  0.10280  0.77720  Biso   1.000  H
  H79      1.0000 0.39720  0.64550  0.77720  Biso   1.000  H
  H80      1.0000 0.10280  0.85450  0.77720  Biso   1.000  H
  H81      1.0000 0.85450  0.10280  0.77720  Biso   1.000  H
  H82      1.0000 0.64550  0.39720  0.77720  Biso   1.000  H
  H83      1.0000 0.39720  0.85450  0.77720  Biso   1.000  H
  H84      1.0000 0.10280  0.64550  0.77720  Biso   1.000  H
  H85      1.0000 0.14550  0.60280  0.22280  Biso   1.000  H
  H86      1.0000 0.35450  0.89720  0.22280  Biso   1.000  H
  H87      1.0000 0.60280  0.35450  0.22280  Biso   1.000  H
  H88      1.0000 0.89720  0.14550  0.22280  Biso   1.000  H
  C41      1.0000 0.11620  0.97590  0.39530  Biso   1.000  C
  C42      1.0000 0.38380  0.52410  0.39530  Biso   1.000  C
  C43      1.0000 0.52410  0.11620  0.39530  Biso   1.000  C
  C44      1.0000 0.97590  0.38380  0.39530  Biso   1.000  C
  C45      1.0000 0.88380  0.47590  0.60470  Biso   1.000  C
  C46      1.0000 0.61620  0.02410  0.60470  Biso   1.000  C
  C47      1.0000 0.47590  0.61620  0.60470  Biso   1.000  C
  C48      1.0000 0.02410  0.88380  0.60470  Biso   1.000  C
  C49      1.0000 0.88380  0.02410  0.60470  Biso   1.000  C
  C50      1.0000 0.61620  0.47590  0.60470  Biso   1.000  C
  C51      1.0000 0.47590  0.88380  0.60470  Biso   1.000  C
  C52      1.0000 0.02410  0.61620  0.60470  Biso   1.000  C
  C53      1.0000 0.11620  0.52410  0.39530  Biso   1.000  C
  C54      1.0000 0.38380  0.97590  0.39530  Biso   1.000  C
  C55      1.0000 0.52410  0.38380  0.39530  Biso   1.000  C
  C56      1.0000 0.97590  0.11620  0.39530  Biso   1.000  C
  Eu9      1.0000 0.02545  0.02545  0.57760  Biso   1.000  Eu
  Eu10     1.0000 0.47455  0.47455  0.57760  Biso   1.000  Eu
  Eu11     1.0000 0.47455  0.02545  0.57760  Biso   1.000  Eu
  Eu12     1.0000 0.02545  0.47455  0.57760  Biso   1.000  Eu
  Eu13     1.0000 0.97455  0.52545  0.42240  Biso   1.000  Eu
  Eu14     1.0000 0.52545  0.97455  0.42240  Biso   1.000  Eu
  Eu15     1.0000 0.52545  0.52545  0.42240  Biso   1.000  Eu
  Eu16     1.0000 0.97455  0.97455  0.42240  Biso   1.000  Eu
  H89      1.0000 0.02290  0.05580  0.86890  Biso   1.000  H
  H90      1.0000 0.47710  0.44420  0.86890  Biso   1.000  H
  H91      1.0000 0.44420  0.02290  0.86890  Biso   1.000  H
  H92      1.0000 0.05580  0.47710  0.86890  Biso   1.000  H
  H93      1.0000 0.97710  0.55580  0.13110  Biso   1.000  H
  H94      1.0000 0.52290  0.94420  0.13110  Biso   1.000  H
  H95      1.0000 0.55580  0.52290  0.13110  Biso   1.000  H
  H96      1.0000 0.94420  0.97710  0.13110  Biso   1.000  H
  H97      1.0000 0.97710  0.94420  0.13110  Biso   1.000  H
  H98      1.0000 0.52290  0.55580  0.13110  Biso   1.000  H
  H99      1.0000 0.55580  0.97710  0.13110  Biso   1.000  H
  H100     1.0000 0.94420  0.52290  0.13110  Biso   1.000  H
  H101     1.0000 0.02290  0.44420  0.86890  Biso   1.000  H
  H102     1.0000 0.47710  0.05580  0.86890  Biso   1.000  H
  H103     1.0000 0.44420  0.47710  0.86890  Biso   1.000  H
  H104     1.0000 0.05580  0.02290  0.86890  Biso   1.000  H
