data_image0
_cell_length_a       18.529
_cell_length_b       18.529
_cell_length_c       12.303
_cell_angle_alpha    90
_cell_angle_beta     90
_cell_angle_gamma    90

_symmetry_space_group_name_H-M    "P 1"
_symmetry_int_tables_number       1

loop_
  _symmetry_equiv_pos_as_xyz
  'x, y, z'

loop_
  _atom_site_label
  _atom_site_occupancy
  _atom_site_fract_x
  _atom_site_fract_y
  _atom_site_fract_z
  _atom_site_thermal_displace_type
  _atom_site_B_iso_or_equiv
  _atom_site_type_symbol
  Cu1      1.0000 0.18028  0.75000  0.58154  Biso   1.000  Cu
  Cu2      1.0000 0.31972  0.75000  0.58154  Biso   1.000  Cu
  Cu3      1.0000 0.75000  0.18028  0.58154  Biso   1.000  Cu
  Cu4      1.0000 0.75000  0.31972  0.58154  Biso   1.000  Cu
  Cu5      1.0000 0.81972  0.25000  0.41846  Biso   1.000  Cu
  Cu6      1.0000 0.68028  0.25000  0.41846  Biso   1.000  Cu
  Cu7      1.0000 0.25000  0.68028  0.41846  Biso   1.000  Cu
  Cu8      1.0000 0.25000  0.81972  0.41846  Biso   1.000  Cu
  N1       1.0000 0.10830  0.75000  0.70620  Biso   1.000  N
  N2       1.0000 0.39170  0.75000  0.70620  Biso   1.000  N
  N3       1.0000 0.75000  0.10830  0.70620  Biso   1.000  N
  N4       1.0000 0.75000  0.39170  0.70620  Biso   1.000  N
  N5       1.0000 0.89170  0.25000  0.29380  Biso   1.000  N
  N6       1.0000 0.60830  0.25000  0.29380  Biso   1.000  N
  N7       1.0000 0.25000  0.60830  0.29380  Biso   1.000  N
  N8       1.0000 0.25000  0.89170  0.29380  Biso   1.000  N
  O1       1.0000 0.98970  0.61460  0.98080  Biso   1.000  O
  O2       1.0000 0.51030  0.88540  0.98080  Biso   1.000  O
  O3       1.0000 0.88540  0.98970  0.98080  Biso   1.000  O
  O4       1.0000 0.61460  0.51030  0.98080  Biso   1.000  O
  O5       1.0000 0.01030  0.11460  0.01920  Biso   1.000  O
  O6       1.0000 0.48970  0.38540  0.01920  Biso   1.000  O
  O7       1.0000 0.11460  0.48970  0.01920  Biso   1.000  O
  O8       1.0000 0.38540  0.01030  0.01920  Biso   1.000  O
  O9       1.0000 0.01030  0.38540  0.01920  Biso   1.000  O
  O10      1.0000 0.48970  0.11460  0.01920  Biso   1.000  O
  O11      1.0000 0.11460  0.01030  0.01920  Biso   1.000  O
  O12      1.0000 0.38540  0.48970  0.01920  Biso   1.000  O
  O13      1.0000 0.98970  0.88540  0.98080  Biso   1.000  O
  O14      1.0000 0.51030  0.61460  0.98080  Biso   1.000  O
  O15      1.0000 0.88540  0.51030  0.98080  Biso   1.000  O
  O16      1.0000 0.61460  0.98970  0.98080  Biso   1.000  O
  C1       1.0000 0.04220  0.68530  0.84420  Biso   1.000  C
  C2       1.0000 0.45780  0.81470  0.84420  Biso   1.000  C
  C3       1.0000 0.81470  0.04220  0.84420  Biso   1.000  C
  C4       1.0000 0.68530  0.45780  0.84420  Biso   1.000  C
  C5       1.0000 0.95780  0.18530  0.15580  Biso   1.000  C
  C6       1.0000 0.54220  0.31470  0.15580  Biso   1.000  C
  C7       1.0000 0.18530  0.54220  0.15580  Biso   1.000  C
  C8       1.0000 0.31470  0.95780  0.15580  Biso   1.000  C
  C9       1.0000 0.95780  0.31470  0.15580  Biso   1.000  C
  C10      1.0000 0.54220  0.18530  0.15580  Biso   1.000  C
  C11      1.0000 0.18530  0.95780  0.15580  Biso   1.000  C
  C12      1.0000 0.31470  0.54220  0.15580  Biso   1.000  C
  C13      1.0000 0.04220  0.81470  0.84420  Biso   1.000  C
  C14      1.0000 0.45780  0.68530  0.84420  Biso   1.000  C
  C15      1.0000 0.81470  0.45780  0.84420  Biso   1.000  C
  C16      1.0000 0.68530  0.04220  0.84420  Biso   1.000  C
  C17      1.0000 0.02170  0.75000  0.88930  Biso   1.000  C
  C18      1.0000 0.47830  0.75000  0.88930  Biso   1.000  C
  C19      1.0000 0.75000  0.02170  0.88930  Biso   1.000  C
  C20      1.0000 0.75000  0.47830  0.88930  Biso   1.000  C
  C21      1.0000 0.97830  0.25000  0.11070  Biso   1.000  C
  C22      1.0000 0.52170  0.25000  0.11070  Biso   1.000  C
  C23      1.0000 0.25000  0.52170  0.11070  Biso   1.000  C
  C24      1.0000 0.25000  0.97830  0.11070  Biso   1.000  C
  H1       1.0000 0.99340  0.75000  0.95170  Biso   1.000  H
  H2       1.0000 0.50660  0.75000  0.95170  Biso   1.000  H
  H3       1.0000 0.75000  0.99340  0.95170  Biso   1.000  H
  H4       1.0000 0.75000  0.50660  0.95170  Biso   1.000  H
  H5       1.0000 0.00660  0.25000  0.04830  Biso   1.000  H
  H6       1.0000 0.49340  0.25000  0.04830  Biso   1.000  H
  H7       1.0000 0.25000  0.49340  0.04830  Biso   1.000  H
  H8       1.0000 0.25000  0.00660  0.04830  Biso   1.000  H
  C25      1.0000 0.02520  0.61530  0.89490  Biso   1.000  C
  C26      1.0000 0.47480  0.88470  0.89490  Biso   1.000  C
  C27      1.0000 0.88470  0.02520  0.89490  Biso   1.000  C
  C28      1.0000 0.61530  0.47480  0.89490  Biso   1.000  C
  C29      1.0000 0.97480  0.11530  0.10510  Biso   1.000  C
  C30      1.0000 0.52520  0.38470  0.10510  Biso   1.000  C
  C31      1.0000 0.11530  0.52520  0.10510  Biso   1.000  C
  C32      1.0000 0.38470  0.97480  0.10510  Biso   1.000  C
  C33      1.0000 0.97480  0.38470  0.10510  Biso   1.000  C
  C34      1.0000 0.52520  0.11530  0.10510  Biso   1.000  C
  C35      1.0000 0.11530  0.97480  0.10510  Biso   1.000  C
  C36      1.0000 0.38470  0.52520  0.10510  Biso   1.000  C
  C37      1.0000 0.02520  0.88470  0.89490  Biso   1.000  C
  C38      1.0000 0.47480  0.61530  0.89490  Biso   1.000  C
  C39      1.0000 0.88470  0.47480  0.89490  Biso   1.000  C
  C40      1.0000 0.61530  0.02520  0.89490  Biso   1.000  C
  C41      1.0000 0.08620  0.68770  0.75190  Biso   1.000  C
  C42      1.0000 0.41380  0.81230  0.75190  Biso   1.000  C
  C43      1.0000 0.81230  0.08620  0.75190  Biso   1.000  C
  C44      1.0000 0.68770  0.41380  0.75190  Biso   1.000  C
  C45      1.0000 0.91380  0.18770  0.24810  Biso   1.000  C
  C46      1.0000 0.58620  0.31230  0.24810  Biso   1.000  C
  C47      1.0000 0.18770  0.58620  0.24810  Biso   1.000  C
  C48      1.0000 0.31230  0.91380  0.24810  Biso   1.000  C
  C49      1.0000 0.91380  0.31230  0.24810  Biso   1.000  C
  C50      1.0000 0.58620  0.18770  0.24810  Biso   1.000  C
  C51      1.0000 0.18770  0.91380  0.24810  Biso   1.000  C
  C52      1.0000 0.31230  0.58620  0.24810  Biso   1.000  C
  C53      1.0000 0.08620  0.81230  0.75190  Biso   1.000  C
  C54      1.0000 0.41380  0.68770  0.75190  Biso   1.000  C
  C55      1.0000 0.81230  0.41380  0.75190  Biso   1.000  C
  C56      1.0000 0.68770  0.08620  0.75190  Biso   1.000  C
  H9       1.0000 0.10090  0.64440  0.72070  Biso   1.000  H
  H10      1.0000 0.39910  0.85560  0.72070  Biso   1.000  H
  H11      1.0000 0.85560  0.10090  0.72070  Biso   1.000  H
  H12      1.0000 0.64440  0.39910  0.72070  Biso   1.000  H
  H13      1.0000 0.89910  0.14440  0.27930  Biso   1.000  H
  H14      1.0000 0.60090  0.35560  0.27930  Biso   1.000  H
  H15      1.0000 0.14440  0.60090  0.27930  Biso   1.000  H
  H16      1.0000 0.35560  0.89910  0.27930  Biso   1.000  H
  H17      1.0000 0.89910  0.35560  0.27930  Biso   1.000  H
  H18      1.0000 0.60090  0.14440  0.27930  Biso   1.000  H
  H19      1.0000 0.14440  0.89910  0.27930  Biso   1.000  H
  H20      1.0000 0.35560  0.60090  0.27930  Biso   1.000  H
  H21      1.0000 0.10090  0.85560  0.72070  Biso   1.000  H
  H22      1.0000 0.39910  0.64440  0.72070  Biso   1.000  H
  H23      1.0000 0.85560  0.39910  0.72070  Biso   1.000  H
  H24      1.0000 0.64440  0.10090  0.72070  Biso   1.000  H
  I1       1.0000 0.12148  0.75000  0.38768  Biso   1.000  I
  I2       1.0000 0.37852  0.75000  0.38768  Biso   1.000  I
  I3       1.0000 0.75000  0.12148  0.38768  Biso   1.000  I
  I4       1.0000 0.75000  0.37852  0.38768  Biso   1.000  I
  I5       1.0000 0.87852  0.25000  0.61232  Biso   1.000  I
  I6       1.0000 0.62148  0.25000  0.61232  Biso   1.000  I
  I7       1.0000 0.25000  0.62148  0.61232  Biso   1.000  I
  I8       1.0000 0.25000  0.87852  0.61232  Biso   1.000  I
  O17      1.0000 0.04640  0.55920  0.84640  Biso   1.000  O
  O18      1.0000 0.45360  0.94080  0.84640  Biso   1.000  O
  O19      1.0000 0.94080  0.04640  0.84640  Biso   1.000  O
  O20      1.0000 0.55920  0.45360  0.84640  Biso   1.000  O
  O21      1.0000 0.95360  0.05920  0.15360  Biso   1.000  O
  O22      1.0000 0.54640  0.44080  0.15360  Biso   1.000  O
  O23      1.0000 0.05920  0.54640  0.15360  Biso   1.000  O
  O24      1.0000 0.44080  0.95360  0.15360  Biso   1.000  O
  O25      1.0000 0.95360  0.44080  0.15360  Biso   1.000  O
  O26      1.0000 0.54640  0.05920  0.15360  Biso   1.000  O
  O27      1.0000 0.05920  0.95360  0.15360  Biso   1.000  O
  O28      1.0000 0.44080  0.54640  0.15360  Biso   1.000  O
  O29      1.0000 0.04640  0.94080  0.84640  Biso   1.000  O
  O30      1.0000 0.45360  0.55920  0.84640  Biso   1.000  O
  O31      1.0000 0.94080  0.45360  0.84640  Biso   1.000  O
  O32      1.0000 0.55920  0.04640  0.84640  Biso   1.000  O
  O33      1.0000 0.06100  0.43900  0.68110  Biso   1.000  O
  O34      1.0000 0.43900  0.06100  0.68110  Biso   1.000  O
  O35      1.0000 0.06100  0.06100  0.68110  Biso   1.000  O
  O36      1.0000 0.43900  0.43900  0.68110  Biso   1.000  O
  O37      1.0000 0.93900  0.93900  0.31890  Biso   1.000  O
  O38      1.0000 0.56100  0.56100  0.31890  Biso   1.000  O
  O39      1.0000 0.93900  0.56100  0.31890  Biso   1.000  O
  O40      1.0000 0.56100  0.93900  0.31890  Biso   1.000  O
  H25      1.0000 0.06010  0.33610  0.75540  Biso   1.000  H
  H26      1.0000 0.43990  0.16390  0.75540  Biso   1.000  H
  H27      1.0000 0.16390  0.06010  0.75540  Biso   1.000  H
  H28      1.0000 0.33610  0.43990  0.75540  Biso   1.000  H
  H29      1.0000 0.93990  0.83610  0.24460  Biso   1.000  H
  H30      1.0000 0.56010  0.66390  0.24460  Biso   1.000  H
  H31      1.0000 0.83610  0.56010  0.24460  Biso   1.000  H
  H32      1.0000 0.66390  0.93990  0.24460  Biso   1.000  H
  H33      1.0000 0.93990  0.66390  0.24460  Biso   1.000  H
  H34      1.0000 0.56010  0.83610  0.24460  Biso   1.000  H
  H35      1.0000 0.83610  0.93990  0.24460  Biso   1.000  H
  H36      1.0000 0.66390  0.56010  0.24460  Biso   1.000  H
  H37      1.0000 0.06010  0.16390  0.75540  Biso   1.000  H
  H38      1.0000 0.43990  0.33610  0.75540  Biso   1.000  H
  H39      1.0000 0.16390  0.43990  0.75540  Biso   1.000  H
  H40      1.0000 0.33610  0.06010  0.75540  Biso   1.000  H
  H41      1.0000 0.05910  0.30850  0.86760  Biso   1.000  H
  H42      1.0000 0.44090  0.19150  0.86760  Biso   1.000  H
  H43      1.0000 0.19150  0.05910  0.86760  Biso   1.000  H
  H44      1.0000 0.30850  0.44090  0.86760  Biso   1.000  H
  H45      1.0000 0.94090  0.80850  0.13240  Biso   1.000  H
  H46      1.0000 0.55910  0.69150  0.13240  Biso   1.000  H
  H47      1.0000 0.80850  0.55910  0.13240  Biso   1.000  H
  H48      1.0000 0.69150  0.94090  0.13240  Biso   1.000  H
  H49      1.0000 0.94090  0.69150  0.13240  Biso   1.000  H
  H50      1.0000 0.55910  0.80850  0.13240  Biso   1.000  H
  H51      1.0000 0.80850  0.94090  0.13240  Biso   1.000  H
  H52      1.0000 0.69150  0.55910  0.13240  Biso   1.000  H
  H53      1.0000 0.05910  0.19150  0.86760  Biso   1.000  H
  H54      1.0000 0.44090  0.30850  0.86760  Biso   1.000  H
  H55      1.0000 0.19150  0.44090  0.86760  Biso   1.000  H
  H56      1.0000 0.30850  0.05910  0.86760  Biso   1.000  H
  O41      1.0000 0.15510  0.34490  0.88500  Biso   1.000  O
  O42      1.0000 0.34490  0.15510  0.88500  Biso   1.000  O
  O43      1.0000 0.15510  0.15510  0.88500  Biso   1.000  O
  O44      1.0000 0.34490  0.34490  0.88500  Biso   1.000  O
  O45      1.0000 0.84490  0.84490  0.11500  Biso   1.000  O
  O46      1.0000 0.65510  0.65510  0.11500  Biso   1.000  O
  O47      1.0000 0.84490  0.65510  0.11500  Biso   1.000  O
  O48      1.0000 0.65510  0.84490  0.11500  Biso   1.000  O
  H57      1.0000 0.17140  0.32860  0.82490  Biso   1.000  H
  H58      1.0000 0.32860  0.17140  0.82490  Biso   1.000  H
  H59      1.0000 0.17140  0.17140  0.82490  Biso   1.000  H
  H60      1.0000 0.32860  0.32860  0.82490  Biso   1.000  H
  H61      1.0000 0.82860  0.82860  0.17510  Biso   1.000  H
  H62      1.0000 0.67140  0.67140  0.17510  Biso   1.000  H
  H63      1.0000 0.82860  0.67140  0.17510  Biso   1.000  H
  H64      1.0000 0.67140  0.82860  0.17510  Biso   1.000  H
  H65      1.0000 0.17130  0.32870  0.94460  Biso   1.000  H
  H66      1.0000 0.32870  0.17130  0.94460  Biso   1.000  H
  H67      1.0000 0.17130  0.17130  0.94460  Biso   1.000  H
  H68      1.0000 0.32870  0.32870  0.94460  Biso   1.000  H
  H69      1.0000 0.82870  0.82870  0.05540  Biso   1.000  H
  H70      1.0000 0.67130  0.67130  0.05540  Biso   1.000  H
  H71      1.0000 0.82870  0.67130  0.05540  Biso   1.000  H
  H72      1.0000 0.67130  0.82870  0.05540  Biso   1.000  H
  Y1       1.0000 0.06460  0.43540  0.87634  Biso   1.000  Y
  Y2       1.0000 0.43540  0.06460  0.87634  Biso   1.000  Y
  Y3       1.0000 0.06460  0.06460  0.87634  Biso   1.000  Y
  Y4       1.0000 0.43540  0.43540  0.87634  Biso   1.000  Y
  Y5       1.0000 0.93540  0.93540  0.12366  Biso   1.000  Y
  Y6       1.0000 0.56460  0.56460  0.12366  Biso   1.000  Y
  Y7       1.0000 0.93540  0.56460  0.12366  Biso   1.000  Y
  Y8       1.0000 0.56460  0.93540  0.12366  Biso   1.000  Y
  O49      1.0000 0.04760  0.31680  0.80470  Biso   1.000  O
  O50      1.0000 0.45240  0.18320  0.80470  Biso   1.000  O
  O51      1.0000 0.18320  0.04760  0.80470  Biso   1.000  O
  O52      1.0000 0.31680  0.45240  0.80470  Biso   1.000  O
  O53      1.0000 0.95240  0.81680  0.19530  Biso   1.000  O
  O54      1.0000 0.54760  0.68320  0.19530  Biso   1.000  O
  O55      1.0000 0.81680  0.54760  0.19530  Biso   1.000  O
  O56      1.0000 0.68320  0.95240  0.19530  Biso   1.000  O
  O57      1.0000 0.95240  0.68320  0.19530  Biso   1.000  O
  O58      1.0000 0.54760  0.81680  0.19530  Biso   1.000  O
  O59      1.0000 0.81680  0.95240  0.19530  Biso   1.000  O
  O60      1.0000 0.68320  0.54760  0.19530  Biso   1.000  O
  O61      1.0000 0.04760  0.18320  0.80470  Biso   1.000  O
  O62      1.0000 0.45240  0.31680  0.80470  Biso   1.000  O
  O63      1.0000 0.18320  0.45240  0.80470  Biso   1.000  O
  O64      1.0000 0.31680  0.04760  0.80470  Biso   1.000  O
  H73      1.0000 0.06600  0.39940  0.64510  Biso   1.000  H
  H74      1.0000 0.43400  0.10060  0.64510  Biso   1.000  H
  H75      1.0000 0.10060  0.06600  0.64510  Biso   1.000  H
  H76      1.0000 0.39940  0.43400  0.64510  Biso   1.000  H
  H77      1.0000 0.93400  0.89940  0.35490  Biso   1.000  H
  H78      1.0000 0.56600  0.60060  0.35490  Biso   1.000  H
  H79      1.0000 0.89940  0.56600  0.35490  Biso   1.000  H
  H80      1.0000 0.60060  0.93400  0.35490  Biso   1.000  H
  H81      1.0000 0.93400  0.60060  0.35490  Biso   1.000  H
  H82      1.0000 0.56600  0.89940  0.35490  Biso   1.000  H
  H83      1.0000 0.89940  0.93400  0.35490  Biso   1.000  H
  H84      1.0000 0.60060  0.56600  0.35490  Biso   1.000  H
  H85      1.0000 0.06600  0.10060  0.64510  Biso   1.000  H
  H86      1.0000 0.43400  0.39940  0.64510  Biso   1.000  H
  H87      1.0000 0.10060  0.43400  0.64510  Biso   1.000  H
  H88      1.0000 0.39940  0.06600  0.64510  Biso   1.000  H
  Y9       1.0000 0.02635  0.47365  0.92000  Biso   1.000  Y
  Y10      1.0000 0.47365  0.02635  0.92000  Biso   1.000  Y
  Y11      1.0000 0.02635  0.02635  0.92000  Biso   1.000  Y
  Y12      1.0000 0.47365  0.47365  0.92000  Biso   1.000  Y
  Y13      1.0000 0.97365  0.97365  0.08000  Biso   1.000  Y
  Y14      1.0000 0.52635  0.52635  0.08000  Biso   1.000  Y
  Y15      1.0000 0.97365  0.52635  0.08000  Biso   1.000  Y
  Y16      1.0000 0.52635  0.97365  0.08000  Biso   1.000  Y
  O65      1.0000 0.06200  0.34370  0.82340  Biso   1.000  O
  O66      1.0000 0.43800  0.15630  0.82340  Biso   1.000  O
  O67      1.0000 0.15630  0.06200  0.82340  Biso   1.000  O
  O68      1.0000 0.34370  0.43800  0.82340  Biso   1.000  O
  O69      1.0000 0.93800  0.84370  0.17660  Biso   1.000  O
  O70      1.0000 0.56200  0.65630  0.17660  Biso   1.000  O
  O71      1.0000 0.84370  0.56200  0.17660  Biso   1.000  O
  O72      1.0000 0.65630  0.93800  0.17660  Biso   1.000  O
  O73      1.0000 0.93800  0.65630  0.17660  Biso   1.000  O
  O74      1.0000 0.56200  0.84370  0.17660  Biso   1.000  O
  O75      1.0000 0.84370  0.93800  0.17660  Biso   1.000  O
  O76      1.0000 0.65630  0.56200  0.17660  Biso   1.000  O
  O77      1.0000 0.06200  0.15630  0.82340  Biso   1.000  O
  O78      1.0000 0.43800  0.34370  0.82340  Biso   1.000  O
  O79      1.0000 0.15630  0.43800  0.82340  Biso   1.000  O
  O80      1.0000 0.34370  0.06200  0.82340  Biso   1.000  O
  H89      1.0000 0.05510  0.47810  0.64800  Biso   1.000  H
  H90      1.0000 0.44490  0.02190  0.64800  Biso   1.000  H
  H91      1.0000 0.02190  0.05510  0.64800  Biso   1.000  H
  H92      1.0000 0.47810  0.44490  0.64800  Biso   1.000  H
  H93      1.0000 0.94490  0.97810  0.35200  Biso   1.000  H
  H94      1.0000 0.55510  0.52190  0.35200  Biso   1.000  H
  H95      1.0000 0.97810  0.55510  0.35200  Biso   1.000  H
  H96      1.0000 0.52190  0.94490  0.35200  Biso   1.000  H
  H97      1.0000 0.94490  0.52190  0.35200  Biso   1.000  H
  H98      1.0000 0.55510  0.97810  0.35200  Biso   1.000  H
  H99      1.0000 0.97810  0.94490  0.35200  Biso   1.000  H
  H100     1.0000 0.52190  0.55510  0.35200  Biso   1.000  H
  H101     1.0000 0.05510  0.02190  0.64800  Biso   1.000  H
  H102     1.0000 0.44490  0.47810  0.64800  Biso   1.000  H
  H103     1.0000 0.02190  0.44490  0.64800  Biso   1.000  H
  H104     1.0000 0.47810  0.05510  0.64800  Biso   1.000  H
