data_image0
_cell_length_a       11.6858
_cell_length_b       14.0148
_cell_length_c       17.9459
_cell_angle_alpha    79.463
_cell_angle_beta     72.769
_cell_angle_gamma    85.972

_symmetry_space_group_name_H-M    "P 1"
_symmetry_int_tables_number       1

loop_
  _symmetry_equiv_pos_as_xyz
  'x, y, z'

loop_
  _atom_site_label
  _atom_site_occupancy
  _atom_site_fract_x
  _atom_site_fract_y
  _atom_site_fract_z
  _atom_site_thermal_displace_type
  _atom_site_B_iso_or_equiv
  _atom_site_type_symbol
  Cu1      1.0000 0.26115  0.68241  0.02553  Biso   1.000  Cu
  Cu2      1.0000 0.73885  0.31759  0.97447  Biso   1.000  Cu
  Cu3      1.0000 0.67004  0.69648  0.57878  Biso   1.000  Cu
  Cu4      1.0000 0.32996  0.30352  0.42122  Biso   1.000  Cu
  N1       1.0000 0.25630  0.54600  0.01170  Biso   1.000  N
  N2       1.0000 0.74370  0.45400  0.98830  Biso   1.000  N
  N3       1.0000 0.68940  0.82860  0.51930  Biso   1.000  N
  N4       1.0000 0.31060  0.17140  0.48070  Biso   1.000  N
  N5       1.0000 0.07030  0.57390  0.09420  Biso   1.000  N
  N6       1.0000 0.92970  0.42610  0.90580  Biso   1.000  N
  N7       1.0000 0.93040  0.66420  0.53350  Biso   1.000  N
  N8       1.0000 0.06960  0.33580  0.46650  Biso   1.000  N
  N9       1.0000 0.70220  0.26040  0.89140  Biso   1.000  N
  N10      1.0000 0.29780  0.73960  0.10860  Biso   1.000  N
  N11      1.0000 0.54320  0.86900  0.62640  Biso   1.000  N
  N12      1.0000 0.45680  0.13100  0.37360  Biso   1.000  N
  N13      1.0000 0.17800  0.78560  0.96470  Biso   1.000  N
  N14      1.0000 0.82200  0.21440  0.03530  Biso   1.000  N
  N15      1.0000 0.35930  0.78690  0.86900  Biso   1.000  N
  N16      1.0000 0.64070  0.21310  0.13100  Biso   1.000  N
  N17      1.0000 0.45710  0.40060  0.40320  Biso   1.000  N
  N18      1.0000 0.54290  0.59940  0.59680  Biso   1.000  N
  N19      1.0000 0.77320  0.62060  0.64460  Biso   1.000  N
  N20      1.0000 0.22680  0.37940  0.35540  Biso   1.000  N
  C1       1.0000 0.41830  0.49000  0.42010  Biso   1.000  C
  C2       1.0000 0.58170  0.51000  0.57990  Biso   1.000  C
  N21      1.0000 0.50940  0.32320  0.92420  Biso   1.000  N
  N22      1.0000 0.49060  0.67680  0.07580  Biso   1.000  N
  C3       1.0000 0.08170  0.52310  0.58720  Biso   1.000  C
  C4       1.0000 0.91830  0.47690  0.41280  Biso   1.000  C
  H1       1.0000 0.13220  0.47270  0.60370  Biso   1.000  H
  H2       1.0000 0.86780  0.52730  0.39630  Biso   1.000  H
  C5       1.0000 0.49590  0.56970  0.39790  Biso   1.000  C
  C6       1.0000 0.50410  0.43030  0.60210  Biso   1.000  C
  C7       1.0000 0.11140  0.41710  0.05040  Biso   1.000  C
  C8       1.0000 0.88860  0.58290  0.94960  Biso   1.000  C
  C9       1.0000 0.96240  0.53130  0.63330  Biso   1.000  C
  C10      1.0000 0.03760  0.46870  0.36670  Biso   1.000  C
  C11      1.0000 0.59130  0.26810  0.87920  Biso   1.000  C
  C12      1.0000 0.40870  0.73190  0.12080  Biso   1.000  C
  C13      1.0000 0.33620  0.49150  0.96750  Biso   1.000  C
  C14      1.0000 0.66380  0.50850  0.03250  Biso   1.000  C
  C15      1.0000 0.14450  0.51040  0.05300  Biso   1.000  C
  C16      1.0000 0.85550  0.48960  0.94700  Biso   1.000  C
  C17      1.0000 0.72940  0.56460  0.71350  Biso   1.000  C
  C18      1.0000 0.27060  0.43540  0.28650  Biso   1.000  C
  H3       1.0000 0.64830  0.57520  0.74190  Biso   1.000  H
  H4       1.0000 0.35170  0.42480  0.25810  Biso   1.000  H
  C19      1.0000 0.63910  0.99870  0.52110  Biso   1.000  C
  C20      1.0000 0.36090  0.00130  0.47890  Biso   1.000  C
  C21      1.0000 0.89000  0.60630  0.60360  Biso   1.000  C
  C22      1.0000 0.11000  0.39370  0.39640  Biso   1.000  C
  C23      1.0000 0.39600  0.89880  0.74570  Biso   1.000  C
  C24      1.0000 0.60400  0.10120  0.25430  Biso   1.000  C
  C25      1.0000 0.91020  0.47240  0.70770  Biso   1.000  C
  C26      1.0000 0.08980  0.52760  0.29230  Biso   1.000  C
  H5       1.0000 0.95530  0.42150  0.72920  Biso   1.000  H
  H6       1.0000 0.04470  0.57850  0.27080  Biso   1.000  H
  C27      1.0000 0.28480  0.94010  0.76960  Biso   1.000  C
  C28      1.0000 0.71520  0.05990  0.23040  Biso   1.000  C
  H7       1.0000 0.26120  0.99340  0.73590  Biso   1.000  H
  H8       1.0000 0.73880  0.00660  0.26410  Biso   1.000  H
  C29      1.0000 0.20440  0.90430  0.84410  Biso   1.000  C
  C30      1.0000 0.79560  0.09570  0.15590  Biso   1.000  C
  C31      1.0000 0.40090  0.33290  0.91480  Biso   1.000  C
  C32      1.0000 0.59910  0.66710  0.08520  Biso   1.000  C
  C33      1.0000 0.77180  0.85410  0.45010  Biso   1.000  C
  C34      1.0000 0.22820  0.14590  0.54990  Biso   1.000  C
  H9       1.0000 0.81740  0.80420  0.42460  Biso   1.000  H
  H10      1.0000 0.18260  0.19580  0.57540  Biso   1.000  H
  C35      1.0000 0.32600  0.66820  0.45380  Biso   1.000  C
  C36      1.0000 0.67400  0.33180  0.54620  Biso   1.000  C
  H11      1.0000 0.29110  0.72870  0.46610  Biso   1.000  H
  H12      1.0000 0.70890  0.27130  0.53390  Biso   1.000  H
  C37      1.0000 0.47850  0.93560  0.66540  Biso   1.000  C
  C38      1.0000 0.52150  0.06440  0.33460  Biso   1.000  C
  C39      1.0000 0.91640  0.45400  0.13250  Biso   1.000  C
  C40      1.0000 0.08360  0.54600  0.86750  Biso   1.000  C
  H13      1.0000 0.83560  0.43750  0.16020  Biso   1.000  H
  H14      1.0000 0.16440  0.56250  0.83980  Biso   1.000  H
  C41      1.0000 0.24640  0.82610  0.89120  Biso   1.000  C
  C42      1.0000 0.75360  0.17390  0.10880  Biso   1.000  C
  C43      1.0000 0.06860  0.82090  0.98970  Biso   1.000  C
  C44      1.0000 0.93140  0.17910  0.01030  Biso   1.000  C
  H15      1.0000 0.02040  0.79310  0.04070  Biso   1.000  H
  H16      1.0000 0.97960  0.20690  0.95930  Biso   1.000  H
  C45      1.0000 0.61780  0.55500  0.35720  Biso   1.000  C
  C46      1.0000 0.38220  0.44500  0.64280  Biso   1.000  C
  H17      1.0000 0.67240  0.60710  0.34110  Biso   1.000  H
  H18      1.0000 0.32760  0.39290  0.65890  Biso   1.000  H
  C47      1.0000 0.62320  0.90100  0.55470  Biso   1.000  C
  C48      1.0000 0.37680  0.09900  0.44530  Biso   1.000  C
  C49      1.0000 0.56420  0.06660  0.56310  Biso   1.000  C
  C50      1.0000 0.43580  0.93340  0.43690  Biso   1.000  C
  H19      1.0000 0.56860  0.13370  0.54090  Biso   1.000  H
  H20      1.0000 0.43140  0.86630  0.45910  Biso   1.000  H
  C51      1.0000 0.01850  0.89640  0.94640  Biso   1.000  C
  C52      1.0000 0.98150  0.10360  0.05360  Biso   1.000  C
  H21      1.0000 0.93820  0.91780  0.96710  Biso   1.000  H
  H22      1.0000 0.06180  0.08220  0.03290  Biso   1.000  H
  C53      1.0000 0.99220  0.38960  0.09240  Biso   1.000  C
  C54      1.0000 0.00780  0.61040  0.90760  Biso   1.000  C
  H23      1.0000 0.96530  0.32710  0.09270  Biso   1.000  H
  H24      1.0000 0.03470  0.67290  0.90730  Biso   1.000  H
  C55      1.0000 0.04450  0.65670  0.49210  Biso   1.000  C
  C56      1.0000 0.95550  0.34330  0.50790  Biso   1.000  C
  C57      1.0000 0.44550  0.66030  0.41630  Biso   1.000  C
  C58      1.0000 0.55450  0.33970  0.58370  Biso   1.000  C
  H25      1.0000 0.49470  0.71570  0.40250  Biso   1.000  H
  H26      1.0000 0.50530  0.28430  0.59750  Biso   1.000  H
  C59      1.0000 0.08770  0.93900  0.87350  Biso   1.000  C
  C60      1.0000 0.91230  0.06100  0.12650  Biso   1.000  C
  H27      1.0000 0.05660  0.99160  0.84330  Biso   1.000  H
  H28      1.0000 0.94340  0.00840  0.15670  Biso   1.000  H
  C61      1.0000 0.95990  0.54510  0.13220  Biso   1.000  C
  C62      1.0000 0.04010  0.45490  0.86780  Biso   1.000  C
  H29      1.0000 0.90660  0.58870  0.16110  Biso   1.000  H
  H30      1.0000 0.09340  0.41130  0.83890  Biso   1.000  H
  C63      1.0000 0.48630  0.03620  0.63480  Biso   1.000  C
  C64      1.0000 0.51370  0.96380  0.36520  Biso   1.000  C
  H31      1.0000 0.43750  0.08170  0.66410  Biso   1.000  H
  H32      1.0000 0.56250  0.91830  0.33590  Biso   1.000  H
  C65      1.0000 0.79450  0.95070  0.41300  Biso   1.000  C
  C66      1.0000 0.20550  0.04930  0.58700  Biso   1.000  C
  H33      1.0000 0.85560  0.96560  0.36430  Biso   1.000  H
  H34      1.0000 0.14440  0.03440  0.63570  Biso   1.000  H
  C67      1.0000 0.76830  0.16110  0.78890  Biso   1.000  C
  C68      1.0000 0.23170  0.83890  0.21110  Biso   1.000  C
  H35      1.0000 0.83190  0.12570  0.75850  Biso   1.000  H
  H36      1.0000 0.16810  0.87430  0.24150  Biso   1.000  H
  C69      1.0000 0.43070  0.82030  0.79810  Biso   1.000  C
  C70      1.0000 0.56930  0.17970  0.20190  Biso   1.000  C
  C71      1.0000 0.57190  0.38880  0.36480  Biso   1.000  C
  C72      1.0000 0.42810  0.61120  0.63520  Biso   1.000  C
  H37      1.0000 0.59890  0.32650  0.35250  Biso   1.000  H
  H38      1.0000 0.40110  0.67350  0.64750  Biso   1.000  H
  C73      1.0000 0.65810  0.16640  0.77730  Biso   1.000  C
  C74      1.0000 0.34190  0.83360  0.22270  Biso   1.000  C
  H39      1.0000 0.64350  0.13420  0.73890  Biso   1.000  H
  H40      1.0000 0.35650  0.86580  0.26110  Biso   1.000  H
  C75      1.0000 0.36730  0.28690  0.86100  Biso   1.000  C
  C76      1.0000 0.63270  0.71310  0.13900  Biso   1.000  C
  H41      1.0000 0.28790  0.29480  0.85670  Biso   1.000  H
  H42      1.0000 0.71210  0.70520  0.14330  Biso   1.000  H
  C77      1.0000 0.78660  0.20850  0.84650  Biso   1.000  C
  C78      1.0000 0.21340  0.79150  0.15350  Biso   1.000  C
  H43      1.0000 0.86390  0.20350  0.85420  Biso   1.000  H
  H44      1.0000 0.13610  0.79650  0.14580  Biso   1.000  H
  C79      1.0000 0.56520  0.22030  0.82290  Biso   1.000  C
  C80      1.0000 0.43480  0.77970  0.17710  Biso   1.000  C
  C81      1.0000 0.79410  0.49050  0.74760  Biso   1.000  C
  C82      1.0000 0.20590  0.50950  0.25240  Biso   1.000  C
  H45      1.0000 0.75760  0.45320  0.79800  Biso   1.000  H
  H46      1.0000 0.24240  0.54680  0.20200  Biso   1.000  H
  C83      1.0000 0.72780  0.02280  0.44780  Biso   1.000  C
  C84      1.0000 0.27220  0.97720  0.55220  Biso   1.000  C
  H47      1.0000 0.74080  0.08870  0.42310  Biso   1.000  H
  H48      1.0000 0.25920  0.91130  0.57690  Biso   1.000  H
  C85      1.0000 0.65560  0.46380  0.34160  Biso   1.000  C
  C86      1.0000 0.34440  0.53620  0.65840  Biso   1.000  C
  H49      1.0000 0.73730  0.45160  0.31530  Biso   1.000  H
  H50      1.0000 0.26270  0.54840  0.68470  Biso   1.000  H
  C87      1.0000 0.44840  0.23150  0.81530  Biso   1.000  C
  C88      1.0000 0.55160  0.76850  0.18470  Biso   1.000  C
  H51      1.0000 0.42650  0.20060  0.77870  Biso   1.000  H
  H52      1.0000 0.57350  0.79940  0.22130  Biso   1.000  H
  C89      1.0000 0.08290  0.72230  0.41250  Biso   1.000  C
  C90      1.0000 0.91710  0.27770  0.58750  Biso   1.000  C
  H53      1.0000 0.01420  0.73640  0.39130  Biso   1.000  H
  H54      1.0000 0.98580  0.26360  0.60870  Biso   1.000  H
  H55      1.0000 0.14640  0.68990  0.37600  Biso   1.000  H
  H56      1.0000 0.85360  0.31010  0.62400  Biso   1.000  H
  H57      1.0000 0.11300  0.78300  0.41870  Biso   1.000  H
  H58      1.0000 0.88700  0.21700  0.58130  Biso   1.000  H
  C91      1.0000 0.45160  0.54050  0.91720  Biso   1.000  C
  C92      1.0000 0.54840  0.45950  0.08280  Biso   1.000  C
  H59      1.0000 0.44940  0.55790  0.86210  Biso   1.000  H
  H60      1.0000 0.55060  0.44210  0.13790  Biso   1.000  H
  H61      1.0000 0.51940  0.49600  0.91970  Biso   1.000  H
  H62      1.0000 0.48060  0.50400  0.08030  Biso   1.000  H
  H63      1.0000 0.46070  0.59930  0.93700  Biso   1.000  H
  H64      1.0000 0.53930  0.40070  0.06300  Biso   1.000  H
  C93      1.0000 0.55240  0.77250  0.77850  Biso   1.000  C
  C94      1.0000 0.44760  0.22750  0.22150  Biso   1.000  C
  H65      1.0000 0.56400  0.73170  0.82640  Biso   1.000  H
  H66      1.0000 0.43600  0.26830  0.17360  Biso   1.000  H
  H67      1.0000 0.61390  0.82230  0.75830  Biso   1.000  H
  H68      1.0000 0.38610  0.17770  0.24170  Biso   1.000  H
  H69      1.0000 0.55870  0.73220  0.73820  Biso   1.000  H
  H70      1.0000 0.44130  0.26780  0.26180  Biso   1.000  H
  C95      1.0000 0.31080  0.39490  0.96370  Biso   1.000  C
  C96      1.0000 0.68920  0.60510  0.03630  Biso   1.000  C
  C97      1.0000 0.19940  0.35920  0.00490  Biso   1.000  C
  C98      1.0000 0.80060  0.64080  0.99510  Biso   1.000  C
  H71      1.0000 0.18100  0.29490  0.00290  Biso   1.000  H
  H72      1.0000 0.81900  0.70510  0.99710  Biso   1.000  H
  N23      1.0000 0.29980  0.49680  0.45980  Biso   1.000  N
  N24      1.0000 0.70020  0.50320  0.54020  Biso   1.000  N
  C99      1.0000 0.12570  0.58690  0.51900  Biso   1.000  C
  C100     1.0000 0.87430  0.41310  0.48100  Biso   1.000  C
  C101     1.0000 0.25430  0.58310  0.47440  Biso   1.000  C
  C102     1.0000 0.74570  0.41690  0.52560  Biso   1.000  C
  Cl1      1.0000 0.85322  0.78283  0.25090  Biso   1.000  Cl
  Cl2      1.0000 0.14678  0.21717  0.74910  Biso   1.000  Cl
  O1       1.0000 0.93190  0.84880  0.26310  Biso   1.000  O
  O2       1.0000 0.06810  0.15120  0.73690  Biso   1.000  O
  O3       1.0000 0.73080  0.81000  0.28500  Biso   1.000  O
  O4       1.0000 0.26920  0.19000  0.71500  Biso   1.000  O
  O5       1.0000 0.87650  0.78410  0.16820  Biso   1.000  O
  O6       1.0000 0.12350  0.21590  0.83180  Biso   1.000  O
  O7       1.0000 0.87330  0.68720  0.28910  Biso   1.000  O
  O8       1.0000 0.12670  0.31280  0.71090  Biso   1.000  O
  Cl3      1.0000 0.13595  0.75337  0.69708  Biso   1.000  Cl
  Cl4      1.0000 0.86405  0.24663  0.30292  Biso   1.000  Cl
  O9       1.0000 0.09740  0.85210  0.70400  Biso   1.000  O
  O10      1.0000 0.90260  0.14790  0.29600  Biso   1.000  O
  O11      1.0000 0.21250  0.72060  0.74710  Biso   1.000  O
  O12      1.0000 0.78750  0.27940  0.25290  Biso   1.000  O
  O13      1.0000 0.03350  0.69160  0.71990  Biso   1.000  O
  O14      1.0000 0.96650  0.30840  0.28010  Biso   1.000  O
  O15      1.0000 0.20250  0.74920  0.61600  Biso   1.000  O
  O16      1.0000 0.79750  0.25080  0.38400  Biso   1.000  O
  N25      1.0000 0.19050  0.97280  0.35660  Biso   1.000  N
  N26      1.0000 0.80950  0.02720  0.64340  Biso   1.000  N
  C103     1.0000 0.13690  0.03630  0.38160  Biso   1.000  C
  C104     1.0000 0.86310  0.96370  0.61840  Biso   1.000  C
  C105     1.0000 0.06850  0.11640  0.41460  Biso   1.000  C
  C106     1.0000 0.93150  0.88360  0.58540  Biso   1.000  C
  H73      1.0000 0.99110  0.12210  0.40320  Biso   1.000  H
  H74      1.0000 0.00890  0.87790  0.59680  Biso   1.000  H
  H75      1.0000 0.11270  0.17670  0.39100  Biso   1.000  H
  H76      1.0000 0.88730  0.82330  0.60900  Biso   1.000  H
  H77      1.0000 0.05530  0.10490  0.47200  Biso   1.000  H
  H78      1.0000 0.94470  0.89510  0.52800  Biso   1.000  H
  O17      1.0000 0.73930  0.90530  0.93620  Biso   1.000  O
  O18      1.0000 0.26070  0.09470  0.06380  Biso   1.000  O
  C107     1.0000 0.82740  0.83450  0.82180  Biso   1.000  C
  C108     1.0000 0.17260  0.16550  0.17820  Biso   1.000  C
  H79      1.0000 0.87580  0.89170  0.79440  Biso   1.000  H
  H80      1.0000 0.12420  0.10830  0.20560  Biso   1.000  H
  H81      1.0000 0.80890  0.80220  0.78290  Biso   1.000  H
  H82      1.0000 0.19110  0.19780  0.21710  Biso   1.000  H
  H83      1.0000 0.87220  0.78950  0.85190  Biso   1.000  H
  H84      1.0000 0.12780  0.21050  0.14810  Biso   1.000  H
  C109     1.0000 0.63780  0.94600  0.98400  Biso   1.000  C
  C110     1.0000 0.36220  0.05400  0.01600  Biso   1.000  C
  H85      1.0000 0.57660  0.89570  0.01030  Biso   1.000  H
  H86      1.0000 0.42340  0.10430  0.98970  Biso   1.000  H
  H87      1.0000 0.60300  0.99770  0.95130  Biso   1.000  H
  H88      1.0000 0.39700  0.00230  0.04870  Biso   1.000  H
  C111     1.0000 0.71290  0.86520  0.87730  Biso   1.000  C
  C112     1.0000 0.28710  0.13480  0.12270  Biso   1.000  C
  H89      1.0000 0.66970  0.91380  0.84770  Biso   1.000  H
  H90      1.0000 0.33030  0.08620  0.15230  Biso   1.000  H
  H91      1.0000 0.66070  0.80840  0.90190  Biso   1.000  H
  H92      1.0000 0.33930  0.19160  0.09810  Biso   1.000  H
  C113     1.0000 0.67340  0.98780  0.04550  Biso   1.000  C
  C114     1.0000 0.32660  0.01220  0.95450  Biso   1.000  C
  H93      1.0000 0.70810  0.93630  0.07740  Biso   1.000  H
  H94      1.0000 0.29190  0.06370  0.92260  Biso   1.000  H
  H95      1.0000 0.60250  0.01590  0.07980  Biso   1.000  H
  H96      1.0000 0.39750  0.98410  0.92020  Biso   1.000  H
  H97      1.0000 0.73270  0.03850  0.01910  Biso   1.000  H
  H98      1.0000 0.26730  0.96150  0.98090  Biso   1.000  H
