data_image0
_cell_length_a       9.5428
_cell_length_b       14.5428
_cell_length_c       15.2025
_cell_angle_alpha    66.797
_cell_angle_beta     72.523
_cell_angle_gamma    78.859

_symmetry_space_group_name_H-M    "P 1"
_symmetry_int_tables_number       1

loop_
  _symmetry_equiv_pos_as_xyz
  'x, y, z'

loop_
  _atom_site_label
  _atom_site_occupancy
  _atom_site_fract_x
  _atom_site_fract_y
  _atom_site_fract_z
  _atom_site_thermal_displace_type
  _atom_site_B_iso_or_equiv
  _atom_site_type_symbol
  Cu1      1.0000 0.40083  0.57242  0.04174  Biso   1.000  Cu
  Cu2      1.0000 0.59917  0.42758  0.95826  Biso   1.000  Cu
  Cu3      1.0000 0.11962  0.41768  0.47902  Biso   1.000  Cu
  Cu4      1.0000 0.88038  0.58232  0.52098  Biso   1.000  Cu
  Cl1      1.0000 0.34204  0.41696  0.04140  Biso   1.000  Cl
  Cl2      1.0000 0.65796  0.58304  0.95860  Biso   1.000  Cl
  P1       1.0000 0.13508  0.25231  0.54177  Biso   1.000  P
  P2       1.0000 0.86492  0.74769  0.45823  Biso   1.000  P
  P3       1.0000 0.25767  0.69764  0.96479  Biso   1.000  P
  P4       1.0000 0.74233  0.30236  0.03521  Biso   1.000  P
  Cl3      1.0000 0.89034  0.48587  0.42441  Biso   1.000  Cl
  Cl4      1.0000 0.10966  0.51413  0.57559  Biso   1.000  Cl
  N1       1.0000 0.28830  0.48418  0.35796  Biso   1.000  N
  N2       1.0000 0.71170  0.51582  0.64204  Biso   1.000  N
  N3       1.0000 0.41270  0.53095  0.18640  Biso   1.000  N
  N4       1.0000 0.58730  0.46905  0.81360  Biso   1.000  N
  N5       1.0000 0.18930  0.46325  0.24750  Biso   1.000  N
  N6       1.0000 0.81070  0.53675  0.75250  Biso   1.000  N
  H1       1.0000 0.11500  0.43900  0.29530  Biso   1.000  H
  H2       1.0000 0.88500  0.56100  0.70470  Biso   1.000  H
  H3       1.0000 0.19300  0.46820  0.18860  Biso   1.000  H
  H4       1.0000 0.80700  0.53180  0.81140  Biso   1.000  H
  C1       1.0000 0.29810  0.49312  0.26465  Biso   1.000  C
  C2       1.0000 0.70190  0.50688  0.73535  Biso   1.000  C
  C3       1.0000 0.40160  0.51206  0.37314  Biso   1.000  C
  C4       1.0000 0.59840  0.48794  0.62686  Biso   1.000  C
  H5       1.0000 0.39630  0.50890  0.43630  Biso   1.000  H
  H6       1.0000 0.60370  0.49110  0.56370  Biso   1.000  H
  C5       1.0000 0.52560  0.54510  0.29963  Biso   1.000  C
  C6       1.0000 0.47440  0.45490  0.70037  Biso   1.000  C
  H7       1.0000 0.60550  0.56100  0.31230  Biso   1.000  H
  H8       1.0000 0.39450  0.43900  0.68770  Biso   1.000  H
  C7       1.0000 0.52570  0.55362  0.20653  Biso   1.000  C
  C8       1.0000 0.47430  0.44638  0.79347  Biso   1.000  C
  H9       1.0000 0.60810  0.57620  0.15520  Biso   1.000  H
  H10      1.0000 0.39190  0.42380  0.84480  Biso   1.000  H
  C9       1.0000 0.25300  0.69480  0.84653  Biso   1.000  C
  C10      1.0000 0.74700  0.30520  0.15347  Biso   1.000  C
  C11      1.0000 0.17850  0.62110  0.84670  Biso   1.000  C
  C12      1.0000 0.82150  0.37890  0.15330  Biso   1.000  C
  H11      1.0000 0.12850  0.57660  0.90620  Biso   1.000  H
  H12      1.0000 0.87150  0.42340  0.09380  Biso   1.000  H
  C13      1.0000 0.32990  0.75750  0.75690  Biso   1.000  C
  C14      1.0000 0.67010  0.24250  0.24310  Biso   1.000  C
  H13      1.0000 0.38090  0.80680  0.75520  Biso   1.000  H
  H14      1.0000 0.61910  0.19320  0.24480  Biso   1.000  H
  C15      1.0000 0.25420  0.67730  0.67110  Biso   1.000  C
  C16      1.0000 0.74580  0.32270  0.32890  Biso   1.000  C
  H15      1.0000 0.25290  0.67280  0.61190  Biso   1.000  H
  H16      1.0000 0.74710  0.32720  0.38810  Biso   1.000  H
  C17      1.0000 0.17860  0.61400  0.75830  Biso   1.000  C
  C18      1.0000 0.82140  0.38600  0.24170  Biso   1.000  C
  H17      1.0000 0.12690  0.56570  0.75870  Biso   1.000  H
  H18      1.0000 0.87310  0.43430  0.24130  Biso   1.000  H
  C19      1.0000 0.33190  0.74760  0.66990  Biso   1.000  C
  C20      1.0000 0.66810  0.25240  0.33010  Biso   1.000  C
  H19      1.0000 0.38640  0.78900  0.61020  Biso   1.000  H
  H20      1.0000 0.61360  0.21100  0.38980  Biso   1.000  H
  C21      1.0000 0.06290  0.70985  0.02814  Biso   1.000  C
  C22      1.0000 0.93710  0.29015  0.97186  Biso   1.000  C
  C23      1.0000 0.02960  0.69170  0.12800  Biso   1.000  C
  C24      1.0000 0.97040  0.30830  0.87200  Biso   1.000  C
  H21      1.0000 0.10520  0.66990  0.16040  Biso   1.000  H
  H22      1.0000 0.89480  0.33010  0.83960  Biso   1.000  H
  C25      1.0000 0.88680  0.70510  0.18110  Biso   1.000  C
  C26      1.0000 0.11320  0.29490  0.81890  Biso   1.000  C
  H23      1.0000 0.86740  0.69330  0.24810  Biso   1.000  H
  H24      1.0000 0.13260  0.30670  0.75190  Biso   1.000  H
  C27      1.0000 0.77580  0.73510  0.13590  Biso   1.000  C
  C28      1.0000 0.22420  0.26490  0.86410  Biso   1.000  C
  H25      1.0000 0.67980  0.74440  0.17180  Biso   1.000  H
  H26      1.0000 0.32020  0.25560  0.82820  Biso   1.000  H
  C29      1.0000 0.80400  0.75210  0.03660  Biso   1.000  C
  C30      1.0000 0.19600  0.24790  0.96340  Biso   1.000  C
  H27      1.0000 0.72660  0.77180  0.00580  Biso   1.000  H
  H28      1.0000 0.27340  0.22820  0.99420  Biso   1.000  H
  C31      1.0000 0.94720  0.74000  0.98230  Biso   1.000  C
  C32      1.0000 0.05280  0.26000  0.01770  Biso   1.000  C
  H29      1.0000 0.96590  0.75220  0.91520  Biso   1.000  H
  H30      1.0000 0.03410  0.24780  0.08480  Biso   1.000  H
  C33      1.0000 0.31260  0.82318  0.93298  Biso   1.000  C
  C34      1.0000 0.68740  0.17682  0.06702  Biso   1.000  C
  C35      1.0000 0.45460  0.83350  0.92740  Biso   1.000  C
  C36      1.0000 0.54540  0.16650  0.07260  Biso   1.000  C
  H31      1.0000 0.52110  0.77680  0.93990  Biso   1.000  H
  H32      1.0000 0.47890  0.22320  0.06010  Biso   1.000  H
  C37      1.0000 0.40470  0.01010  0.88530  Biso   1.000  C
  C38      1.0000 0.59530  0.98990  0.11470  Biso   1.000  C
  H33      1.0000 0.43620  0.07290  0.86850  Biso   1.000  H
  H34      1.0000 0.56380  0.92710  0.13150  Biso   1.000  H
  C39      1.0000 0.26220  0.00180  0.89190  Biso   1.000  C
  C40      1.0000 0.73780  0.99820  0.10810  Biso   1.000  C
  H35      1.0000 0.19600  0.05870  0.88050  Biso   1.000  H
  H36      1.0000 0.80400  0.94130  0.11950  Biso   1.000  H
  C41      1.0000 0.50130  0.92700  0.90330  Biso   1.000  C
  C42      1.0000 0.49870  0.07300  0.09670  Biso   1.000  C
  H37      1.0000 0.59850  0.93270  0.89940  Biso   1.000  H
  H38      1.0000 0.40150  0.06730  0.10060  Biso   1.000  H
  C43      1.0000 0.21590  0.90880  0.91570  Biso   1.000  C
  C44      1.0000 0.78410  0.09120  0.08430  Biso   1.000  C
  H39      1.0000 0.11820  0.90360  0.92010  Biso   1.000  H
  H40      1.0000 0.88180  0.09640  0.07990  Biso   1.000  H
  C45      1.0000 0.99330  0.19732  0.65462  Biso   1.000  C
  C46      1.0000 0.00670  0.80268  0.34538  Biso   1.000  C
  C47      1.0000 0.30890  0.19220  0.57331  Biso   1.000  C
  C48      1.0000 0.69110  0.80780  0.42669  Biso   1.000  C
  C49      1.0000 0.12330  0.19721  0.45549  Biso   1.000  C
  C50      1.0000 0.87670  0.80279  0.54451  Biso   1.000  C
  C51      1.0000 0.86730  0.25800  0.67550  Biso   1.000  C
  C52      1.0000 0.13270  0.74200  0.32450  Biso   1.000  C
  H41      1.0000 0.85580  0.32320  0.63120  Biso   1.000  H
  H42      1.0000 0.14420  0.67680  0.36880  Biso   1.000  H
  C53      1.0000 0.39240  0.24790  0.59110  Biso   1.000  C
  C54      1.0000 0.60760  0.75210  0.40890  Biso   1.000  C
  H43      1.0000 0.35890  0.31370  0.58660  Biso   1.000  H
  H44      1.0000 0.64110  0.68630  0.41340  Biso   1.000  H
  C55      1.0000 0.36330  0.09460  0.57880  Biso   1.000  C
  C56      1.0000 0.63670  0.90540  0.42120  Biso   1.000  C
  H45      1.0000 0.31010  0.05660  0.56520  Biso   1.000  H
  H46      1.0000 0.68990  0.94340  0.43480  Biso   1.000  H
  C57      1.0000 0.00610  0.10030  0.72200  Biso   1.000  C
  C58      1.0000 0.99390  0.89970  0.27800  Biso   1.000  C
  H47      1.0000 0.08950  0.05780  0.70940  Biso   1.000  H
  H48      1.0000 0.91050  0.94220  0.29060  Biso   1.000  H
  C59      1.0000 0.52580  0.20650  0.61570  Biso   1.000  C
  C60      1.0000 0.47420  0.79350  0.38430  Biso   1.000  C
  H49      1.0000 0.58130  0.24470  0.62730  Biso   1.000  H
  H50      1.0000 0.41870  0.75530  0.37270  Biso   1.000  H
  C61      1.0000 0.49570  0.05320  0.60420  Biso   1.000  C
  C62      1.0000 0.50430  0.94680  0.39580  Biso   1.000  C
  H51      1.0000 0.53050  0.98760  0.60860  Biso   1.000  H
  H52      1.0000 0.46950  0.01240  0.39140  Biso   1.000  H
  C63      1.0000 0.77280  0.12820  0.82750  Biso   1.000  C
  C64      1.0000 0.22720  0.87180  0.17250  Biso   1.000  C
  H53      1.0000 0.69980  0.10540  0.88570  Biso   1.000  H
  H54      1.0000 0.30020  0.89460  0.11430  Biso   1.000  H
  C65      1.0000 0.75800  0.22330  0.76150  Biso   1.000  C
  C66      1.0000 0.24200  0.77670  0.23850  Biso   1.000  C
  H55      1.0000 0.67370  0.26520  0.77420  Biso   1.000  H
  H56      1.0000 0.32630  0.73480  0.22580  Biso   1.000  H
  C67      1.0000 0.89680  0.06640  0.80730  Biso   1.000  C
  C68      1.0000 0.10320  0.93360  0.19270  Biso   1.000  C
  H57      1.0000 0.90690  0.00110  0.85160  Biso   1.000  H
  H58      1.0000 0.09310  0.99890  0.14840  Biso   1.000  H
  C69      1.0000 0.00740  0.14650  0.46840  Biso   1.000  C
  C70      1.0000 0.99260  0.85350  0.53160  Biso   1.000  C
  H59      1.0000 0.93320  0.13350  0.52670  Biso   1.000  H
  H60      1.0000 0.06680  0.86650  0.47330  Biso   1.000  H
  C71      1.0000 0.23230  0.21430  0.36860  Biso   1.000  C
  C72      1.0000 0.76770  0.78570  0.63140  Biso   1.000  C
  H61      1.0000 0.31270  0.24760  0.35880  Biso   1.000  H
  H62      1.0000 0.68730  0.75240  0.64120  Biso   1.000  H
  C73      1.0000 0.57530  0.11000  0.62280  Biso   1.000  C
  C74      1.0000 0.42470  0.89000  0.37720  Biso   1.000  C
  H63      1.0000 0.66360  0.08220  0.64040  Biso   1.000  H
  H64      1.0000 0.33640  0.91780  0.35960  Biso   1.000  H
  C75      1.0000 0.10830  0.13150  0.31070  Biso   1.000  C
  C76      1.0000 0.89170  0.86850  0.68930  Biso   1.000  C
  H65      1.0000 0.10390  0.10830  0.26270  Biso   1.000  H
  H66      1.0000 0.89610  0.89170  0.73730  Biso   1.000  H
  C77      1.0000 0.22350  0.18250  0.29610  Biso   1.000  C
  C78      1.0000 0.77650  0.81750  0.70390  Biso   1.000  C
  H67      1.0000 0.29650  0.19600  0.23720  Biso   1.000  H
  H68      1.0000 0.70350  0.80400  0.76280  Biso   1.000  H
  C79      1.0000 0.99930  0.11430  0.39570  Biso   1.000  C
  C80      1.0000 0.00070  0.88570  0.60430  Biso   1.000  C
  H69      1.0000 0.91920  0.08090  0.40500  Biso   1.000  H
  H70      1.0000 0.08080  0.91910  0.59500  Biso   1.000  H
