data_image0
_cell_length_a       19.5486
_cell_length_b       13.7855
_cell_length_c       10.2772
_cell_angle_alpha    90
_cell_angle_beta     90
_cell_angle_gamma    90

_symmetry_space_group_name_H-M    "P 1"
_symmetry_int_tables_number       1

loop_
  _symmetry_equiv_pos_as_xyz
  'x, y, z'

loop_
  _atom_site_label
  _atom_site_occupancy
  _atom_site_fract_x
  _atom_site_fract_y
  _atom_site_fract_z
  _atom_site_thermal_displace_type
  _atom_site_B_iso_or_equiv
  _atom_site_type_symbol
  C1       1.0000 0.48920  0.25000  0.60740  Biso   1.000  C
  C2       1.0000 0.98920  0.25000  0.89260  Biso   1.000  C
  C3       1.0000 0.51080  0.75000  0.39260  Biso   1.000  C
  C4       1.0000 0.01080  0.75000  0.10740  Biso   1.000  C
  C5       1.0000 0.52300  0.25000  0.51030  Biso   1.000  C
  C6       1.0000 0.02300  0.25000  0.98970  Biso   1.000  C
  C7       1.0000 0.47700  0.75000  0.48970  Biso   1.000  C
  C8       1.0000 0.97700  0.75000  0.01030  Biso   1.000  C
  C9       1.0000 0.53890  0.25000  0.36910  Biso   1.000  C
  C10      1.0000 0.03890  0.25000  0.13090  Biso   1.000  C
  C11      1.0000 0.46110  0.75000  0.63090  Biso   1.000  C
  C12      1.0000 0.96110  0.75000  0.86910  Biso   1.000  C
  C13      1.0000 0.48460  0.25000  0.28060  Biso   1.000  C
  C14      1.0000 0.98460  0.25000  0.21940  Biso   1.000  C
  C15      1.0000 0.51540  0.75000  0.71940  Biso   1.000  C
  C16      1.0000 0.01540  0.75000  0.78060  Biso   1.000  C
  H1       1.0000 0.43880  0.25000  0.31150  Biso   1.000  H
  H2       1.0000 0.93880  0.25000  0.18850  Biso   1.000  H
  H3       1.0000 0.56120  0.75000  0.68850  Biso   1.000  H
  H4       1.0000 0.06120  0.75000  0.81150  Biso   1.000  H
  C17      1.0000 0.49740  0.25000  0.14640  Biso   1.000  C
  C18      1.0000 0.99740  0.25000  0.35360  Biso   1.000  C
  C19      1.0000 0.50260  0.75000  0.85360  Biso   1.000  C
  C20      1.0000 0.00260  0.75000  0.64640  Biso   1.000  C
  H5       1.0000 0.46090  0.25000  0.08540  Biso   1.000  H
  H6       1.0000 0.96090  0.25000  0.41460  Biso   1.000  H
  H7       1.0000 0.53910  0.75000  0.91460  Biso   1.000  H
  H8       1.0000 0.03910  0.75000  0.58540  Biso   1.000  H
  C21      1.0000 0.60520  0.25000  0.32760  Biso   1.000  C
  C22      1.0000 0.10520  0.25000  0.17240  Biso   1.000  C
  C23      1.0000 0.39480  0.75000  0.67240  Biso   1.000  C
  C24      1.0000 0.89480  0.75000  0.82760  Biso   1.000  C
  H9       1.0000 0.64160  0.25000  0.38880  Biso   1.000  H
  H10      1.0000 0.14160  0.25000  0.11120  Biso   1.000  H
  H11      1.0000 0.35840  0.75000  0.61120  Biso   1.000  H
  H12      1.0000 0.85840  0.75000  0.88880  Biso   1.000  H
  C25      1.0000 0.61890  0.25000  0.19510  Biso   1.000  C
  C26      1.0000 0.11890  0.25000  0.30490  Biso   1.000  C
  C27      1.0000 0.38110  0.75000  0.80490  Biso   1.000  C
  C28      1.0000 0.88110  0.75000  0.69510  Biso   1.000  C
  H13      1.0000 0.66480  0.25000  0.16500  Biso   1.000  H
  H14      1.0000 0.16480  0.25000  0.33500  Biso   1.000  H
  H15      1.0000 0.33520  0.75000  0.83500  Biso   1.000  H
  H16      1.0000 0.83520  0.75000  0.66500  Biso   1.000  H
  C29      1.0000 0.56460  0.25000  0.10570  Biso   1.000  C
  C30      1.0000 0.06460  0.25000  0.39430  Biso   1.000  C
  C31      1.0000 0.43540  0.75000  0.89430  Biso   1.000  C
  C32      1.0000 0.93540  0.75000  0.60570  Biso   1.000  C
  C33      1.0000 0.57900  0.25000  0.96700  Biso   1.000  C
  C34      1.0000 0.07900  0.25000  0.53300  Biso   1.000  C
  C35      1.0000 0.42100  0.75000  0.03300  Biso   1.000  C
  C36      1.0000 0.92100  0.75000  0.46700  Biso   1.000  C
  C37      1.0000 0.35870  0.25000  0.90920  Biso   1.000  C
  C38      1.0000 0.85870  0.25000  0.59080  Biso   1.000  C
  C39      1.0000 0.64130  0.75000  0.09080  Biso   1.000  C
  C40      1.0000 0.14130  0.75000  0.40920  Biso   1.000  C
  C41      1.0000 0.32490  0.25000  0.00300  Biso   1.000  C
  C42      1.0000 0.82490  0.25000  0.49700  Biso   1.000  C
  C43      1.0000 0.67510  0.75000  0.99700  Biso   1.000  C
  C44      1.0000 0.17510  0.75000  0.50300  Biso   1.000  C
  C45      1.0000 0.30820  0.25000  0.14400  Biso   1.000  C
  C46      1.0000 0.80820  0.25000  0.35600  Biso   1.000  C
  C47      1.0000 0.69180  0.75000  0.85600  Biso   1.000  C
  C48      1.0000 0.19180  0.75000  0.64400  Biso   1.000  C
  C49      1.0000 0.30230  0.16320  0.20940  Biso   1.000  C
  C50      1.0000 0.80230  0.33680  0.29060  Biso   1.000  C
  C51      1.0000 0.69770  0.66320  0.79060  Biso   1.000  C
  C52      1.0000 0.19770  0.83680  0.70940  Biso   1.000  C
  C53      1.0000 0.69770  0.83680  0.79060  Biso   1.000  C
  C54      1.0000 0.19770  0.66320  0.70940  Biso   1.000  C
  C55      1.0000 0.30230  0.33680  0.20940  Biso   1.000  C
  C56      1.0000 0.80230  0.16320  0.29060  Biso   1.000  C
  H17      1.0000 0.30470  0.10370  0.16290  Biso   1.000  H
  H18      1.0000 0.80470  0.39630  0.33710  Biso   1.000  H
  H19      1.0000 0.69530  0.60370  0.83710  Biso   1.000  H
  H20      1.0000 0.19530  0.89630  0.66290  Biso   1.000  H
  H21      1.0000 0.69530  0.89630  0.83710  Biso   1.000  H
  H22      1.0000 0.19530  0.60370  0.66290  Biso   1.000  H
  H23      1.0000 0.30470  0.39630  0.16290  Biso   1.000  H
  H24      1.0000 0.80470  0.10370  0.33710  Biso   1.000  H
  C57      1.0000 0.29270  0.16270  0.34380  Biso   1.000  C
  C58      1.0000 0.79270  0.33730  0.15620  Biso   1.000  C
  C59      1.0000 0.70730  0.66270  0.65620  Biso   1.000  C
  C60      1.0000 0.20730  0.83730  0.84380  Biso   1.000  C
  C61      1.0000 0.70730  0.83730  0.65620  Biso   1.000  C
  C62      1.0000 0.20730  0.66270  0.84380  Biso   1.000  C
  C63      1.0000 0.29270  0.33730  0.34380  Biso   1.000  C
  C64      1.0000 0.79270  0.16270  0.15620  Biso   1.000  C
  H25      1.0000 0.28940  0.10310  0.38970  Biso   1.000  H
  H26      1.0000 0.78940  0.39690  0.11030  Biso   1.000  H
  H27      1.0000 0.71060  0.60310  0.61030  Biso   1.000  H
  H28      1.0000 0.21060  0.89690  0.88970  Biso   1.000  H
  H29      1.0000 0.71060  0.89690  0.61030  Biso   1.000  H
  H30      1.0000 0.21060  0.60310  0.88970  Biso   1.000  H
  H31      1.0000 0.28940  0.39690  0.38970  Biso   1.000  H
  H32      1.0000 0.78940  0.10310  0.11030  Biso   1.000  H
  C65      1.0000 0.28810  0.25000  0.40900  Biso   1.000  C
  C66      1.0000 0.78810  0.25000  0.09100  Biso   1.000  C
  C67      1.0000 0.71190  0.75000  0.59100  Biso   1.000  C
  C68      1.0000 0.21190  0.75000  0.90900  Biso   1.000  C
  C69      1.0000 0.27540  0.25000  0.54830  Biso   1.000  C
  C70      1.0000 0.77540  0.25000  0.95170  Biso   1.000  C
  C71      1.0000 0.72460  0.75000  0.45170  Biso   1.000  C
  C72      1.0000 0.22460  0.75000  0.04830  Biso   1.000  C
  C73      1.0000 0.36000  0.02100  0.64700  Biso   1.000  C
  C74      1.0000 0.86000  0.47900  0.85300  Biso   1.000  C
  C75      1.0000 0.64000  0.52100  0.35300  Biso   1.000  C
  C76      1.0000 0.14000  0.97900  0.14700  Biso   1.000  C
  C77      1.0000 0.64000  0.97900  0.35300  Biso   1.000  C
  C78      1.0000 0.14000  0.52100  0.14700  Biso   1.000  C
  C79      1.0000 0.36000  0.47900  0.64700  Biso   1.000  C
  C80      1.0000 0.86000  0.02100  0.85300  Biso   1.000  C
  H33      1.0000 0.38420  0.99000  0.57500  Biso   1.000  H
  H34      1.0000 0.88420  0.51000  0.92500  Biso   1.000  H
  H35      1.0000 0.61580  0.49000  0.42500  Biso   1.000  H
  H36      1.0000 0.11580  0.01000  0.07500  Biso   1.000  H
  H37      1.0000 0.61580  0.01000  0.42500  Biso   1.000  H
  H38      1.0000 0.11580  0.49000  0.07500  Biso   1.000  H
  H39      1.0000 0.38420  0.51000  0.57500  Biso   1.000  H
  H40      1.0000 0.88420  0.99000  0.92500  Biso   1.000  H
  H41      1.0000 0.32690  0.06810  0.61260  Biso   1.000  H
  H42      1.0000 0.82690  0.43190  0.88740  Biso   1.000  H
  H43      1.0000 0.67310  0.56810  0.38740  Biso   1.000  H
  H44      1.0000 0.17310  0.93190  0.11260  Biso   1.000  H
  H45      1.0000 0.67310  0.93190  0.38740  Biso   1.000  H
  H46      1.0000 0.17310  0.56810  0.11260  Biso   1.000  H
  H47      1.0000 0.32690  0.43190  0.61260  Biso   1.000  H
  H48      1.0000 0.82690  0.06810  0.88740  Biso   1.000  H
  H49      1.0000 0.33480  0.97100  0.69660  Biso   1.000  H
  H50      1.0000 0.83480  0.52900  0.80340  Biso   1.000  H
  H51      1.0000 0.66520  0.47100  0.30340  Biso   1.000  H
  H52      1.0000 0.16520  0.02900  0.19660  Biso   1.000  H
  H53      1.0000 0.66520  0.02900  0.30340  Biso   1.000  H
  H54      1.0000 0.16520  0.47100  0.19660  Biso   1.000  H
  H55      1.0000 0.33480  0.52900  0.69660  Biso   1.000  H
  H56      1.0000 0.83480  0.97100  0.80340  Biso   1.000  H
  C81      1.0000 0.50200  0.01300  0.76700  Biso   1.000  C
  C82      1.0000 0.00200  0.48700  0.73300  Biso   1.000  C
  C83      1.0000 0.49800  0.51300  0.23300  Biso   1.000  C
  C84      1.0000 0.99800  0.98700  0.26700  Biso   1.000  C
  C85      1.0000 0.49800  0.98700  0.23300  Biso   1.000  C
  C86      1.0000 0.99800  0.51300  0.26700  Biso   1.000  C
  C87      1.0000 0.50200  0.48700  0.76700  Biso   1.000  C
  C88      1.0000 0.00200  0.01300  0.73300  Biso   1.000  C
  H57      1.0000 0.53530  0.04610  0.82190  Biso   1.000  H
  H58      1.0000 0.03530  0.45390  0.67810  Biso   1.000  H
  H59      1.0000 0.46470  0.54610  0.17810  Biso   1.000  H
  H60      1.0000 0.96470  0.95390  0.32190  Biso   1.000  H
  H61      1.0000 0.46470  0.95390  0.17810  Biso   1.000  H
  H62      1.0000 0.96470  0.54610  0.32190  Biso   1.000  H
  H63      1.0000 0.53530  0.45390  0.82190  Biso   1.000  H
  H64      1.0000 0.03530  0.04610  0.67810  Biso   1.000  H
  H65      1.0000 0.52060  0.00490  0.67900  Biso   1.000  H
  H66      1.0000 0.02060  0.49510  0.82100  Biso   1.000  H
  H67      1.0000 0.47940  0.50490  0.32100  Biso   1.000  H
  H68      1.0000 0.97940  0.99510  0.17900  Biso   1.000  H
  H69      1.0000 0.47940  0.99510  0.32100  Biso   1.000  H
  H70      1.0000 0.97940  0.50490  0.17900  Biso   1.000  H
  H71      1.0000 0.52060  0.49510  0.67900  Biso   1.000  H
  H72      1.0000 0.02060  0.00490  0.82100  Biso   1.000  H
  H73      1.0000 0.49150  0.94890  0.80380  Biso   1.000  H
  H74      1.0000 0.99150  0.55110  0.69620  Biso   1.000  H
  H75      1.0000 0.50850  0.44890  0.19620  Biso   1.000  H
  H76      1.0000 0.00850  0.05110  0.30380  Biso   1.000  H
  H77      1.0000 0.50850  0.05110  0.19620  Biso   1.000  H
  H78      1.0000 0.00850  0.44890  0.30380  Biso   1.000  H
  H79      1.0000 0.49150  0.55110  0.80380  Biso   1.000  H
  H80      1.0000 0.99150  0.94890  0.69620  Biso   1.000  H
  C89      1.0000 0.38100  0.02500  0.90900  Biso   1.000  C
  C90      1.0000 0.88100  0.47500  0.59100  Biso   1.000  C
  C91      1.0000 0.61900  0.52500  0.09100  Biso   1.000  C
  C92      1.0000 0.11900  0.97500  0.40900  Biso   1.000  C
  C93      1.0000 0.61900  0.97500  0.09100  Biso   1.000  C
  C94      1.0000 0.11900  0.52500  0.40900  Biso   1.000  C
  C95      1.0000 0.38100  0.47500  0.90900  Biso   1.000  C
  C96      1.0000 0.88100  0.02500  0.59100  Biso   1.000  C
  H81      1.0000 0.38340  0.95450  0.90160  Biso   1.000  H
  H82      1.0000 0.88340  0.54550  0.59840  Biso   1.000  H
  H83      1.0000 0.61660  0.45450  0.09840  Biso   1.000  H
  H84      1.0000 0.11660  0.04550  0.40160  Biso   1.000  H
  H85      1.0000 0.61660  0.04550  0.09840  Biso   1.000  H
  H86      1.0000 0.11660  0.45450  0.40160  Biso   1.000  H
  H87      1.0000 0.38340  0.54550  0.90160  Biso   1.000  H
  H88      1.0000 0.88340  0.95450  0.59840  Biso   1.000  H
  H89      1.0000 0.33290  0.04520  0.91450  Biso   1.000  H
  H90      1.0000 0.83290  0.45480  0.58550  Biso   1.000  H
  H91      1.0000 0.66710  0.54520  0.08550  Biso   1.000  H
  H92      1.0000 0.16710  0.95480  0.41450  Biso   1.000  H
  H93      1.0000 0.66710  0.95480  0.08550  Biso   1.000  H
  H94      1.0000 0.16710  0.54520  0.41450  Biso   1.000  H
  H95      1.0000 0.33290  0.45480  0.91450  Biso   1.000  H
  H96      1.0000 0.83290  0.04520  0.58550  Biso   1.000  H
  H97      1.0000 0.40490  0.04590  0.98840  Biso   1.000  H
  H98      1.0000 0.90490  0.45410  0.51160  Biso   1.000  H
  H99      1.0000 0.59510  0.54590  0.01160  Biso   1.000  H
  H100     1.0000 0.09510  0.95410  0.48840  Biso   1.000  H
  H101     1.0000 0.59510  0.95410  0.01160  Biso   1.000  H
  H102     1.0000 0.09510  0.54590  0.48840  Biso   1.000  H
  H103     1.0000 0.40490  0.45410  0.98840  Biso   1.000  H
  H104     1.0000 0.90490  0.04590  0.51160  Biso   1.000  H
  N1       1.0000 0.58850  0.25000  0.85970  Biso   1.000  N
  N2       1.0000 0.08850  0.25000  0.64030  Biso   1.000  N
  N3       1.0000 0.41150  0.75000  0.14030  Biso   1.000  N
  N4       1.0000 0.91150  0.75000  0.35970  Biso   1.000  N
  N5       1.0000 0.26380  0.25000  0.65920  Biso   1.000  N
  N6       1.0000 0.76380  0.25000  0.84080  Biso   1.000  N
  N7       1.0000 0.73620  0.75000  0.34080  Biso   1.000  N
  N8       1.0000 0.23620  0.75000  0.15920  Biso   1.000  N
  P1       1.0000 0.42330  0.08470  0.75880  Biso   1.000  P
  P2       1.0000 0.92330  0.41530  0.74120  Biso   1.000  P
  P3       1.0000 0.57670  0.58470  0.24120  Biso   1.000  P
  P4       1.0000 0.07670  0.91530  0.25880  Biso   1.000  P
  P5       1.0000 0.57670  0.91530  0.24120  Biso   1.000  P
  P6       1.0000 0.07670  0.58470  0.25880  Biso   1.000  P
  P7       1.0000 0.42330  0.41530  0.75880  Biso   1.000  P
  P8       1.0000 0.92330  0.08470  0.74120  Biso   1.000  P
  Cu1      1.0000 0.75548  0.25000  0.65180  Biso   1.000  Cu
  Cu2      1.0000 0.25548  0.25000  0.84820  Biso   1.000  Cu
  Cu3      1.0000 0.24452  0.75000  0.34820  Biso   1.000  Cu
  Cu4      1.0000 0.74452  0.75000  0.15180  Biso   1.000  Cu
  Cu5      1.0000 0.59240  0.25000  0.66490  Biso   1.000  Cu
  Cu6      1.0000 0.09240  0.25000  0.83510  Biso   1.000  Cu
  Cu7      1.0000 0.40760  0.75000  0.33510  Biso   1.000  Cu
  Cu8      1.0000 0.90760  0.75000  0.16490  Biso   1.000  Cu
  Br1      1.0000 0.67430  0.39140  0.61340  Biso   1.000  Br
  Br2      1.0000 0.17430  0.10860  0.88660  Biso   1.000  Br
  Br3      1.0000 0.32570  0.89140  0.38660  Biso   1.000  Br
  Br4      1.0000 0.82570  0.60860  0.11340  Biso   1.000  Br
  Br5      1.0000 0.32570  0.60860  0.38660  Biso   1.000  Br
  Br6      1.0000 0.82570  0.89140  0.11340  Biso   1.000  Br
  Br7      1.0000 0.67430  0.10860  0.61340  Biso   1.000  Br
  Br8      1.0000 0.17430  0.39140  0.88660  Biso   1.000  Br
  Pt1      1.0000 0.42451  0.25000  0.75815  Biso   1.000  Pt
  Pt2      1.0000 0.92451  0.25000  0.74185  Biso   1.000  Pt
  Pt3      1.0000 0.57549  0.75000  0.24185  Biso   1.000  Pt
  Pt4      1.0000 0.07549  0.75000  0.25815  Biso   1.000  Pt
  C97      1.0000 0.34300  0.04500  0.74700  Biso   1.000  C
  C98      1.0000 0.84300  0.45500  0.75300  Biso   1.000  C
  C99      1.0000 0.65700  0.54500  0.25300  Biso   1.000  C
  C100     1.0000 0.15700  0.95500  0.24700  Biso   1.000  C
  C101     1.0000 0.65700  0.95500  0.25300  Biso   1.000  C
  C102     1.0000 0.15700  0.54500  0.24700  Biso   1.000  C
  C103     1.0000 0.34300  0.45500  0.74700  Biso   1.000  C
  C104     1.0000 0.84300  0.04500  0.75300  Biso   1.000  C
  H105     1.0000 0.34330  0.97360  0.74080  Biso   1.000  H
  H106     1.0000 0.84330  0.52640  0.75920  Biso   1.000  H
  H107     1.0000 0.65670  0.47360  0.25920  Biso   1.000  H
  H108     1.0000 0.15670  0.02640  0.24080  Biso   1.000  H
  H109     1.0000 0.65670  0.02640  0.25920  Biso   1.000  H
  H110     1.0000 0.15670  0.47360  0.24080  Biso   1.000  H
  H111     1.0000 0.34330  0.52640  0.74080  Biso   1.000  H
  H112     1.0000 0.84330  0.97360  0.75920  Biso   1.000  H
  H113     1.0000 0.32190  0.07170  0.66820  Biso   1.000  H
  H114     1.0000 0.82190  0.42830  0.83180  Biso   1.000  H
  H115     1.0000 0.67810  0.57170  0.33180  Biso   1.000  H
  H116     1.0000 0.17810  0.92830  0.16820  Biso   1.000  H
  H117     1.0000 0.67810  0.92830  0.33180  Biso   1.000  H
  H118     1.0000 0.17810  0.57170  0.16820  Biso   1.000  H
  H119     1.0000 0.32190  0.42830  0.66820  Biso   1.000  H
  H120     1.0000 0.82190  0.07170  0.83180  Biso   1.000  H
  H121     1.0000 0.31710  0.06480  0.82340  Biso   1.000  H
  H122     1.0000 0.81710  0.43520  0.67660  Biso   1.000  H
  H123     1.0000 0.68290  0.56480  0.17660  Biso   1.000  H
  H124     1.0000 0.18290  0.93520  0.32340  Biso   1.000  H
  H125     1.0000 0.68290  0.93520  0.17660  Biso   1.000  H
  H126     1.0000 0.18290  0.56480  0.32340  Biso   1.000  H
  H127     1.0000 0.31710  0.43520  0.82340  Biso   1.000  H
  H128     1.0000 0.81710  0.06480  0.67660  Biso   1.000  H
  C105     1.0000 0.48900  0.05100  0.85500  Biso   1.000  C
  C106     1.0000 0.98900  0.44900  0.64500  Biso   1.000  C
  C107     1.0000 0.51100  0.55100  0.14500  Biso   1.000  C
  C108     1.0000 0.01100  0.94900  0.35500  Biso   1.000  C
  C109     1.0000 0.51100  0.94900  0.14500  Biso   1.000  C
  C110     1.0000 0.01100  0.55100  0.35500  Biso   1.000  C
  C111     1.0000 0.48900  0.44900  0.85500  Biso   1.000  C
  C112     1.0000 0.98900  0.05100  0.64500  Biso   1.000  C
  H129     1.0000 0.47140  0.02100  0.93420  Biso   1.000  H
  H130     1.0000 0.97140  0.47900  0.56580  Biso   1.000  H
  H131     1.0000 0.52860  0.52100  0.06580  Biso   1.000  H
  H132     1.0000 0.02860  0.97900  0.43420  Biso   1.000  H
  H133     1.0000 0.52860  0.97900  0.06580  Biso   1.000  H
  H134     1.0000 0.02860  0.52100  0.43420  Biso   1.000  H
  H135     1.0000 0.47140  0.47900  0.93420  Biso   1.000  H
  H136     1.0000 0.97140  0.02100  0.56580  Biso   1.000  H
  H137     1.0000 0.51630  0.10860  0.87780  Biso   1.000  H
  H138     1.0000 0.01630  0.39140  0.62220  Biso   1.000  H
  H139     1.0000 0.48370  0.60860  0.12220  Biso   1.000  H
  H140     1.0000 0.98370  0.89140  0.37780  Biso   1.000  H
  H141     1.0000 0.48370  0.89140  0.12220  Biso   1.000  H
  H142     1.0000 0.98370  0.60860  0.37780  Biso   1.000  H
  H143     1.0000 0.51630  0.39140  0.87780  Biso   1.000  H
  H144     1.0000 0.01630  0.10860  0.62220  Biso   1.000  H
  H145     1.0000 0.51810  0.00480  0.80820  Biso   1.000  H
  H146     1.0000 0.01810  0.49520  0.69180  Biso   1.000  H
  H147     1.0000 0.48190  0.50480  0.19180  Biso   1.000  H
  H148     1.0000 0.98190  0.99520  0.30820  Biso   1.000  H
  H149     1.0000 0.48190  0.99520  0.19180  Biso   1.000  H
  H150     1.0000 0.98190  0.50480  0.30820  Biso   1.000  H
  H151     1.0000 0.51810  0.49520  0.80820  Biso   1.000  H
  H152     1.0000 0.01810  0.00480  0.69180  Biso   1.000  H
  C113     1.0000 0.45700  0.05100  0.59100  Biso   1.000  C
  C114     1.0000 0.95700  0.44900  0.90900  Biso   1.000  C
  C115     1.0000 0.54300  0.55100  0.40900  Biso   1.000  C
  C116     1.0000 0.04300  0.94900  0.09100  Biso   1.000  C
  C117     1.0000 0.54300  0.94900  0.40900  Biso   1.000  C
  C118     1.0000 0.04300  0.55100  0.09100  Biso   1.000  C
  C119     1.0000 0.45700  0.44900  0.59100  Biso   1.000  C
  C120     1.0000 0.95700  0.05100  0.90900  Biso   1.000  C
  H153     1.0000 0.50690  0.06200  0.58830  Biso   1.000  H
  H154     1.0000 0.00690  0.43800  0.91170  Biso   1.000  H
  H155     1.0000 0.49310  0.56200  0.41170  Biso   1.000  H
  H156     1.0000 0.99310  0.93800  0.08830  Biso   1.000  H
  H157     1.0000 0.49310  0.93800  0.41170  Biso   1.000  H
  H158     1.0000 0.99310  0.56200  0.08830  Biso   1.000  H
  H159     1.0000 0.50690  0.43800  0.58830  Biso   1.000  H
  H160     1.0000 0.00690  0.06200  0.91170  Biso   1.000  H
  H161     1.0000 0.43510  0.09170  0.52500  Biso   1.000  H
  H162     1.0000 0.93510  0.40830  0.97500  Biso   1.000  H
  H163     1.0000 0.56490  0.59170  0.47500  Biso   1.000  H
  H164     1.0000 0.06490  0.90830  0.02500  Biso   1.000  H
  H165     1.0000 0.56490  0.90830  0.47500  Biso   1.000  H
  H166     1.0000 0.06490  0.59170  0.02500  Biso   1.000  H
  H167     1.0000 0.43510  0.40830  0.52500  Biso   1.000  H
  H168     1.0000 0.93510  0.09170  0.97500  Biso   1.000  H
  H169     1.0000 0.44760  0.98270  0.57330  Biso   1.000  H
  H170     1.0000 0.94760  0.51730  0.92670  Biso   1.000  H
  H171     1.0000 0.55240  0.48270  0.42670  Biso   1.000  H
  H172     1.0000 0.05240  0.01730  0.07330  Biso   1.000  H
  H173     1.0000 0.55240  0.01730  0.42670  Biso   1.000  H
  H174     1.0000 0.05240  0.48270  0.07330  Biso   1.000  H
  H175     1.0000 0.44760  0.51730  0.57330  Biso   1.000  H
  H176     1.0000 0.94760  0.98270  0.92670  Biso   1.000  H
