data_image0
_cell_length_a       10.2445
_cell_length_b       13.669
_cell_length_c       10.5949
_cell_angle_alpha    90
_cell_angle_beta     106.051
_cell_angle_gamma    90

_symmetry_space_group_name_H-M    "P 1"
_symmetry_int_tables_number       1

loop_
  _symmetry_equiv_pos_as_xyz
  'x, y, z'

loop_
  _atom_site_label
  _atom_site_occupancy
  _atom_site_fract_x
  _atom_site_fract_y
  _atom_site_fract_z
  _atom_site_thermal_displace_type
  _atom_site_B_iso_or_equiv
  _atom_site_type_symbol
  C1       1.0000 0.38460  0.25000  0.06530  Biso   1.000  C
  C2       1.0000 0.61540  0.75000  0.93470  Biso   1.000  C
  C3       1.0000 0.46160  0.25000  0.99950  Biso   1.000  C
  C4       1.0000 0.53840  0.75000  0.00050  Biso   1.000  C
  C5       1.0000 0.59340  0.25000  0.96950  Biso   1.000  C
  C6       1.0000 0.40660  0.75000  0.03050  Biso   1.000  C
  C7       1.0000 0.60520  0.25000  0.84100  Biso   1.000  C
  C8       1.0000 0.39480  0.75000  0.15900  Biso   1.000  C
  H1       1.0000 0.52580  0.25000  0.76890  Biso   1.000  H
  H2       1.0000 0.47420  0.75000  0.23110  Biso   1.000  H
  C9       1.0000 0.73090  0.25000  0.81850  Biso   1.000  C
  C10      1.0000 0.26910  0.75000  0.18150  Biso   1.000  C
  H3       1.0000 0.73800  0.25000  0.73100  Biso   1.000  H
  H4       1.0000 0.26200  0.75000  0.26900  Biso   1.000  H
  C11      1.0000 0.84770  0.25000  0.92320  Biso   1.000  C
  C12      1.0000 0.15230  0.75000  0.07680  Biso   1.000  C
  C13      1.0000 0.83810  0.25000  0.05140  Biso   1.000  C
  C14      1.0000 0.16190  0.75000  0.94860  Biso   1.000  C
  H5       1.0000 0.91800  0.25000  0.12300  Biso   1.000  H
  H6       1.0000 0.08200  0.75000  0.87700  Biso   1.000  H
  C15      1.0000 0.71170  0.25000  0.07410  Biso   1.000  C
  C16      1.0000 0.28830  0.75000  0.92590  Biso   1.000  C
  H7       1.0000 0.70510  0.25000  0.16180  Biso   1.000  H
  H8       1.0000 0.29490  0.75000  0.83820  Biso   1.000  H
  C17      1.0000 0.97930  0.25000  0.89670  Biso   1.000  C
  C18      1.0000 0.02070  0.75000  0.10330  Biso   1.000  C
  C19      1.0000 0.15820  0.25000  0.32040  Biso   1.000  C
  C20      1.0000 0.84180  0.75000  0.67960  Biso   1.000  C
  C21      1.0000 0.07990  0.25000  0.38370  Biso   1.000  C
  C22      1.0000 0.92010  0.75000  0.61630  Biso   1.000  C
  C23      1.0000 0.95180  0.25000  0.42100  Biso   1.000  C
  C24      1.0000 0.04820  0.75000  0.57900  Biso   1.000  C
  C25      1.0000 0.88790  0.16230  0.43520  Biso   1.000  C
  C26      1.0000 0.11210  0.66230  0.56480  Biso   1.000  C
  C27      1.0000 0.11210  0.83770  0.56480  Biso   1.000  C
  C28      1.0000 0.88790  0.33770  0.43520  Biso   1.000  C
  H9       1.0000 0.93250  0.10210  0.43070  Biso   1.000  H
  H10      1.0000 0.06750  0.60210  0.56930  Biso   1.000  H
  H11      1.0000 0.06750  0.89790  0.56930  Biso   1.000  H
  H12      1.0000 0.93250  0.39790  0.43070  Biso   1.000  H
  C29      1.0000 0.76100  0.16200  0.45550  Biso   1.000  C
  C30      1.0000 0.23900  0.66200  0.54450  Biso   1.000  C
  C31      1.0000 0.23900  0.83800  0.54450  Biso   1.000  C
  C32      1.0000 0.76100  0.33800  0.45550  Biso   1.000  C
  H13      1.0000 0.71720  0.10170  0.46220  Biso   1.000  H
  H14      1.0000 0.28280  0.60170  0.53780  Biso   1.000  H
  H15      1.0000 0.28280  0.89830  0.53780  Biso   1.000  H
  H16      1.0000 0.71720  0.39830  0.46220  Biso   1.000  H
  C33      1.0000 0.69690  0.25000  0.46610  Biso   1.000  C
  C34      1.0000 0.30310  0.75000  0.53390  Biso   1.000  C
  C35      1.0000 0.56540  0.25000  0.49000  Biso   1.000  C
  C36      1.0000 0.43460  0.75000  0.51000  Biso   1.000  C
  C37      1.0000 0.30870  0.47920  0.05970  Biso   1.000  C
  C38      1.0000 0.69130  0.97920  0.94030  Biso   1.000  C
  C39      1.0000 0.69130  0.52080  0.94030  Biso   1.000  C
  C40      1.0000 0.30870  0.02080  0.05970  Biso   1.000  C
  H17      1.0000 0.30010  0.55010  0.06870  Biso   1.000  H
  H18      1.0000 0.69990  0.05010  0.93130  Biso   1.000  H
  H19      1.0000 0.69990  0.44990  0.93130  Biso   1.000  H
  H20      1.0000 0.30010  0.94990  0.06870  Biso   1.000  H
  H21      1.0000 0.24620  0.45740  0.97670  Biso   1.000  H
  H22      1.0000 0.75380  0.95740  0.02330  Biso   1.000  H
  H23      1.0000 0.75380  0.54260  0.02330  Biso   1.000  H
  H24      1.0000 0.24620  0.04260  0.97670  Biso   1.000  H
  H25      1.0000 0.40210  0.46320  0.06040  Biso   1.000  H
  H26      1.0000 0.59790  0.96320  0.93960  Biso   1.000  H
  H27      1.0000 0.59790  0.53680  0.93960  Biso   1.000  H
  H28      1.0000 0.40210  0.03680  0.06040  Biso   1.000  H
  C41      1.0000 0.38220  0.47120  0.33680  Biso   1.000  C
  C42      1.0000 0.61780  0.97120  0.66320  Biso   1.000  C
  C43      1.0000 0.61780  0.52880  0.66320  Biso   1.000  C
  C44      1.0000 0.38220  0.02880  0.33680  Biso   1.000  C
  H29      1.0000 0.47540  0.45130  0.34180  Biso   1.000  H
  H30      1.0000 0.52460  0.95130  0.65820  Biso   1.000  H
  H31      1.0000 0.52460  0.54870  0.65820  Biso   1.000  H
  H32      1.0000 0.47540  0.04870  0.34180  Biso   1.000  H
  H33      1.0000 0.35830  0.44830  0.41520  Biso   1.000  H
  H34      1.0000 0.64170  0.94830  0.58480  Biso   1.000  H
  H35      1.0000 0.64170  0.55170  0.58480  Biso   1.000  H
  H36      1.0000 0.35830  0.05170  0.41520  Biso   1.000  H
  H37      1.0000 0.37540  0.54270  0.33180  Biso   1.000  H
  H38      1.0000 0.62460  0.04270  0.66820  Biso   1.000  H
  H39      1.0000 0.62460  0.45730  0.66820  Biso   1.000  H
  H40      1.0000 0.37540  0.95730  0.33180  Biso   1.000  H
  C45      1.0000 0.10600  0.46960  0.19600  Biso   1.000  C
  C46      1.0000 0.89400  0.96960  0.80400  Biso   1.000  C
  C47      1.0000 0.89400  0.53040  0.80400  Biso   1.000  C
  C48      1.0000 0.10600  0.03040  0.19600  Biso   1.000  C
  H41      1.0000 0.11450  0.54070  0.20780  Biso   1.000  H
  H42      1.0000 0.88550  0.04070  0.79220  Biso   1.000  H
  H43      1.0000 0.88550  0.45930  0.79220  Biso   1.000  H
  H44      1.0000 0.11450  0.95930  0.20780  Biso   1.000  H
  H45      1.0000 0.07740  0.44080  0.26870  Biso   1.000  H
  H46      1.0000 0.92260  0.94080  0.73130  Biso   1.000  H
  H47      1.0000 0.92260  0.55920  0.73130  Biso   1.000  H
  H48      1.0000 0.07740  0.05920  0.26870  Biso   1.000  H
  H49      1.0000 0.03820  0.45500  0.11280  Biso   1.000  H
  H50      1.0000 0.96180  0.95500  0.88720  Biso   1.000  H
  H51      1.0000 0.96180  0.54500  0.88720  Biso   1.000  H
  H52      1.0000 0.03820  0.04500  0.11280  Biso   1.000  H
  Cu1      1.0000 0.27031  0.25000  0.86259  Biso   1.000  Cu
  Cu2      1.0000 0.72969  0.75000  0.13741  Biso   1.000  Cu
  Cu3      1.0000 0.27259  0.25000  0.52544  Biso   1.000  Cu
  Cu4      1.0000 0.72741  0.75000  0.47456  Biso   1.000  Cu
  I1       1.0000 0.26022  0.40047  0.68790  Biso   1.000  I
  I2       1.0000 0.73978  0.90047  0.31210  Biso   1.000  I
  I3       1.0000 0.73978  0.59953  0.31210  Biso   1.000  I
  I4       1.0000 0.26022  0.09953  0.68790  Biso   1.000  I
  N1       1.0000 0.08150  0.25000  0.87490  Biso   1.000  N
  N2       1.0000 0.91850  0.75000  0.12510  Biso   1.000  N
  N3       1.0000 0.46150  0.25000  0.51140  Biso   1.000  N
  N4       1.0000 0.53850  0.75000  0.48860  Biso   1.000  N
  P1       1.0000 0.26796  0.41886  0.19336  Biso   1.000  P
  P2       1.0000 0.73204  0.91886  0.80664  Biso   1.000  P
  P3       1.0000 0.73204  0.58114  0.80664  Biso   1.000  P
  P4       1.0000 0.26796  0.08114  0.19336  Biso   1.000  P
  Pt1      1.0000 0.27115  0.25000  0.19194  Biso   1.000  Pt
  Pt2      1.0000 0.72885  0.75000  0.80806  Biso   1.000  Pt
