data_image0
_cell_length_a       7.3533
_cell_length_b       10.485
_cell_length_c       16.6092
_cell_angle_alpha    86.037
_cell_angle_beta     86.026
_cell_angle_gamma    81.851

_symmetry_space_group_name_H-M    "P 1"
_symmetry_int_tables_number       1

loop_
  _symmetry_equiv_pos_as_xyz
  'x, y, z'

loop_
  _atom_site_label
  _atom_site_occupancy
  _atom_site_fract_x
  _atom_site_fract_y
  _atom_site_fract_z
  _atom_site_thermal_displace_type
  _atom_site_B_iso_or_equiv
  _atom_site_type_symbol
  Cu1      1.0000 0.47910  0.40867  0.45518  Biso   1.000  Cu
  Cu2      1.0000 0.52090  0.59133  0.54482  Biso   1.000  Cu
  Cu3      1.0000 0.35949  0.57096  0.05421  Biso   1.000  Cu
  Cu4      1.0000 0.64051  0.42904  0.94579  Biso   1.000  Cu
  Cu5      1.0000 0.08820  0.64565  0.95874  Biso   1.000  Cu
  Cu6      1.0000 0.91180  0.35435  0.04126  Biso   1.000  Cu
  I1       1.0000 0.75395  0.55004  0.42766  Biso   1.000  I
  I2       1.0000 0.24605  0.44996  0.57234  Biso   1.000  I
  I3       1.0000 0.22163  0.81221  0.03789  Biso   1.000  I
  I4       1.0000 0.77837  0.18779  0.96211  Biso   1.000  I
  I5       1.0000 0.73808  0.58847  0.04229  Biso   1.000  I
  I6       1.0000 0.26192  0.41153  0.95771  Biso   1.000  I
  C1       1.0000 0.90100  0.84040  0.84980  Biso   1.000  C
  C2       1.0000 0.09900  0.15960  0.15020  Biso   1.000  C
  H1       1.0000 0.87090  0.87990  0.89830  Biso   1.000  H
  H2       1.0000 0.12910  0.12010  0.10170  Biso   1.000  H
  C3       1.0000 0.84410  0.90720  0.78020  Biso   1.000  C
  C4       1.0000 0.15590  0.09280  0.21980  Biso   1.000  C
  H3       1.0000 0.77500  0.98850  0.78260  Biso   1.000  H
  H4       1.0000 0.22500  0.01150  0.21740  Biso   1.000  H
  C5       1.0000 0.88910  0.85420  0.70640  Biso   1.000  C
  C6       1.0000 0.11090  0.14580  0.29360  Biso   1.000  C
  C7       1.0000 0.99020  0.72990  0.71000  Biso   1.000  C
  C8       1.0000 0.00980  0.27010  0.29000  Biso   1.000  C
  H5       1.0000 0.02320  0.68830  0.66240  Biso   1.000  H
  H6       1.0000 0.97680  0.31170  0.33760  Biso   1.000  H
  C9       1.0000 0.04120  0.66890  0.78260  Biso   1.000  C
  C10      1.0000 0.95880  0.33110  0.21740  Biso   1.000  C
  H7       1.0000 0.10930  0.58700  0.78260  Biso   1.000  H
  H8       1.0000 0.89070  0.41300  0.21740  Biso   1.000  H
  C11      1.0000 0.83500  0.92380  0.62990  Biso   1.000  C
  C12      1.0000 0.16500  0.07620  0.37010  Biso   1.000  C
  C13      1.0000 0.79570  0.05570  0.62330  Biso   1.000  C
  C14      1.0000 0.20430  0.94430  0.37670  Biso   1.000  C
  H9       1.0000 0.80440  0.10210  0.66840  Biso   1.000  H
  H10      1.0000 0.19560  0.89790  0.33160  Biso   1.000  H
  C15      1.0000 0.74340  0.12210  0.55170  Biso   1.000  C
  C16      1.0000 0.25660  0.87790  0.44830  Biso   1.000  C
  H11      1.0000 0.71910  0.21170  0.54930  Biso   1.000  H
  H12      1.0000 0.28090  0.78830  0.45070  Biso   1.000  H
  C17      1.0000 0.72710  0.05600  0.48360  Biso   1.000  C
  C18      1.0000 0.27290  0.94400  0.51640  Biso   1.000  C
  C19      1.0000 0.76730  0.92240  0.49020  Biso   1.000  C
  C20      1.0000 0.23270  0.07760  0.50980  Biso   1.000  C
  H13      1.0000 0.75660  0.87610  0.44540  Biso   1.000  H
  H14      1.0000 0.24340  0.12390  0.55460  Biso   1.000  H
  C21      1.0000 0.82290  0.85540  0.56150  Biso   1.000  C
  C22      1.0000 0.17710  0.14460  0.43850  Biso   1.000  C
  H15      1.0000 0.85190  0.76600  0.56370  Biso   1.000  H
  H16      1.0000 0.14810  0.23400  0.43630  Biso   1.000  H
  C23      1.0000 0.66530  0.12130  0.40890  Biso   1.000  C
  C24      1.0000 0.33470  0.87870  0.59110  Biso   1.000  C
  C25      1.0000 0.54670  0.25320  0.31920  Biso   1.000  C
  C26      1.0000 0.45330  0.74680  0.68080  Biso   1.000  C
  C27      1.0000 0.43830  0.36910  0.28320  Biso   1.000  C
  C28      1.0000 0.56170  0.63090  0.71680  Biso   1.000  C
  C29      1.0000 0.42880  0.39920  0.20130  Biso   1.000  C
  C30      1.0000 0.57120  0.60080  0.79870  Biso   1.000  C
  H17      1.0000 0.49270  0.34300  0.16490  Biso   1.000  H
  H18      1.0000 0.50730  0.65700  0.83510  Biso   1.000  H
  C31      1.0000 0.23410  0.58130  0.22940  Biso   1.000  C
  C32      1.0000 0.76590  0.41870  0.77060  Biso   1.000  C
  H19      1.0000 0.15620  0.65430  0.21210  Biso   1.000  H
  H20      1.0000 0.84380  0.34570  0.78790  Biso   1.000  H
  C33      1.0000 0.24670  0.55380  0.30920  Biso   1.000  C
  C34      1.0000 0.75330  0.44620  0.69080  Biso   1.000  C
  H21      1.0000 0.17940  0.60940  0.34510  Biso   1.000  H
  H22      1.0000 0.82060  0.39060  0.65490  Biso   1.000  H
  N1       1.0000 0.99670  0.72270  0.85270  Biso   1.000  N
  N2       1.0000 0.00330  0.27730  0.14730  Biso   1.000  N
  N3       1.0000 0.69020  0.06820  0.33610  Biso   1.000  N
  N4       1.0000 0.30980  0.93180  0.66390  Biso   1.000  N
  H23      1.0000 0.74800  0.99270  0.32760  Biso   1.000  H
  H24      1.0000 0.25200  0.00730  0.67240  Biso   1.000  H
  N5       1.0000 0.61000  0.15240  0.27860  Biso   1.000  N
  N6       1.0000 0.39000  0.84760  0.72140  Biso   1.000  N
  N7       1.0000 0.57490  0.23970  0.39920  Biso   1.000  N
  N8       1.0000 0.42510  0.76030  0.60080  Biso   1.000  N
  N9       1.0000 0.35300  0.44900  0.33880  Biso   1.000  N
  N10      1.0000 0.64700  0.55100  0.66120  Biso   1.000  N
  N11      1.0000 0.32970  0.50740  0.17350  Biso   1.000  N
  N12      1.0000 0.67030  0.49260  0.82650  Biso   1.000  N
  S1       1.0000 0.79360  0.80250  0.20592  Biso   1.000  S
  S2       1.0000 0.20640  0.19750  0.79408  Biso   1.000  S
  C35      1.0000 0.73310  0.92920  0.13310  Biso   1.000  C
  C36      1.0000 0.26690  0.07080  0.86690  Biso   1.000  C
  H25      1.0000 0.84270  0.95540  0.10610  Biso   1.000  H
  H26      1.0000 0.15730  0.04460  0.89390  Biso   1.000  H
  H27      1.0000 0.66380  0.00100  0.15920  Biso   1.000  H
  H28      1.0000 0.33620  0.99900  0.84080  Biso   1.000  H
  H29      1.0000 0.65980  0.90010  0.09420  Biso   1.000  H
  H30      1.0000 0.34020  0.09990  0.90580  Biso   1.000  H
  C37      1.0000 0.56780  0.78020  0.24230  Biso   1.000  C
  C38      1.0000 0.43220  0.21980  0.75770  Biso   1.000  C
  H31      1.0000 0.57340  0.71210  0.28410  Biso   1.000  H
  H32      1.0000 0.42660  0.28790  0.71590  Biso   1.000  H
  H33      1.0000 0.50140  0.75780  0.19870  Biso   1.000  H
  H34      1.0000 0.49860  0.24220  0.80130  Biso   1.000  H
  H35      1.0000 0.50610  0.85870  0.26370  Biso   1.000  H
  H36      1.0000 0.49390  0.14130  0.73630  Biso   1.000  H
  O1       1.0000 0.87920  0.86000  0.27390  Biso   1.000  O
  O2       1.0000 0.12080  0.14000  0.72610  Biso   1.000  O
