data_image0
_cell_length_a       11.459
_cell_length_b       9.7078
_cell_length_c       13.468
_cell_angle_alpha    90
_cell_angle_beta     90
_cell_angle_gamma    90

_symmetry_space_group_name_H-M    "P 1"
_symmetry_int_tables_number       1

loop_
  _symmetry_equiv_pos_as_xyz
  'x, y, z'

loop_
  _atom_site_label
  _atom_site_occupancy
  _atom_site_fract_x
  _atom_site_fract_y
  _atom_site_fract_z
  _atom_site_thermal_displace_type
  _atom_site_B_iso_or_equiv
  _atom_site_type_symbol
  Cu1      1.0000 0.46639  0.57377  0.60884  Biso   1.000  Cu
  Cu2      1.0000 0.96639  0.57377  0.89116  Biso   1.000  Cu
  Cu3      1.0000 0.46639  0.92623  0.10884  Biso   1.000  Cu
  Cu4      1.0000 0.03361  0.07377  0.60884  Biso   1.000  Cu
  Cu5      1.0000 0.53361  0.42623  0.39116  Biso   1.000  Cu
  Cu6      1.0000 0.03361  0.42623  0.10884  Biso   1.000  Cu
  Cu7      1.0000 0.53361  0.07377  0.89116  Biso   1.000  Cu
  Cu8      1.0000 0.96639  0.92623  0.39116  Biso   1.000  Cu
  Br1      1.0000 0.50724  0.68412  0.44811  Biso   1.000  Br
  Br2      1.0000 0.00724  0.68412  0.05189  Biso   1.000  Br
  Br3      1.0000 0.50724  0.81588  0.94811  Biso   1.000  Br
  Br4      1.0000 0.99276  0.18412  0.44811  Biso   1.000  Br
  Br5      1.0000 0.49276  0.31588  0.55189  Biso   1.000  Br
  Br6      1.0000 0.99276  0.31588  0.94811  Biso   1.000  Br
  Br7      1.0000 0.49276  0.18412  0.05189  Biso   1.000  Br
  Br8      1.0000 0.00724  0.81588  0.55189  Biso   1.000  Br
  N1       1.0000 0.60500  0.59550  0.70725  Biso   1.000  N
  N2       1.0000 0.10500  0.59550  0.79275  Biso   1.000  N
  N3       1.0000 0.60500  0.90450  0.20725  Biso   1.000  N
  N4       1.0000 0.89500  0.09550  0.70725  Biso   1.000  N
  N5       1.0000 0.39500  0.40450  0.29275  Biso   1.000  N
  N6       1.0000 0.89500  0.40450  0.20725  Biso   1.000  N
  N7       1.0000 0.39500  0.09550  0.79275  Biso   1.000  N
  N8       1.0000 0.10500  0.90450  0.29275  Biso   1.000  N
  C1       1.0000 0.60950  0.53070  0.79510  Biso   1.000  C
  C2       1.0000 0.10950  0.53070  0.70490  Biso   1.000  C
  C3       1.0000 0.60950  0.96930  0.29510  Biso   1.000  C
  C4       1.0000 0.89050  0.03070  0.79510  Biso   1.000  C
  C5       1.0000 0.39050  0.46930  0.20490  Biso   1.000  C
  C6       1.0000 0.89050  0.46930  0.29510  Biso   1.000  C
  C7       1.0000 0.39050  0.03070  0.70490  Biso   1.000  C
  C8       1.0000 0.10950  0.96930  0.20490  Biso   1.000  C
  C9       1.0000 0.70880  0.54060  0.85610  Biso   1.000  C
  C10      1.0000 0.20880  0.54060  0.64390  Biso   1.000  C
  C11      1.0000 0.70880  0.95940  0.35610  Biso   1.000  C
  C12      1.0000 0.79120  0.04060  0.85610  Biso   1.000  C
  C13      1.0000 0.29120  0.45940  0.14390  Biso   1.000  C
  C14      1.0000 0.79120  0.45940  0.35610  Biso   1.000  C
  C15      1.0000 0.29120  0.04060  0.64390  Biso   1.000  C
  C16      1.0000 0.20880  0.95940  0.14390  Biso   1.000  C
  N9       1.0000 0.80460  0.60800  0.82603  Biso   1.000  N
  N10      1.0000 0.30460  0.60800  0.67397  Biso   1.000  N
  N11      1.0000 0.80460  0.89200  0.32603  Biso   1.000  N
  N12      1.0000 0.69540  0.10800  0.82603  Biso   1.000  N
  N13      1.0000 0.19540  0.39200  0.17397  Biso   1.000  N
  N14      1.0000 0.69540  0.39200  0.32603  Biso   1.000  N
  N15      1.0000 0.19540  0.10800  0.67397  Biso   1.000  N
  N16      1.0000 0.30460  0.89200  0.17397  Biso   1.000  N
  C17      1.0000 0.79770  0.67440  0.73820  Biso   1.000  C
  C18      1.0000 0.29770  0.67440  0.76180  Biso   1.000  C
  C19      1.0000 0.79770  0.82560  0.23820  Biso   1.000  C
  C20      1.0000 0.70230  0.17440  0.73820  Biso   1.000  C
  C21      1.0000 0.20230  0.32560  0.26180  Biso   1.000  C
  C22      1.0000 0.70230  0.32560  0.23820  Biso   1.000  C
  C23      1.0000 0.20230  0.17440  0.76180  Biso   1.000  C
  C24      1.0000 0.29770  0.82560  0.26180  Biso   1.000  C
  H1       1.0000 0.86180  0.72420  0.71580  Biso   1.000  H
  H2       1.0000 0.36180  0.72420  0.78420  Biso   1.000  H
  H3       1.0000 0.86180  0.77580  0.21580  Biso   1.000  H
  H4       1.0000 0.63820  0.22420  0.71580  Biso   1.000  H
  H5       1.0000 0.13820  0.27580  0.28420  Biso   1.000  H
  H6       1.0000 0.63820  0.27580  0.21580  Biso   1.000  H
  H7       1.0000 0.13820  0.22420  0.78420  Biso   1.000  H
  H8       1.0000 0.36180  0.77580  0.28420  Biso   1.000  H
  C25      1.0000 0.69880  0.67020  0.68120  Biso   1.000  C
  C26      1.0000 0.19880  0.67020  0.81880  Biso   1.000  C
  C27      1.0000 0.69880  0.82980  0.18120  Biso   1.000  C
  C28      1.0000 0.80120  0.17020  0.68120  Biso   1.000  C
  C29      1.0000 0.30120  0.32980  0.31880  Biso   1.000  C
  C30      1.0000 0.80120  0.32980  0.18120  Biso   1.000  C
  C31      1.0000 0.30120  0.17020  0.81880  Biso   1.000  C
  C32      1.0000 0.19880  0.82980  0.31880  Biso   1.000  C
  H9       1.0000 0.69650  0.72080  0.62250  Biso   1.000  H
  H10      1.0000 0.19650  0.72080  0.87750  Biso   1.000  H
  H11      1.0000 0.69650  0.77920  0.12250  Biso   1.000  H
  H12      1.0000 0.80350  0.22080  0.62250  Biso   1.000  H
  H13      1.0000 0.30350  0.27920  0.37750  Biso   1.000  H
  H14      1.0000 0.80350  0.27920  0.12250  Biso   1.000  H
  H15      1.0000 0.30350  0.22080  0.87750  Biso   1.000  H
  H16      1.0000 0.19650  0.77920  0.37750  Biso   1.000  H
  C33      1.0000 0.50680  0.44610  0.82500  Biso   1.000  C
  C34      1.0000 0.00680  0.44610  0.67500  Biso   1.000  C
  C35      1.0000 0.50680  0.05390  0.32500  Biso   1.000  C
  C36      1.0000 0.99320  0.94610  0.82500  Biso   1.000  C
  C37      1.0000 0.49320  0.55390  0.17500  Biso   1.000  C
  C38      1.0000 0.99320  0.55390  0.32500  Biso   1.000  C
  C39      1.0000 0.49320  0.94610  0.67500  Biso   1.000  C
  C40      1.0000 0.00680  0.05390  0.17500  Biso   1.000  C
  H17      1.0000 0.45920  0.49770  0.87040  Biso   1.000  H
  H18      1.0000 0.95920  0.49770  0.62960  Biso   1.000  H
  H19      1.0000 0.45920  0.00230  0.37040  Biso   1.000  H
  H20      1.0000 0.04080  0.99770  0.87040  Biso   1.000  H
  H21      1.0000 0.54080  0.50230  0.12960  Biso   1.000  H
  H22      1.0000 0.04080  0.50230  0.37040  Biso   1.000  H
  H23      1.0000 0.54080  0.99770  0.62960  Biso   1.000  H
  H24      1.0000 0.95920  0.00230  0.12960  Biso   1.000  H
  H25      1.0000 0.53330  0.36320  0.85680  Biso   1.000  H
  H26      1.0000 0.03330  0.36320  0.64320  Biso   1.000  H
  H27      1.0000 0.53330  0.13680  0.35680  Biso   1.000  H
  H28      1.0000 0.96670  0.86320  0.85680  Biso   1.000  H
  H29      1.0000 0.46670  0.63680  0.14320  Biso   1.000  H
  H30      1.0000 0.96670  0.63680  0.35680  Biso   1.000  H
  H31      1.0000 0.46670  0.86320  0.64320  Biso   1.000  H
  H32      1.0000 0.03330  0.13680  0.14320  Biso   1.000  H
  H33      1.0000 0.46190  0.42290  0.76720  Biso   1.000  H
  H34      1.0000 0.96190  0.42290  0.73280  Biso   1.000  H
  H35      1.0000 0.46190  0.07710  0.26720  Biso   1.000  H
  H36      1.0000 0.03810  0.92290  0.76720  Biso   1.000  H
  H37      1.0000 0.53810  0.57710  0.23280  Biso   1.000  H
  H38      1.0000 0.03810  0.57710  0.26720  Biso   1.000  H
  H39      1.0000 0.53810  0.92290  0.73280  Biso   1.000  H
  H40      1.0000 0.96190  0.07710  0.23280  Biso   1.000  H
  C41      1.0000 0.71010  0.47990  0.95780  Biso   1.000  C
  C42      1.0000 0.21010  0.47990  0.54220  Biso   1.000  C
  C43      1.0000 0.71010  0.02010  0.45780  Biso   1.000  C
  C44      1.0000 0.78990  0.97990  0.95780  Biso   1.000  C
  C45      1.0000 0.28990  0.52010  0.04220  Biso   1.000  C
  C46      1.0000 0.78990  0.52010  0.45780  Biso   1.000  C
  C47      1.0000 0.28990  0.97990  0.54220  Biso   1.000  C
  C48      1.0000 0.21010  0.02010  0.04220  Biso   1.000  C
  H41      1.0000 0.77390  0.51810  0.99490  Biso   1.000  H
  H42      1.0000 0.27390  0.51810  0.50510  Biso   1.000  H
  H43      1.0000 0.77390  0.98190  0.49490  Biso   1.000  H
  H44      1.0000 0.72610  0.01810  0.99490  Biso   1.000  H
  H45      1.0000 0.22610  0.48190  0.00510  Biso   1.000  H
  H46      1.0000 0.72610  0.48190  0.49490  Biso   1.000  H
  H47      1.0000 0.22610  0.01810  0.50510  Biso   1.000  H
  H48      1.0000 0.27390  0.98190  0.00510  Biso   1.000  H
  H49      1.0000 0.71930  0.38180  0.95310  Biso   1.000  H
  H50      1.0000 0.21930  0.38180  0.54690  Biso   1.000  H
  H51      1.0000 0.71930  0.11820  0.45310  Biso   1.000  H
  H52      1.0000 0.78070  0.88180  0.95310  Biso   1.000  H
  H53      1.0000 0.28070  0.61820  0.04690  Biso   1.000  H
  H54      1.0000 0.78070  0.61820  0.45310  Biso   1.000  H
  H55      1.0000 0.28070  0.88180  0.54690  Biso   1.000  H
  H56      1.0000 0.21930  0.11820  0.04690  Biso   1.000  H
  H57      1.0000 0.63800  0.50070  0.99070  Biso   1.000  H
  H58      1.0000 0.13800  0.50070  0.50930  Biso   1.000  H
  H59      1.0000 0.63800  0.99930  0.49070  Biso   1.000  H
  H60      1.0000 0.86200  0.00070  0.99070  Biso   1.000  H
  H61      1.0000 0.36200  0.49930  0.00930  Biso   1.000  H
  H62      1.0000 0.86200  0.49930  0.49070  Biso   1.000  H
  H63      1.0000 0.36200  0.00070  0.50930  Biso   1.000  H
  H64      1.0000 0.13800  0.99930  0.00930  Biso   1.000  H
