data_image0
_cell_length_a       16.48
_cell_length_b       28.321
_cell_length_c       12.969
_cell_angle_alpha    90
_cell_angle_beta     110.28
_cell_angle_gamma    90

_symmetry_space_group_name_H-M    "P 1"
_symmetry_int_tables_number       1

loop_
  _symmetry_equiv_pos_as_xyz
  'x, y, z'

loop_
  _atom_site_label
  _atom_site_occupancy
  _atom_site_fract_x
  _atom_site_fract_y
  _atom_site_fract_z
  _atom_site_thermal_displace_type
  _atom_site_B_iso_or_equiv
  _atom_site_type_symbol
  Cu1      1.0000 0.00000  0.21310  0.50000  Biso   1.000  Cu
  Cu2      1.0000 0.50000  0.71310  0.50000  Biso   1.000  Cu
  Cu3      1.0000 0.00000  0.78690  0.50000  Biso   1.000  Cu
  Cu4      1.0000 0.50000  0.28690  0.50000  Biso   1.000  Cu
  P1       1.0000 0.11411  0.24771  0.63010  Biso   1.000  P
  P2       1.0000 0.61411  0.74771  0.63010  Biso   1.000  P
  P3       1.0000 0.11411  0.75229  0.63010  Biso   1.000  P
  P4       1.0000 0.61411  0.25229  0.63010  Biso   1.000  P
  P5       1.0000 0.88589  0.75229  0.36990  Biso   1.000  P
  P6       1.0000 0.38589  0.25229  0.36990  Biso   1.000  P
  P7       1.0000 0.88589  0.24771  0.36990  Biso   1.000  P
  P8       1.0000 0.38589  0.74771  0.36990  Biso   1.000  P
  S1       1.0000 0.40731  0.35363  0.65170  Biso   1.000  S
  S2       1.0000 0.90731  0.85363  0.65170  Biso   1.000  S
  S3       1.0000 0.40731  0.64637  0.65170  Biso   1.000  S
  S4       1.0000 0.90731  0.14637  0.65170  Biso   1.000  S
  S5       1.0000 0.59269  0.64637  0.34830  Biso   1.000  S
  S6       1.0000 0.09269  0.14637  0.34830  Biso   1.000  S
  S7       1.0000 0.59269  0.35363  0.34830  Biso   1.000  S
  S8       1.0000 0.09269  0.85363  0.34830  Biso   1.000  S
  O1       1.0000 0.40460  0.40440  0.65990  Biso   1.000  O
  O2       1.0000 0.90460  0.90440  0.65990  Biso   1.000  O
  O3       1.0000 0.40460  0.59560  0.65990  Biso   1.000  O
  O4       1.0000 0.90460  0.09560  0.65990  Biso   1.000  O
  O5       1.0000 0.59540  0.59560  0.34010  Biso   1.000  O
  O6       1.0000 0.09540  0.09560  0.34010  Biso   1.000  O
  O7       1.0000 0.59540  0.40440  0.34010  Biso   1.000  O
  O8       1.0000 0.09540  0.90440  0.34010  Biso   1.000  O
  O9       1.0000 0.43700  0.33080  0.75700  Biso   1.000  O
  O10      1.0000 0.93700  0.83080  0.75700  Biso   1.000  O
  O11      1.0000 0.43700  0.66920  0.75700  Biso   1.000  O
  O12      1.0000 0.93700  0.16920  0.75700  Biso   1.000  O
  O13      1.0000 0.56300  0.66920  0.24300  Biso   1.000  O
  O14      1.0000 0.06300  0.16920  0.24300  Biso   1.000  O
  O15      1.0000 0.56300  0.33080  0.24300  Biso   1.000  O
  O16      1.0000 0.06300  0.83080  0.24300  Biso   1.000  O
  O17      1.0000 0.45390  0.34170  0.57910  Biso   1.000  O
  O18      1.0000 0.95390  0.84170  0.57910  Biso   1.000  O
  O19      1.0000 0.45390  0.65830  0.57910  Biso   1.000  O
  O20      1.0000 0.95390  0.15830  0.57910  Biso   1.000  O
  O21      1.0000 0.54610  0.65830  0.42090  Biso   1.000  O
  O22      1.0000 0.04610  0.15830  0.42090  Biso   1.000  O
  O23      1.0000 0.54610  0.34170  0.42090  Biso   1.000  O
  O24      1.0000 0.04610  0.84170  0.42090  Biso   1.000  O
  C1       1.0000 0.17740  0.28660  0.57550  Biso   1.000  C
  C2       1.0000 0.67740  0.78660  0.57550  Biso   1.000  C
  C3       1.0000 0.17740  0.71340  0.57550  Biso   1.000  C
  C4       1.0000 0.67740  0.21340  0.57550  Biso   1.000  C
  C5       1.0000 0.82260  0.71340  0.42450  Biso   1.000  C
  C6       1.0000 0.32260  0.21340  0.42450  Biso   1.000  C
  C7       1.0000 0.82260  0.28660  0.42450  Biso   1.000  C
  C8       1.0000 0.32260  0.78660  0.42450  Biso   1.000  C
  C9       1.0000 0.26360  0.29980  0.62870  Biso   1.000  C
  C10      1.0000 0.76360  0.79980  0.62870  Biso   1.000  C
  C11      1.0000 0.26360  0.70020  0.62870  Biso   1.000  C
  C12      1.0000 0.76360  0.20020  0.62870  Biso   1.000  C
  C13      1.0000 0.73640  0.70020  0.37130  Biso   1.000  C
  C14      1.0000 0.23640  0.20020  0.37130  Biso   1.000  C
  C15      1.0000 0.73640  0.29980  0.37130  Biso   1.000  C
  C16      1.0000 0.23640  0.79980  0.37130  Biso   1.000  C
  H1       1.0000 0.29690  0.28480  0.69340  Biso   1.000  H
  H2       1.0000 0.79690  0.78480  0.69340  Biso   1.000  H
  H3       1.0000 0.29690  0.71520  0.69340  Biso   1.000  H
  H4       1.0000 0.79690  0.21520  0.69340  Biso   1.000  H
  H5       1.0000 0.70310  0.71520  0.30660  Biso   1.000  H
  H6       1.0000 0.20310  0.21520  0.30660  Biso   1.000  H
  H7       1.0000 0.70310  0.28480  0.30660  Biso   1.000  H
  H8       1.0000 0.20310  0.78480  0.30660  Biso   1.000  H
  C17      1.0000 0.29890  0.33520  0.58410  Biso   1.000  C
  C18      1.0000 0.79890  0.83520  0.58410  Biso   1.000  C
  C19      1.0000 0.29890  0.66480  0.58410  Biso   1.000  C
  C20      1.0000 0.79890  0.16480  0.58410  Biso   1.000  C
  C21      1.0000 0.70110  0.66480  0.41590  Biso   1.000  C
  C22      1.0000 0.20110  0.16480  0.41590  Biso   1.000  C
  C23      1.0000 0.70110  0.33520  0.41590  Biso   1.000  C
  C24      1.0000 0.20110  0.83520  0.41590  Biso   1.000  C
  C25      1.0000 0.25100  0.35860  0.48910  Biso   1.000  C
  C26      1.0000 0.75100  0.85860  0.48910  Biso   1.000  C
  C27      1.0000 0.25100  0.64140  0.48910  Biso   1.000  C
  C28      1.0000 0.75100  0.14140  0.48910  Biso   1.000  C
  C29      1.0000 0.74900  0.64140  0.51090  Biso   1.000  C
  C30      1.0000 0.24900  0.14140  0.51090  Biso   1.000  C
  C31      1.0000 0.74900  0.35860  0.51090  Biso   1.000  C
  C32      1.0000 0.24900  0.85860  0.51090  Biso   1.000  C
  H9       1.0000 0.27550  0.38300  0.46200  Biso   1.000  H
  H10      1.0000 0.77550  0.88300  0.46200  Biso   1.000  H
  H11      1.0000 0.27550  0.61700  0.46200  Biso   1.000  H
  H12      1.0000 0.77550  0.11700  0.46200  Biso   1.000  H
  H13      1.0000 0.72450  0.61700  0.53800  Biso   1.000  H
  H14      1.0000 0.22450  0.11700  0.53800  Biso   1.000  H
  H15      1.0000 0.72450  0.38300  0.53800  Biso   1.000  H
  H16      1.0000 0.22450  0.88300  0.53800  Biso   1.000  H
  C33      1.0000 0.16800  0.34550  0.43590  Biso   1.000  C
  C34      1.0000 0.66800  0.84550  0.43590  Biso   1.000  C
  C35      1.0000 0.16800  0.65450  0.43590  Biso   1.000  C
  C36      1.0000 0.66800  0.15450  0.43590  Biso   1.000  C
  C37      1.0000 0.83200  0.65450  0.56410  Biso   1.000  C
  C38      1.0000 0.33200  0.15450  0.56410  Biso   1.000  C
  C39      1.0000 0.83200  0.34550  0.56410  Biso   1.000  C
  C40      1.0000 0.33200  0.84550  0.56410  Biso   1.000  C
  H17      1.0000 0.13590  0.36030  0.37050  Biso   1.000  H
  H18      1.0000 0.63590  0.86030  0.37050  Biso   1.000  H
  H19      1.0000 0.13590  0.63970  0.37050  Biso   1.000  H
  H20      1.0000 0.63590  0.13970  0.37050  Biso   1.000  H
  H21      1.0000 0.86410  0.63970  0.62950  Biso   1.000  H
  H22      1.0000 0.36410  0.13970  0.62950  Biso   1.000  H
  H23      1.0000 0.86410  0.36030  0.62950  Biso   1.000  H
  H24      1.0000 0.36410  0.86030  0.62950  Biso   1.000  H
  C41      1.0000 0.12980  0.30970  0.47830  Biso   1.000  C
  C42      1.0000 0.62980  0.80970  0.47830  Biso   1.000  C
  C43      1.0000 0.12980  0.69030  0.47830  Biso   1.000  C
  C44      1.0000 0.62980  0.19030  0.47830  Biso   1.000  C
  C45      1.0000 0.87020  0.69030  0.52170  Biso   1.000  C
  C46      1.0000 0.37020  0.19030  0.52170  Biso   1.000  C
  C47      1.0000 0.87020  0.30970  0.52170  Biso   1.000  C
  C48      1.0000 0.37020  0.80970  0.52170  Biso   1.000  C
  H25      1.0000 0.07250  0.30130  0.44150  Biso   1.000  H
  H26      1.0000 0.57250  0.80130  0.44150  Biso   1.000  H
  H27      1.0000 0.07250  0.69870  0.44150  Biso   1.000  H
  H28      1.0000 0.57250  0.19870  0.44150  Biso   1.000  H
  H29      1.0000 0.92750  0.69870  0.55850  Biso   1.000  H
  H30      1.0000 0.42750  0.19870  0.55850  Biso   1.000  H
  H31      1.0000 0.92750  0.30130  0.55850  Biso   1.000  H
  H32      1.0000 0.42750  0.80130  0.55850  Biso   1.000  H
  S9       1.0000 0.24100  0.07196  0.79000  Biso   1.000  S
  S10      1.0000 0.74100  0.57196  0.79000  Biso   1.000  S
  S11      1.0000 0.24100  0.92804  0.79000  Biso   1.000  S
  S12      1.0000 0.74100  0.42804  0.79000  Biso   1.000  S
  S13      1.0000 0.75900  0.92804  0.21000  Biso   1.000  S
  S14      1.0000 0.25900  0.42804  0.21000  Biso   1.000  S
  S15      1.0000 0.75900  0.07196  0.21000  Biso   1.000  S
  S16      1.0000 0.25900  0.57196  0.21000  Biso   1.000  S
  O25      1.0000 0.20640  0.05650  0.86980  Biso   1.000  O
  O26      1.0000 0.70640  0.55650  0.86980  Biso   1.000  O
  O27      1.0000 0.20640  0.94350  0.86980  Biso   1.000  O
  O28      1.0000 0.70640  0.44350  0.86980  Biso   1.000  O
  O29      1.0000 0.79360  0.94350  0.13020  Biso   1.000  O
  O30      1.0000 0.29360  0.44350  0.13020  Biso   1.000  O
  O31      1.0000 0.79360  0.05650  0.13020  Biso   1.000  O
  O32      1.0000 0.29360  0.55650  0.13020  Biso   1.000  O
  O33      1.0000 0.31810  0.05210  0.85280  Biso   1.000  O
  O34      1.0000 0.81810  0.55210  0.85280  Biso   1.000  O
  O35      1.0000 0.31810  0.94790  0.85280  Biso   1.000  O
  O36      1.0000 0.81810  0.44790  0.85280  Biso   1.000  O
  O37      1.0000 0.68190  0.94790  0.14720  Biso   1.000  O
  O38      1.0000 0.18190  0.44790  0.14720  Biso   1.000  O
  O39      1.0000 0.68190  0.05210  0.14720  Biso   1.000  O
  O40      1.0000 0.18190  0.55210  0.14720  Biso   1.000  O
  O41      1.0000 0.19090  0.06110  0.68380  Biso   1.000  O
  O42      1.0000 0.69090  0.56110  0.68380  Biso   1.000  O
  O43      1.0000 0.19090  0.93890  0.68380  Biso   1.000  O
  O44      1.0000 0.69090  0.43890  0.68380  Biso   1.000  O
  O45      1.0000 0.80910  0.93890  0.31620  Biso   1.000  O
  O46      1.0000 0.30910  0.43890  0.31620  Biso   1.000  O
  O47      1.0000 0.80910  0.06110  0.31620  Biso   1.000  O
  O48      1.0000 0.30910  0.56110  0.31620  Biso   1.000  O
  C49      1.0000 0.18970  0.21110  0.73510  Biso   1.000  C
  C50      1.0000 0.68970  0.71110  0.73510  Biso   1.000  C
  C51      1.0000 0.18970  0.78890  0.73510  Biso   1.000  C
  C52      1.0000 0.68970  0.28890  0.73510  Biso   1.000  C
  C53      1.0000 0.81030  0.78890  0.26490  Biso   1.000  C
  C54      1.0000 0.31030  0.28890  0.26490  Biso   1.000  C
  C55      1.0000 0.81030  0.21110  0.26490  Biso   1.000  C
  C56      1.0000 0.31030  0.71110  0.26490  Biso   1.000  C
  C57      1.0000 0.18770  0.16250  0.72310  Biso   1.000  C
  C58      1.0000 0.68770  0.66250  0.72310  Biso   1.000  C
  C59      1.0000 0.18770  0.83750  0.72310  Biso   1.000  C
  C60      1.0000 0.68770  0.33750  0.72310  Biso   1.000  C
  C61      1.0000 0.81230  0.83750  0.27690  Biso   1.000  C
  C62      1.0000 0.31230  0.33750  0.27690  Biso   1.000  C
  C63      1.0000 0.81230  0.16250  0.27690  Biso   1.000  C
  C64      1.0000 0.31230  0.66250  0.27690  Biso   1.000  C
  H33      1.0000 0.14850  0.14860  0.66070  Biso   1.000  H
  H34      1.0000 0.64850  0.64860  0.66070  Biso   1.000  H
  H35      1.0000 0.14850  0.85140  0.66070  Biso   1.000  H
  H36      1.0000 0.64850  0.35140  0.66070  Biso   1.000  H
  H37      1.0000 0.85150  0.85140  0.33930  Biso   1.000  H
  H38      1.0000 0.35150  0.35140  0.33930  Biso   1.000  H
  H39      1.0000 0.85150  0.14860  0.33930  Biso   1.000  H
  H40      1.0000 0.35150  0.64860  0.33930  Biso   1.000  H
  C65      1.0000 0.24400  0.13470  0.80390  Biso   1.000  C
  C66      1.0000 0.74400  0.63470  0.80390  Biso   1.000  C
  C67      1.0000 0.24400  0.86530  0.80390  Biso   1.000  C
  C68      1.0000 0.74400  0.36530  0.80390  Biso   1.000  C
  C69      1.0000 0.75600  0.86530  0.19610  Biso   1.000  C
  C70      1.0000 0.25600  0.36530  0.19610  Biso   1.000  C
  C71      1.0000 0.75600  0.13470  0.19610  Biso   1.000  C
  C72      1.0000 0.25600  0.63470  0.19610  Biso   1.000  C
  C73      1.0000 0.30050  0.15410  0.89750  Biso   1.000  C
  C74      1.0000 0.80050  0.65410  0.89750  Biso   1.000  C
  C75      1.0000 0.30050  0.84590  0.89750  Biso   1.000  C
  C76      1.0000 0.80050  0.34590  0.89750  Biso   1.000  C
  C77      1.0000 0.69950  0.84590  0.10250  Biso   1.000  C
  C78      1.0000 0.19950  0.34590  0.10250  Biso   1.000  C
  C79      1.0000 0.69950  0.15410  0.10250  Biso   1.000  C
  C80      1.0000 0.19950  0.65410  0.10250  Biso   1.000  C
  H41      1.0000 0.33830  0.13480  0.95070  Biso   1.000  H
  H42      1.0000 0.83830  0.63480  0.95070  Biso   1.000  H
  H43      1.0000 0.33830  0.86520  0.95070  Biso   1.000  H
  H44      1.0000 0.83830  0.36520  0.95070  Biso   1.000  H
  H45      1.0000 0.66170  0.86520  0.04930  Biso   1.000  H
  H46      1.0000 0.16170  0.36520  0.04930  Biso   1.000  H
  H47      1.0000 0.66170  0.13480  0.04930  Biso   1.000  H
  H48      1.0000 0.16170  0.63480  0.04930  Biso   1.000  H
  C81      1.0000 0.30150  0.20180  0.91310  Biso   1.000  C
  C82      1.0000 0.80150  0.70180  0.91310  Biso   1.000  C
  C83      1.0000 0.30150  0.79820  0.91310  Biso   1.000  C
  C84      1.0000 0.80150  0.29820  0.91310  Biso   1.000  C
  C85      1.0000 0.69850  0.79820  0.08690  Biso   1.000  C
  C86      1.0000 0.19850  0.29820  0.08690  Biso   1.000  C
  C87      1.0000 0.69850  0.20180  0.08690  Biso   1.000  C
  C88      1.0000 0.19850  0.70180  0.08690  Biso   1.000  C
  H49      1.0000 0.33920  0.21500  0.97760  Biso   1.000  H
  H50      1.0000 0.83920  0.71500  0.97760  Biso   1.000  H
  H51      1.0000 0.33920  0.78500  0.97760  Biso   1.000  H
  H52      1.0000 0.83920  0.28500  0.97760  Biso   1.000  H
  H53      1.0000 0.66080  0.78500  0.02240  Biso   1.000  H
  H54      1.0000 0.16080  0.28500  0.02240  Biso   1.000  H
  H55      1.0000 0.66080  0.21500  0.02240  Biso   1.000  H
  H56      1.0000 0.16080  0.71500  0.02240  Biso   1.000  H
  C89      1.0000 0.24600  0.23080  0.83250  Biso   1.000  C
  C90      1.0000 0.74600  0.73080  0.83250  Biso   1.000  C
  C91      1.0000 0.24600  0.76920  0.83250  Biso   1.000  C
  C92      1.0000 0.74600  0.26920  0.83250  Biso   1.000  C
  C93      1.0000 0.75400  0.76920  0.16750  Biso   1.000  C
  C94      1.0000 0.25400  0.26920  0.16750  Biso   1.000  C
  C95      1.0000 0.75400  0.23080  0.16750  Biso   1.000  C
  C96      1.0000 0.25400  0.73080  0.16750  Biso   1.000  C
  H57      1.0000 0.24650  0.26320  0.84350  Biso   1.000  H
  H58      1.0000 0.74650  0.76320  0.84350  Biso   1.000  H
  H59      1.0000 0.24650  0.73680  0.84350  Biso   1.000  H
  H60      1.0000 0.74650  0.23680  0.84350  Biso   1.000  H
  H61      1.0000 0.75350  0.73680  0.15650  Biso   1.000  H
  H62      1.0000 0.25350  0.23680  0.15650  Biso   1.000  H
  H63      1.0000 0.75350  0.26320  0.15650  Biso   1.000  H
  H64      1.0000 0.25350  0.76320  0.15650  Biso   1.000  H
  S17      1.0000 0.06740  0.42598  0.77820  Biso   1.000  S
  S18      1.0000 0.56740  0.92598  0.77820  Biso   1.000  S
  S19      1.0000 0.06740  0.57402  0.77820  Biso   1.000  S
  S20      1.0000 0.56740  0.07402  0.77820  Biso   1.000  S
  S21      1.0000 0.93260  0.57402  0.22180  Biso   1.000  S
  S22      1.0000 0.43260  0.07402  0.22180  Biso   1.000  S
  S23      1.0000 0.93260  0.42598  0.22180  Biso   1.000  S
  S24      1.0000 0.43260  0.92598  0.22180  Biso   1.000  S
  O49      1.0000 0.98700  0.44460  0.72290  Biso   1.000  O
  O50      1.0000 0.48700  0.94460  0.72290  Biso   1.000  O
  O51      1.0000 0.98700  0.55540  0.72290  Biso   1.000  O
  O52      1.0000 0.48700  0.05540  0.72290  Biso   1.000  O
  O53      1.0000 0.01300  0.55540  0.27710  Biso   1.000  O
  O54      1.0000 0.51300  0.05540  0.27710  Biso   1.000  O
  O55      1.0000 0.01300  0.44460  0.27710  Biso   1.000  O
  O56      1.0000 0.51300  0.94460  0.27710  Biso   1.000  O
  O57      1.0000 0.11060  0.43510  0.70930  Biso   1.000  O
  O58      1.0000 0.61060  0.93510  0.70930  Biso   1.000  O
  O59      1.0000 0.11060  0.56490  0.70930  Biso   1.000  O
  O60      1.0000 0.61060  0.06490  0.70930  Biso   1.000  O
  O61      1.0000 0.88940  0.56490  0.29070  Biso   1.000  O
  O62      1.0000 0.38940  0.06490  0.29070  Biso   1.000  O
  O63      1.0000 0.88940  0.43510  0.29070  Biso   1.000  O
  O64      1.0000 0.38940  0.93510  0.29070  Biso   1.000  O
  O65      1.0000 0.08630  0.44060  0.89470  Biso   1.000  O
  O66      1.0000 0.58630  0.94060  0.89470  Biso   1.000  O
  O67      1.0000 0.08630  0.55940  0.89470  Biso   1.000  O
  O68      1.0000 0.58630  0.05940  0.89470  Biso   1.000  O
  O69      1.0000 0.91370  0.55940  0.10530  Biso   1.000  O
  O70      1.0000 0.41370  0.05940  0.10530  Biso   1.000  O
  O71      1.0000 0.91370  0.44060  0.10530  Biso   1.000  O
  O72      1.0000 0.41370  0.94060  0.10530  Biso   1.000  O
  C97      1.0000 0.07840  0.28800  0.71600  Biso   1.000  C
  C98      1.0000 0.57840  0.78800  0.71600  Biso   1.000  C
  C99      1.0000 0.07840  0.71200  0.71600  Biso   1.000  C
  C100     1.0000 0.57840  0.21200  0.71600  Biso   1.000  C
  C101     1.0000 0.92160  0.71200  0.28400  Biso   1.000  C
  C102     1.0000 0.42160  0.21200  0.28400  Biso   1.000  C
  C103     1.0000 0.92160  0.28800  0.28400  Biso   1.000  C
  C104     1.0000 0.42160  0.78800  0.28400  Biso   1.000  C
  C105     1.0000 0.09080  0.33660  0.71710  Biso   1.000  C
  C106     1.0000 0.59080  0.83660  0.71710  Biso   1.000  C
  C107     1.0000 0.09080  0.66340  0.71710  Biso   1.000  C
  C108     1.0000 0.59080  0.16340  0.71710  Biso   1.000  C
  C109     1.0000 0.90920  0.66340  0.28290  Biso   1.000  C
  C110     1.0000 0.40920  0.16340  0.28290  Biso   1.000  C
  C111     1.0000 0.90920  0.33660  0.28290  Biso   1.000  C
  C112     1.0000 0.40920  0.83660  0.28290  Biso   1.000  C
  H65      1.0000 0.12190  0.35010  0.67690  Biso   1.000  H
  H66      1.0000 0.62190  0.85010  0.67690  Biso   1.000  H
  H67      1.0000 0.12190  0.64990  0.67690  Biso   1.000  H
  H68      1.0000 0.62190  0.14990  0.67690  Biso   1.000  H
  H69      1.0000 0.87810  0.64990  0.32310  Biso   1.000  H
  H70      1.0000 0.37810  0.14990  0.32310  Biso   1.000  H
  H71      1.0000 0.87810  0.35010  0.32310  Biso   1.000  H
  H72      1.0000 0.37810  0.85010  0.32310  Biso   1.000  H
  C113     1.0000 0.05580  0.36490  0.77970  Biso   1.000  C
  C114     1.0000 0.55580  0.86490  0.77970  Biso   1.000  C
  C115     1.0000 0.05580  0.63510  0.77970  Biso   1.000  C
  C116     1.0000 0.55580  0.13510  0.77970  Biso   1.000  C
  C117     1.0000 0.94420  0.63510  0.22030  Biso   1.000  C
  C118     1.0000 0.44420  0.13510  0.22030  Biso   1.000  C
  C119     1.0000 0.94420  0.36490  0.22030  Biso   1.000  C
  C120     1.0000 0.44420  0.86490  0.22030  Biso   1.000  C
  C121     1.0000 0.00990  0.34500  0.83960  Biso   1.000  C
  C122     1.0000 0.50990  0.84500  0.83960  Biso   1.000  C
  C123     1.0000 0.00990  0.65500  0.83960  Biso   1.000  C
  C124     1.0000 0.50990  0.15500  0.83960  Biso   1.000  C
  C125     1.0000 0.99010  0.65500  0.16040  Biso   1.000  C
  C126     1.0000 0.49010  0.15500  0.16040  Biso   1.000  C
  C127     1.0000 0.99010  0.34500  0.16040  Biso   1.000  C
  C128     1.0000 0.49010  0.84500  0.16040  Biso   1.000  C
  H73      1.0000 0.98650  0.36420  0.88040  Biso   1.000  H
  H74      1.0000 0.48650  0.86420  0.88040  Biso   1.000  H
  H75      1.0000 0.98650  0.63580  0.88040  Biso   1.000  H
  H76      1.0000 0.48650  0.13580  0.88040  Biso   1.000  H
  H77      1.0000 0.01350  0.63580  0.11960  Biso   1.000  H
  H78      1.0000 0.51350  0.13580  0.11960  Biso   1.000  H
  H79      1.0000 0.01350  0.36420  0.11960  Biso   1.000  H
  H80      1.0000 0.51350  0.86420  0.11960  Biso   1.000  H
  C129     1.0000 0.99890  0.29790  0.83900  Biso   1.000  C
  C130     1.0000 0.49890  0.79790  0.83900  Biso   1.000  C
  C131     1.0000 0.99890  0.70210  0.83900  Biso   1.000  C
  C132     1.0000 0.49890  0.20210  0.83900  Biso   1.000  C
  C133     1.0000 0.00110  0.70210  0.16100  Biso   1.000  C
  C134     1.0000 0.50110  0.20210  0.16100  Biso   1.000  C
  C135     1.0000 0.00110  0.29790  0.16100  Biso   1.000  C
  C136     1.0000 0.50110  0.79790  0.16100  Biso   1.000  C
  H81      1.0000 0.96770  0.28460  0.87930  Biso   1.000  H
  H82      1.0000 0.46770  0.78460  0.87930  Biso   1.000  H
  H83      1.0000 0.96770  0.71540  0.87930  Biso   1.000  H
  H84      1.0000 0.46770  0.21540  0.87930  Biso   1.000  H
  H85      1.0000 0.03230  0.71540  0.12070  Biso   1.000  H
  H86      1.0000 0.53230  0.21540  0.12070  Biso   1.000  H
  H87      1.0000 0.03230  0.28460  0.12070  Biso   1.000  H
  H88      1.0000 0.53230  0.78460  0.12070  Biso   1.000  H
  C137     1.0000 0.03420  0.26860  0.77800  Biso   1.000  C
  C138     1.0000 0.53420  0.76860  0.77800  Biso   1.000  C
  C139     1.0000 0.03420  0.73140  0.77800  Biso   1.000  C
  C140     1.0000 0.53420  0.23140  0.77800  Biso   1.000  C
  C141     1.0000 0.96580  0.73140  0.22200  Biso   1.000  C
  C142     1.0000 0.46580  0.23140  0.22200  Biso   1.000  C
  C143     1.0000 0.96580  0.26860  0.22200  Biso   1.000  C
  C144     1.0000 0.46580  0.76860  0.22200  Biso   1.000  C
  H89      1.0000 0.02760  0.23600  0.77950  Biso   1.000  H
  H90      1.0000 0.52760  0.73600  0.77950  Biso   1.000  H
  H91      1.0000 0.02760  0.76400  0.77950  Biso   1.000  H
  H92      1.0000 0.52760  0.26400  0.77950  Biso   1.000  H
  H93      1.0000 0.97240  0.76400  0.22050  Biso   1.000  H
  H94      1.0000 0.47240  0.26400  0.22050  Biso   1.000  H
  H95      1.0000 0.97240  0.23600  0.22050  Biso   1.000  H
  H96      1.0000 0.47240  0.73600  0.22050  Biso   1.000  H
  C145     1.0000 0.32110  0.36790  0.92350  Biso   1.000  C
  C146     1.0000 0.82110  0.86790  0.92350  Biso   1.000  C
  C147     1.0000 0.32110  0.63210  0.92350  Biso   1.000  C
  C148     1.0000 0.82110  0.13210  0.92350  Biso   1.000  C
  C149     1.0000 0.67890  0.63210  0.07650  Biso   1.000  C
  C150     1.0000 0.17890  0.13210  0.07650  Biso   1.000  C
  C151     1.0000 0.67890  0.36790  0.07650  Biso   1.000  C
  C152     1.0000 0.17890  0.86790  0.07650  Biso   1.000  C
  O73      1.0000 0.38360  0.33560  0.00300  Biso   1.000  O
  O74      1.0000 0.88360  0.83560  0.00300  Biso   1.000  O
  O75      1.0000 0.38360  0.66440  0.00300  Biso   1.000  O
  O76      1.0000 0.88360  0.16440  0.00300  Biso   1.000  O
  O77      1.0000 0.61640  0.66440  0.99700  Biso   1.000  O
  O78      1.0000 0.11640  0.16440  0.99700  Biso   1.000  O
  O79      1.0000 0.61640  0.33560  0.99700  Biso   1.000  O
  O80      1.0000 0.11640  0.83560  0.99700  Biso   1.000  O
  C153     1.0000 0.37760  0.40220  0.89120  Biso   1.000  C
  C154     1.0000 0.87760  0.90220  0.89120  Biso   1.000  C
  C155     1.0000 0.37760  0.59780  0.89120  Biso   1.000  C
  C156     1.0000 0.87760  0.09780  0.89120  Biso   1.000  C
  C157     1.0000 0.62240  0.59780  0.10880  Biso   1.000  C
  C158     1.0000 0.12240  0.09780  0.10880  Biso   1.000  C
  C159     1.0000 0.62240  0.40220  0.10880  Biso   1.000  C
  C160     1.0000 0.12240  0.90220  0.10880  Biso   1.000  C
  Na1      1.0000 0.09880  0.00000  0.60300  Biso   1.000  Na
  Na2      1.0000 0.59880  0.50000  0.60300  Biso   1.000  Na
  Na3      1.0000 0.90120  0.00000  0.39700  Biso   1.000  Na
  Na4      1.0000 0.40120  0.50000  0.39700  Biso   1.000  Na
  Na5      1.0000 0.00000  0.50000  0.00000  Biso   1.000  Na
  Na6      1.0000 0.50000  0.00000  0.00000  Biso   1.000  Na
  Na7      1.0000 0.92190  0.50000  0.80930  Biso   1.000  Na
  Na8      1.0000 0.42190  0.00000  0.80930  Biso   1.000  Na
  Na9      1.0000 0.07810  0.50000  0.19070  Biso   1.000  Na
  Na10     1.0000 0.57810  0.00000  0.19070  Biso   1.000  Na
  Na11     1.0000 0.50000  0.44040  0.50000  Biso   1.000  Na
  Na12     1.0000 0.00000  0.94040  0.50000  Biso   1.000  Na
  Na13     1.0000 0.50000  0.55960  0.50000  Biso   1.000  Na
  Na14     1.0000 0.00000  0.05960  0.50000  Biso   1.000  Na
  Na15     1.0000 0.15580  0.00000  0.45380  Biso   1.000  Na
  Na16     1.0000 0.65580  0.50000  0.45380  Biso   1.000  Na
  Na17     1.0000 0.84420  0.00000  0.54620  Biso   1.000  Na
  Na18     1.0000 0.34420  0.50000  0.54620  Biso   1.000  Na
  Na19     1.0000 0.10480  0.00000  0.89010  Biso   1.000  Na
  Na20     1.0000 0.60480  0.50000  0.89010  Biso   1.000  Na
  Na21     1.0000 0.89520  0.00000  0.10990  Biso   1.000  Na
  Na22     1.0000 0.39520  0.50000  0.10990  Biso   1.000  Na
  O81      1.0000 0.16080  0.05670  0.81020  Biso   1.000  O
  O82      1.0000 0.66080  0.55670  0.81020  Biso   1.000  O
  O83      1.0000 0.16080  0.94330  0.81020  Biso   1.000  O
  O84      1.0000 0.66080  0.44330  0.81020  Biso   1.000  O
  O85      1.0000 0.83920  0.94330  0.18980  Biso   1.000  O
  O86      1.0000 0.33920  0.44330  0.18980  Biso   1.000  O
  O87      1.0000 0.83920  0.05670  0.18980  Biso   1.000  O
  O88      1.0000 0.33920  0.55670  0.18980  Biso   1.000  O
  O89      1.0000 0.02700  0.43800  0.66400  Biso   1.000  O
  O90      1.0000 0.52700  0.93800  0.66400  Biso   1.000  O
  O91      1.0000 0.02700  0.56200  0.66400  Biso   1.000  O
  O92      1.0000 0.52700  0.06200  0.66400  Biso   1.000  O
  O93      1.0000 0.97300  0.56200  0.33600  Biso   1.000  O
  O94      1.0000 0.47300  0.06200  0.33600  Biso   1.000  O
  O95      1.0000 0.97300  0.43800  0.33600  Biso   1.000  O
  O96      1.0000 0.47300  0.93800  0.33600  Biso   1.000  O
  O97      1.0000 0.33940  0.06170  0.81390  Biso   1.000  O
  O98      1.0000 0.83940  0.56170  0.81390  Biso   1.000  O
  O99      1.0000 0.33940  0.93830  0.81390  Biso   1.000  O
  O100     1.0000 0.83940  0.43830  0.81390  Biso   1.000  O
  O101     1.0000 0.66060  0.93830  0.18610  Biso   1.000  O
  O102     1.0000 0.16060  0.43830  0.18610  Biso   1.000  O
  O103     1.0000 0.66060  0.06170  0.18610  Biso   1.000  O
  O104     1.0000 0.16060  0.56170  0.18610  Biso   1.000  O
  O105     1.0000 0.12690  0.44190  0.87250  Biso   1.000  O
  O106     1.0000 0.62690  0.94190  0.87250  Biso   1.000  O
  O107     1.0000 0.12690  0.55810  0.87250  Biso   1.000  O
  O108     1.0000 0.62690  0.05810  0.87250  Biso   1.000  O
  O109     1.0000 0.87310  0.55810  0.12750  Biso   1.000  O
  O110     1.0000 0.37310  0.05810  0.12750  Biso   1.000  O
  O111     1.0000 0.87310  0.44190  0.12750  Biso   1.000  O
  O112     1.0000 0.37310  0.94190  0.12750  Biso   1.000  O
  O113     1.0000 0.22640  0.06100  0.67170  Biso   1.000  O
  O114     1.0000 0.72640  0.56100  0.67170  Biso   1.000  O
  O115     1.0000 0.22640  0.93900  0.67170  Biso   1.000  O
  O116     1.0000 0.72640  0.43900  0.67170  Biso   1.000  O
  O117     1.0000 0.77360  0.93900  0.32830  Biso   1.000  O
  O118     1.0000 0.27360  0.43900  0.32830  Biso   1.000  O
  O119     1.0000 0.77360  0.06100  0.32830  Biso   1.000  O
  O120     1.0000 0.27360  0.56100  0.32830  Biso   1.000  O
  O121     1.0000 0.14950  0.43350  0.75550  Biso   1.000  O
  O122     1.0000 0.64950  0.93350  0.75550  Biso   1.000  O
  O123     1.0000 0.14950  0.56650  0.75550  Biso   1.000  O
  O124     1.0000 0.64950  0.06650  0.75550  Biso   1.000  O
  O125     1.0000 0.85050  0.56650  0.24450  Biso   1.000  O
  O126     1.0000 0.35050  0.06650  0.24450  Biso   1.000  O
  O127     1.0000 0.85050  0.43350  0.24450  Biso   1.000  O
  O128     1.0000 0.35050  0.93350  0.24450  Biso   1.000  O
  O129     1.0000 0.20800  0.00000  0.07750  Biso   1.000  O
  O130     1.0000 0.70800  0.50000  0.07750  Biso   1.000  O
  O131     1.0000 0.79200  0.00000  0.92250  Biso   1.000  O
  O132     1.0000 0.29200  0.50000  0.92250  Biso   1.000  O
  O133     1.0000 0.00800  0.00000  0.72880  Biso   1.000  O
  O134     1.0000 0.50800  0.50000  0.72880  Biso   1.000  O
  O135     1.0000 0.99200  0.00000  0.27120  Biso   1.000  O
  O136     1.0000 0.49200  0.50000  0.27120  Biso   1.000  O
  O137     1.0000 0.08380  0.46720  0.49790  Biso   1.000  O
  O138     1.0000 0.58380  0.96720  0.49790  Biso   1.000  O
  O139     1.0000 0.08380  0.53280  0.49790  Biso   1.000  O
  O140     1.0000 0.58380  0.03280  0.49790  Biso   1.000  O
  O141     1.0000 0.91620  0.53280  0.50210  Biso   1.000  O
  O142     1.0000 0.41620  0.03280  0.50210  Biso   1.000  O
  O143     1.0000 0.91620  0.46720  0.50210  Biso   1.000  O
  O144     1.0000 0.41620  0.96720  0.50210  Biso   1.000  O
  O145     1.0000 0.15100  0.50000  0.62260  Biso   1.000  O
  O146     1.0000 0.65100  0.00000  0.62260  Biso   1.000  O
  O147     1.0000 0.84900  0.50000  0.37740  Biso   1.000  O
  O148     1.0000 0.34900  0.00000  0.37740  Biso   1.000  O
  O149     1.0000 0.14130  0.50000  0.00420  Biso   1.000  O
  O150     1.0000 0.64130  0.00000  0.00420  Biso   1.000  O
  O151     1.0000 0.85870  0.50000  0.99580  Biso   1.000  O
  O152     1.0000 0.35870  0.00000  0.99580  Biso   1.000  O
  O153     1.0000 0.20340  0.50000  0.99260  Biso   1.000  O
  O154     1.0000 0.70340  0.00000  0.99260  Biso   1.000  O
  O155     1.0000 0.79660  0.50000  0.00740  Biso   1.000  O
  O156     1.0000 0.29660  0.00000  0.00740  Biso   1.000  O
  O157     1.0000 0.87890  0.50000  0.72160  Biso   1.000  O
  O158     1.0000 0.37890  0.00000  0.72160  Biso   1.000  O
  O159     1.0000 0.12110  0.50000  0.27840  Biso   1.000  O
  O160     1.0000 0.62110  0.00000  0.27840  Biso   1.000  O
  O161     1.0000 0.27990  0.46850  0.70850  Biso   1.000  O
  O162     1.0000 0.77990  0.96850  0.70850  Biso   1.000  O
  O163     1.0000 0.27990  0.53150  0.70850  Biso   1.000  O
  O164     1.0000 0.77990  0.03150  0.70850  Biso   1.000  O
  O165     1.0000 0.72010  0.53150  0.29150  Biso   1.000  O
  O166     1.0000 0.22010  0.03150  0.29150  Biso   1.000  O
  O167     1.0000 0.72010  0.46850  0.29150  Biso   1.000  O
  O168     1.0000 0.22010  0.96850  0.29150  Biso   1.000  O
