data_image0
_cell_length_a       8.5634
_cell_length_b       19.2808
_cell_length_c       8.6971
_cell_angle_alpha    90
_cell_angle_beta     108.028
_cell_angle_gamma    90

_symmetry_space_group_name_H-M    "P 1"
_symmetry_int_tables_number       1

loop_
  _symmetry_equiv_pos_as_xyz
  'x, y, z'

loop_
  _atom_site_label
  _atom_site_occupancy
  _atom_site_fract_x
  _atom_site_fract_y
  _atom_site_fract_z
  _atom_site_thermal_displace_type
  _atom_site_B_iso_or_equiv
  _atom_site_type_symbol
  Cu1      1.0000 0.45384  0.17386  0.80783  Biso   1.000  Cu
  Cu2      1.0000 0.04616  0.67386  0.69217  Biso   1.000  Cu
  Cu3      1.0000 0.54616  0.82614  0.19217  Biso   1.000  Cu
  Cu4      1.0000 0.95384  0.32614  0.30783  Biso   1.000  Cu
  Cu5      1.0000 0.46663  0.09273  0.43882  Biso   1.000  Cu
  Cu6      1.0000 0.03337  0.59273  0.06118  Biso   1.000  Cu
  Cu7      1.0000 0.53337  0.90727  0.56118  Biso   1.000  Cu
  Cu8      1.0000 0.96663  0.40727  0.93882  Biso   1.000  Cu
  N1       1.0000 0.57840  0.08413  0.80900  Biso   1.000  N
  N2       1.0000 0.92160  0.58413  0.69100  Biso   1.000  N
  N3       1.0000 0.42160  0.91587  0.19100  Biso   1.000  N
  N4       1.0000 0.07840  0.41587  0.30900  Biso   1.000  N
  N5       1.0000 0.27610  0.17237  0.92530  Biso   1.000  N
  N6       1.0000 0.22390  0.67237  0.57470  Biso   1.000  N
  N7       1.0000 0.72390  0.82763  0.07470  Biso   1.000  N
  N8       1.0000 0.77610  0.32763  0.42530  Biso   1.000  N
  C1       1.0000 0.72990  0.05664  0.09750  Biso   1.000  C
  C2       1.0000 0.77010  0.55664  0.40250  Biso   1.000  C
  C3       1.0000 0.27010  0.94336  0.90250  Biso   1.000  C
  C4       1.0000 0.22990  0.44336  0.59750  Biso   1.000  C
  C5       1.0000 0.68180  0.04414  0.92250  Biso   1.000  C
  C6       1.0000 0.81820  0.54414  0.57750  Biso   1.000  C
  C7       1.0000 0.31820  0.95586  0.07750  Biso   1.000  C
  C8       1.0000 0.18180  0.45586  0.42250  Biso   1.000  C
  C9       1.0000 0.29890  0.19049  0.07960  Biso   1.000  C
  C10      1.0000 0.20110  0.69049  0.42040  Biso   1.000  C
  C11      1.0000 0.70110  0.80951  0.92040  Biso   1.000  C
  C12      1.0000 0.79890  0.30951  0.57960  Biso   1.000  C
  H1       1.0000 0.40420  0.20210  0.14390  Biso   1.000  H
  H2       1.0000 0.09580  0.70210  0.35610  Biso   1.000  H
  H3       1.0000 0.59580  0.79790  0.85610  Biso   1.000  H
  H4       1.0000 0.90420  0.29790  0.64390  Biso   1.000  H
  C13      1.0000 0.17200  0.19263  0.14750  Biso   1.000  C
  C14      1.0000 0.32800  0.69263  0.35250  Biso   1.000  C
  C15      1.0000 0.82800  0.80737  0.85250  Biso   1.000  C
  C16      1.0000 0.67200  0.30737  0.64750  Biso   1.000  C
  N9       1.0000 0.57080  0.05338  0.66830  Biso   1.000  N
  N10      1.0000 0.92920  0.55338  0.83170  Biso   1.000  N
  N11      1.0000 0.42920  0.94662  0.33170  Biso   1.000  N
  N12      1.0000 0.07080  0.44662  0.16830  Biso   1.000  N
  C17      1.0000 0.01330  0.17844  0.04960  Biso   1.000  C
  C18      1.0000 0.48670  0.67844  0.45040  Biso   1.000  C
  C19      1.0000 0.98670  0.82156  0.95040  Biso   1.000  C
  C20      1.0000 0.51330  0.32156  0.54960  Biso   1.000  C
  H5       1.0000 0.92510  0.18160  0.09030  Biso   1.000  H
  H6       1.0000 0.57490  0.68160  0.40970  Biso   1.000  H
  H7       1.0000 0.07490  0.81840  0.90970  Biso   1.000  H
  H8       1.0000 0.42510  0.31840  0.59030  Biso   1.000  H
  C21      1.0000 0.98910  0.15959  0.89090  Biso   1.000  C
  C22      1.0000 0.51090  0.65959  0.60910  Biso   1.000  C
  C23      1.0000 0.01090  0.84041  0.10910  Biso   1.000  C
  C24      1.0000 0.48910  0.34041  0.39090  Biso   1.000  C
  H9       1.0000 0.88430  0.14960  0.82280  Biso   1.000  H
  H10      1.0000 0.61570  0.64960  0.67720  Biso   1.000  H
  H11      1.0000 0.11570  0.85040  0.17720  Biso   1.000  H
  H12      1.0000 0.38430  0.35040  0.32280  Biso   1.000  H
  C25      1.0000 0.12310  0.15582  0.83520  Biso   1.000  C
  C26      1.0000 0.37690  0.65582  0.66480  Biso   1.000  C
  C27      1.0000 0.87690  0.84418  0.16480  Biso   1.000  C
  C28      1.0000 0.62310  0.34418  0.33520  Biso   1.000  C
  H13      1.0000 0.10640  0.14100  0.72960  Biso   1.000  H
  H14      1.0000 0.39360  0.64100  0.77040  Biso   1.000  H
  H15      1.0000 0.89360  0.85900  0.27040  Biso   1.000  H
  H16      1.0000 0.60640  0.35900  0.22960  Biso   1.000  H
  C29      1.0000 0.89160  0.04764  0.19480  Biso   1.000  C
  C30      1.0000 0.60840  0.54764  0.30520  Biso   1.000  C
  C31      1.0000 0.10840  0.95236  0.80520  Biso   1.000  C
  C32      1.0000 0.39160  0.45236  0.69480  Biso   1.000  C
  H17      1.0000 0.97150  0.03180  0.15120  Biso   1.000  H
  H18      1.0000 0.52850  0.53180  0.34880  Biso   1.000  H
  H19      1.0000 0.02850  0.96820  0.84880  Biso   1.000  H
  H20      1.0000 0.47150  0.46820  0.65120  Biso   1.000  H
  N13      1.0000 0.73700  0.99060  0.85690  Biso   1.000  N
  N14      1.0000 0.76300  0.49060  0.64310  Biso   1.000  N
  N15      1.0000 0.26300  0.00940  0.14310  Biso   1.000  N
  N16      1.0000 0.23700  0.50940  0.35690  Biso   1.000  N
  N17      1.0000 0.66390  0.99737  0.69740  Biso   1.000  N
  N18      1.0000 0.83610  0.49737  0.80260  Biso   1.000  N
  N19      1.0000 0.33610  0.00263  0.30260  Biso   1.000  N
  N20      1.0000 0.16390  0.50263  0.19740  Biso   1.000  N
  N21      1.0000 0.65020  0.08932  0.32950  Biso   1.000  N
  N22      1.0000 0.84980  0.58932  0.17050  Biso   1.000  N
  N23      1.0000 0.34980  0.91068  0.67050  Biso   1.000  N
  N24      1.0000 0.15020  0.41068  0.82950  Biso   1.000  N
  C33      1.0000 0.61460  0.07739  0.17030  Biso   1.000  C
  C34      1.0000 0.88540  0.57739  0.32970  Biso   1.000  C
  C35      1.0000 0.38540  0.92261  0.82970  Biso   1.000  C
  C36      1.0000 0.11460  0.42261  0.67030  Biso   1.000  C
  H21      1.0000 0.50660  0.08340  0.10520  Biso   1.000  H
  H22      1.0000 0.99340  0.58340  0.39480  Biso   1.000  H
  H23      1.0000 0.49340  0.91660  0.89480  Biso   1.000  H
  H24      1.0000 0.00660  0.41660  0.60520  Biso   1.000  H
  C37      1.0000 0.80770  0.08286  0.41980  Biso   1.000  C
  C38      1.0000 0.69230  0.58286  0.08020  Biso   1.000  C
  C39      1.0000 0.19230  0.91714  0.58020  Biso   1.000  C
  C40      1.0000 0.30770  0.41714  0.91980  Biso   1.000  C
  H25      1.0000 0.83560  0.09240  0.52980  Biso   1.000  H
  H26      1.0000 0.66440  0.59240  0.97020  Biso   1.000  H
  H27      1.0000 0.16440  0.90760  0.47020  Biso   1.000  H
  H28      1.0000 0.33560  0.40760  0.02980  Biso   1.000  H
  C41      1.0000 0.93070  0.06274  0.35740  Biso   1.000  C
  C42      1.0000 0.56930  0.56274  0.14260  Biso   1.000  C
  C43      1.0000 0.06930  0.93726  0.64260  Biso   1.000  C
  C44      1.0000 0.43070  0.43726  0.85740  Biso   1.000  C
  H29      1.0000 0.03870  0.05940  0.42430  Biso   1.000  H
  H30      1.0000 0.46130  0.55940  0.07570  Biso   1.000  H
  H31      1.0000 0.96130  0.94060  0.57570  Biso   1.000  H
  H32      1.0000 0.53870  0.44060  0.92430  Biso   1.000  H
  N25      1.0000 0.31660  0.17050  0.43690  Biso   1.000  N
  N26      1.0000 0.18340  0.67050  0.06310  Biso   1.000  N
  N27      1.0000 0.68340  0.82950  0.56310  Biso   1.000  N
  N28      1.0000 0.81660  0.32950  0.93690  Biso   1.000  N
  N29      1.0000 0.29910  0.19352  0.57720  Biso   1.000  N
  N30      1.0000 0.20090  0.69352  0.92280  Biso   1.000  N
  N31      1.0000 0.70090  0.80648  0.42280  Biso   1.000  N
  N32      1.0000 0.79910  0.30648  0.07720  Biso   1.000  N
  C45      1.0000 0.20350  0.20487  0.32100  Biso   1.000  C
  C46      1.0000 0.29650  0.70487  0.17900  Biso   1.000  C
  C47      1.0000 0.79650  0.79513  0.67900  Biso   1.000  C
  C48      1.0000 0.70350  0.29513  0.82100  Biso   1.000  C
  N33      1.0000 0.11820  0.24763  0.38640  Biso   1.000  N
  N34      1.0000 0.38180  0.74763  0.11360  Biso   1.000  N
  N35      1.0000 0.88180  0.75237  0.61360  Biso   1.000  N
  N36      1.0000 0.61820  0.25237  0.88640  Biso   1.000  N
  N37      1.0000 0.18080  0.23958  0.54730  Biso   1.000  N
  N38      1.0000 0.31920  0.73958  0.95270  Biso   1.000  N
  N39      1.0000 0.81920  0.76042  0.45270  Biso   1.000  N
  N40      1.0000 0.68080  0.26042  0.04730  Biso   1.000  N
