data_image0
_cell_length_a       6.6799
_cell_length_b       17.8844
_cell_length_c       14.9376
_cell_angle_alpha    90
_cell_angle_beta     90
_cell_angle_gamma    90

_symmetry_space_group_name_H-M    "P 1"
_symmetry_int_tables_number       1

loop_
  _symmetry_equiv_pos_as_xyz
  'x, y, z'

loop_
  _atom_site_label
  _atom_site_occupancy
  _atom_site_fract_x
  _atom_site_fract_y
  _atom_site_fract_z
  _atom_site_thermal_displace_type
  _atom_site_B_iso_or_equiv
  _atom_site_type_symbol
  Cd1      1.0000 0.24358  0.70099  0.38328  Biso   1.000  Cd
  Cd2      1.0000 0.75642  0.29901  0.88328  Biso   1.000  Cd
  Cd3      1.0000 0.75642  0.20099  0.11672  Biso   1.000  Cd
  Cd4      1.0000 0.24358  0.79901  0.61672  Biso   1.000  Cd
  Cd5      1.0000 0.75642  0.29901  0.61672  Biso   1.000  Cd
  Cd6      1.0000 0.24358  0.70099  0.11672  Biso   1.000  Cd
  Cd7      1.0000 0.24358  0.79901  0.88328  Biso   1.000  Cd
  Cd8      1.0000 0.75642  0.20099  0.38328  Biso   1.000  Cd
  Cu1      1.0000 0.67722  0.79650  0.25000  Biso   1.000  Cu
  Cu2      1.0000 0.32278  0.20350  0.75000  Biso   1.000  Cu
  Cu3      1.0000 0.32278  0.29650  0.25000  Biso   1.000  Cu
  Cu4      1.0000 0.67722  0.70350  0.75000  Biso   1.000  Cu
  Cl1      1.0000 0.02819  0.75568  0.25000  Biso   1.000  Cl
  Cl2      1.0000 0.97181  0.24432  0.75000  Biso   1.000  Cl
  Cl3      1.0000 0.97181  0.25568  0.25000  Biso   1.000  Cl
  Cl4      1.0000 0.02819  0.74432  0.75000  Biso   1.000  Cl
  N1       1.0000 0.59980  0.83706  0.36689  Biso   1.000  N
  N2       1.0000 0.40020  0.16294  0.86689  Biso   1.000  N
  N3       1.0000 0.40020  0.33706  0.13311  Biso   1.000  N
  N4       1.0000 0.59980  0.66294  0.63311  Biso   1.000  N
  N5       1.0000 0.40020  0.16294  0.63311  Biso   1.000  N
  N6       1.0000 0.59980  0.83706  0.13311  Biso   1.000  N
  N7       1.0000 0.59980  0.66294  0.86689  Biso   1.000  N
  N8       1.0000 0.40020  0.33706  0.36689  Biso   1.000  N
  N9       1.0000 0.45280  0.80571  0.41526  Biso   1.000  N
  N10      1.0000 0.54720  0.19429  0.91526  Biso   1.000  N
  N11      1.0000 0.54720  0.30571  0.08474  Biso   1.000  N
  N12      1.0000 0.45280  0.69429  0.58474  Biso   1.000  N
  N13      1.0000 0.54720  0.19429  0.58474  Biso   1.000  N
  N14      1.0000 0.45280  0.80571  0.08474  Biso   1.000  N
  N15      1.0000 0.45280  0.69429  0.91526  Biso   1.000  N
  N16      1.0000 0.54720  0.30571  0.41526  Biso   1.000  N
  C1       1.0000 0.66480  0.89436  0.41655  Biso   1.000  C
  C2       1.0000 0.33520  0.10564  0.91655  Biso   1.000  C
  C3       1.0000 0.33520  0.39436  0.08345  Biso   1.000  C
  C4       1.0000 0.66480  0.60564  0.58345  Biso   1.000  C
  C5       1.0000 0.33520  0.10564  0.58345  Biso   1.000  C
  C6       1.0000 0.66480  0.89436  0.08345  Biso   1.000  C
  C7       1.0000 0.66480  0.60564  0.91655  Biso   1.000  C
  C8       1.0000 0.33520  0.39436  0.41655  Biso   1.000  C
  Cl5      1.0000 0.50031  0.66982  0.25000  Biso   1.000  Cl
  Cl6      1.0000 0.49969  0.33018  0.75000  Biso   1.000  Cl
  Cl7      1.0000 0.49969  0.16982  0.25000  Biso   1.000  Cl
  Cl8      1.0000 0.50031  0.83018  0.75000  Biso   1.000  Cl
  C9       1.0000 0.81880  0.95028  0.39188  Biso   1.000  C
  C10      1.0000 0.18120  0.04972  0.89188  Biso   1.000  C
  C11      1.0000 0.18120  0.45028  0.10812  Biso   1.000  C
  C12      1.0000 0.81880  0.54972  0.60812  Biso   1.000  C
  C13      1.0000 0.18120  0.04972  0.60812  Biso   1.000  C
  C14      1.0000 0.81880  0.95028  0.10812  Biso   1.000  C
  C15      1.0000 0.81880  0.54972  0.89188  Biso   1.000  C
  C16      1.0000 0.18120  0.45028  0.39188  Biso   1.000  C
  Cl9      1.0000 0.98806  0.75000  0.50000  Biso   1.000  Cl
  Cl10     1.0000 0.01194  0.25000  0.00000  Biso   1.000  Cl
  Cl11     1.0000 0.01194  0.25000  0.50000  Biso   1.000  Cl
  Cl12     1.0000 0.98806  0.75000  0.00000  Biso   1.000  Cl
  N17      1.0000 0.56570  0.89897  0.49351  Biso   1.000  N
  N18      1.0000 0.43430  0.10103  0.99351  Biso   1.000  N
  N19      1.0000 0.43430  0.39897  0.00649  Biso   1.000  N
  N20      1.0000 0.56570  0.60103  0.50649  Biso   1.000  N
  N21      1.0000 0.43430  0.10103  0.50649  Biso   1.000  N
  N22      1.0000 0.56570  0.89897  0.00649  Biso   1.000  N
  N23      1.0000 0.56570  0.60103  0.99351  Biso   1.000  N
  N24      1.0000 0.43430  0.39897  0.49351  Biso   1.000  N
  N25      1.0000 0.43550  0.84265  0.49059  Biso   1.000  N
  N26      1.0000 0.56450  0.15735  0.99059  Biso   1.000  N
  N27      1.0000 0.56450  0.34265  0.00941  Biso   1.000  N
  N28      1.0000 0.43550  0.65735  0.50941  Biso   1.000  N
  N29      1.0000 0.56450  0.15735  0.50941  Biso   1.000  N
  N30      1.0000 0.43550  0.84265  0.00941  Biso   1.000  N
  N31      1.0000 0.43550  0.65735  0.99059  Biso   1.000  N
  N32      1.0000 0.56450  0.34265  0.49059  Biso   1.000  N
  C17      1.0000 0.01850  0.93417  0.37850  Biso   1.000  C
  C18      1.0000 0.98150  0.06583  0.87850  Biso   1.000  C
  C19      1.0000 0.98150  0.43417  0.12150  Biso   1.000  C
  C20      1.0000 0.01850  0.56583  0.62150  Biso   1.000  C
  C21      1.0000 0.98150  0.06583  0.62150  Biso   1.000  C
  C22      1.0000 0.01850  0.93417  0.12150  Biso   1.000  C
  C23      1.0000 0.01850  0.56583  0.87850  Biso   1.000  C
  C24      1.0000 0.98150  0.43417  0.37850  Biso   1.000  C
  H1       1.0000 0.06400  0.88500  0.37920  Biso   1.000  H
  H2       1.0000 0.93600  0.11500  0.87920  Biso   1.000  H
  H3       1.0000 0.93600  0.38500  0.12080  Biso   1.000  H
  H4       1.0000 0.06400  0.61500  0.62080  Biso   1.000  H
  H5       1.0000 0.93600  0.11500  0.62080  Biso   1.000  H
  H6       1.0000 0.06400  0.88500  0.12080  Biso   1.000  H
  H7       1.0000 0.06400  0.61500  0.87920  Biso   1.000  H
  H8       1.0000 0.93600  0.38500  0.37920  Biso   1.000  H
  C25      1.0000 0.14910  0.99269  0.36410  Biso   1.000  C
  C26      1.0000 0.85090  0.00731  0.86410  Biso   1.000  C
  C27      1.0000 0.85090  0.49269  0.13590  Biso   1.000  C
  C28      1.0000 0.14910  0.50731  0.63590  Biso   1.000  C
  C29      1.0000 0.85090  0.00731  0.63590  Biso   1.000  C
  C30      1.0000 0.14910  0.99269  0.13590  Biso   1.000  C
  C31      1.0000 0.14910  0.50731  0.86410  Biso   1.000  C
  C32      1.0000 0.85090  0.49269  0.36410  Biso   1.000  C
  H9       1.0000 0.28470  0.98330  0.35550  Biso   1.000  H
  H10      1.0000 0.71530  0.01670  0.85550  Biso   1.000  H
  H11      1.0000 0.71530  0.48330  0.14450  Biso   1.000  H
  H12      1.0000 0.28470  0.51670  0.64450  Biso   1.000  H
  H13      1.0000 0.71530  0.01670  0.64450  Biso   1.000  H
  H14      1.0000 0.28470  0.98330  0.14450  Biso   1.000  H
  H15      1.0000 0.28470  0.51670  0.85550  Biso   1.000  H
  H16      1.0000 0.71530  0.48330  0.35550  Biso   1.000  H
  C33      1.0000 0.07850  0.06484  0.36250  Biso   1.000  C
  C34      1.0000 0.92150  0.93516  0.86250  Biso   1.000  C
  C35      1.0000 0.92150  0.56484  0.13750  Biso   1.000  C
  C36      1.0000 0.07850  0.43516  0.63750  Biso   1.000  C
  C37      1.0000 0.92150  0.93516  0.63750  Biso   1.000  C
  C38      1.0000 0.07850  0.06484  0.13750  Biso   1.000  C
  C39      1.0000 0.07850  0.43516  0.86250  Biso   1.000  C
  C40      1.0000 0.92150  0.56484  0.36250  Biso   1.000  C
  H17      1.0000 0.16880  0.10380  0.35390  Biso   1.000  H
  H18      1.0000 0.83120  0.89620  0.85390  Biso   1.000  H
  H19      1.0000 0.83120  0.60380  0.14610  Biso   1.000  H
  H20      1.0000 0.16880  0.39620  0.64610  Biso   1.000  H
  H21      1.0000 0.83120  0.89620  0.64610  Biso   1.000  H
  H22      1.0000 0.16880  0.10380  0.14610  Biso   1.000  H
  H23      1.0000 0.16880  0.39620  0.85390  Biso   1.000  H
  H24      1.0000 0.83120  0.60380  0.35390  Biso   1.000  H
  N33      1.0000 0.88480  0.08087  0.37276  Biso   1.000  N
  N34      1.0000 0.11520  0.91913  0.87276  Biso   1.000  N
  N35      1.0000 0.11520  0.58087  0.12724  Biso   1.000  N
  N36      1.0000 0.88480  0.41913  0.62724  Biso   1.000  N
  N37      1.0000 0.11520  0.91913  0.62724  Biso   1.000  N
  N38      1.0000 0.88480  0.08087  0.12724  Biso   1.000  N
  N39      1.0000 0.88480  0.41913  0.87276  Biso   1.000  N
  N40      1.0000 0.11520  0.58087  0.37276  Biso   1.000  N
  C41      1.0000 0.75830  0.02414  0.38706  Biso   1.000  C
  C42      1.0000 0.24170  0.97586  0.88706  Biso   1.000  C
  C43      1.0000 0.24170  0.52414  0.11294  Biso   1.000  C
  C44      1.0000 0.75830  0.47586  0.61294  Biso   1.000  C
  C45      1.0000 0.24170  0.97586  0.61294  Biso   1.000  C
  C46      1.0000 0.75830  0.02414  0.11294  Biso   1.000  C
  C47      1.0000 0.75830  0.47586  0.88706  Biso   1.000  C
  C48      1.0000 0.24170  0.52414  0.38706  Biso   1.000  C
  H25      1.0000 0.62300  0.03490  0.39410  Biso   1.000  H
  H26      1.0000 0.37700  0.96510  0.89410  Biso   1.000  H
  H27      1.0000 0.37700  0.53490  0.10590  Biso   1.000  H
  H28      1.0000 0.62300  0.46510  0.60590  Biso   1.000  H
  H29      1.0000 0.37700  0.96510  0.60590  Biso   1.000  H
  H30      1.0000 0.62300  0.03490  0.10590  Biso   1.000  H
  H31      1.0000 0.62300  0.46510  0.89410  Biso   1.000  H
  H32      1.0000 0.37700  0.53490  0.39410  Biso   1.000  H
