data_image0
_cell_length_a       17.115
_cell_length_b       17.115
_cell_length_c       17.115
_cell_angle_alpha    90
_cell_angle_beta     90
_cell_angle_gamma    90

_symmetry_space_group_name_H-M    "P 1"
_symmetry_int_tables_number       1

loop_
  _symmetry_equiv_pos_as_xyz
  'x, y, z'

loop_
  _atom_site_label
  _atom_site_occupancy
  _atom_site_fract_x
  _atom_site_fract_y
  _atom_site_fract_z
  _atom_site_thermal_displace_type
  _atom_site_B_iso_or_equiv
  _atom_site_type_symbol
  Cu1      1.0000 0.17639  0.37118  0.27739  Biso   1.000  Cu
  Cu2      1.0000 0.27739  0.17639  0.37118  Biso   1.000  Cu
  Cu3      1.0000 0.37118  0.27739  0.17639  Biso   1.000  Cu
  Cu4      1.0000 0.62882  0.72261  0.17639  Biso   1.000  Cu
  Cu5      1.0000 0.27739  0.82361  0.62882  Biso   1.000  Cu
  Cu6      1.0000 0.62882  0.27739  0.82361  Biso   1.000  Cu
  Cu7      1.0000 0.72261  0.82361  0.37118  Biso   1.000  Cu
  Cu8      1.0000 0.72261  0.17639  0.62882  Biso   1.000  Cu
  Cu9      1.0000 0.37118  0.72261  0.82361  Biso   1.000  Cu
  Cu10     1.0000 0.82361  0.62882  0.27739  Biso   1.000  Cu
  Cu11     1.0000 0.17639  0.62882  0.72261  Biso   1.000  Cu
  Cu12     1.0000 0.82361  0.37118  0.72261  Biso   1.000  Cu
  Cu13     1.0000 0.67639  0.87118  0.77739  Biso   1.000  Cu
  Cu14     1.0000 0.77739  0.67639  0.87118  Biso   1.000  Cu
  Cu15     1.0000 0.87118  0.77739  0.67639  Biso   1.000  Cu
  Cu16     1.0000 0.12882  0.22261  0.67639  Biso   1.000  Cu
  Cu17     1.0000 0.77739  0.32361  0.12882  Biso   1.000  Cu
  Cu18     1.0000 0.12882  0.77739  0.32361  Biso   1.000  Cu
  Cu19     1.0000 0.22261  0.32361  0.87118  Biso   1.000  Cu
  Cu20     1.0000 0.22261  0.67639  0.12882  Biso   1.000  Cu
  Cu21     1.0000 0.87118  0.22261  0.32361  Biso   1.000  Cu
  Cu22     1.0000 0.32361  0.12882  0.77739  Biso   1.000  Cu
  Cu23     1.0000 0.67639  0.12882  0.22261  Biso   1.000  Cu
  Cu24     1.0000 0.32361  0.87118  0.22261  Biso   1.000  Cu
  Cu25     1.0000 0.19673  0.19673  0.19673  Biso   1.000  Cu
  Cu26     1.0000 0.80327  0.80327  0.19673  Biso   1.000  Cu
  Cu27     1.0000 0.19673  0.80327  0.80327  Biso   1.000  Cu
  Cu28     1.0000 0.80327  0.19673  0.80327  Biso   1.000  Cu
  Cu29     1.0000 0.69673  0.69673  0.69673  Biso   1.000  Cu
  Cu30     1.0000 0.30327  0.30327  0.69673  Biso   1.000  Cu
  Cu31     1.0000 0.69673  0.30327  0.30327  Biso   1.000  Cu
  Cu32     1.0000 0.30327  0.69673  0.30327  Biso   1.000  Cu
  Cl1      1.0000 0.29248  0.29248  0.29248  Biso   1.000  Cl
  Cl2      1.0000 0.70752  0.70752  0.29248  Biso   1.000  Cl
  Cl3      1.0000 0.29248  0.70752  0.70752  Biso   1.000  Cl
  Cl4      1.0000 0.70752  0.29248  0.70752  Biso   1.000  Cl
  Cl5      1.0000 0.79248  0.79248  0.79248  Biso   1.000  Cl
  Cl6      1.0000 0.20752  0.20752  0.79248  Biso   1.000  Cl
  Cl7      1.0000 0.79248  0.20752  0.20752  Biso   1.000  Cl
  Cl8      1.0000 0.20752  0.79248  0.20752  Biso   1.000  Cl
  F1       1.0000 0.93500  0.36300  0.39900  Biso   1.000  F
  F2       1.0000 0.39900  0.93500  0.36300  Biso   1.000  F
  F3       1.0000 0.36300  0.39900  0.93500  Biso   1.000  F
  F4       1.0000 0.63700  0.60100  0.93500  Biso   1.000  F
  F5       1.0000 0.39900  0.06500  0.63700  Biso   1.000  F
  F6       1.0000 0.63700  0.39900  0.06500  Biso   1.000  F
  F7       1.0000 0.60100  0.06500  0.36300  Biso   1.000  F
  F8       1.0000 0.60100  0.93500  0.63700  Biso   1.000  F
  F9       1.0000 0.36300  0.60100  0.06500  Biso   1.000  F
  F10      1.0000 0.06500  0.63700  0.39900  Biso   1.000  F
  F11      1.0000 0.93500  0.63700  0.60100  Biso   1.000  F
  F12      1.0000 0.06500  0.36300  0.60100  Biso   1.000  F
  F13      1.0000 0.43500  0.86300  0.89900  Biso   1.000  F
  F14      1.0000 0.89900  0.43500  0.86300  Biso   1.000  F
  F15      1.0000 0.86300  0.89900  0.43500  Biso   1.000  F
  F16      1.0000 0.13700  0.10100  0.43500  Biso   1.000  F
  F17      1.0000 0.89900  0.56500  0.13700  Biso   1.000  F
  F18      1.0000 0.13700  0.89900  0.56500  Biso   1.000  F
  F19      1.0000 0.10100  0.56500  0.86300  Biso   1.000  F
  F20      1.0000 0.10100  0.43500  0.13700  Biso   1.000  F
  F21      1.0000 0.86300  0.10100  0.56500  Biso   1.000  F
  F22      1.0000 0.56500  0.13700  0.89900  Biso   1.000  F
  F23      1.0000 0.43500  0.13700  0.10100  Biso   1.000  F
  F24      1.0000 0.56500  0.86300  0.10100  Biso   1.000  F
  F25      1.0000 0.94100  0.41500  0.31900  Biso   1.000  F
  F26      1.0000 0.31900  0.94100  0.41500  Biso   1.000  F
  F27      1.0000 0.41500  0.31900  0.94100  Biso   1.000  F
  F28      1.0000 0.58500  0.68100  0.94100  Biso   1.000  F
  F29      1.0000 0.31900  0.05900  0.58500  Biso   1.000  F
  F30      1.0000 0.58500  0.31900  0.05900  Biso   1.000  F
  F31      1.0000 0.68100  0.05900  0.41500  Biso   1.000  F
  F32      1.0000 0.68100  0.94100  0.58500  Biso   1.000  F
  F33      1.0000 0.41500  0.68100  0.05900  Biso   1.000  F
  F34      1.0000 0.05900  0.58500  0.31900  Biso   1.000  F
  F35      1.0000 0.94100  0.58500  0.68100  Biso   1.000  F
  F36      1.0000 0.05900  0.41500  0.68100  Biso   1.000  F
  F37      1.0000 0.44100  0.91500  0.81900  Biso   1.000  F
  F38      1.0000 0.81900  0.44100  0.91500  Biso   1.000  F
  F39      1.0000 0.91500  0.81900  0.44100  Biso   1.000  F
  F40      1.0000 0.08500  0.18100  0.44100  Biso   1.000  F
  F41      1.0000 0.81900  0.55900  0.08500  Biso   1.000  F
  F42      1.0000 0.08500  0.81900  0.55900  Biso   1.000  F
  F43      1.0000 0.18100  0.55900  0.91500  Biso   1.000  F
  F44      1.0000 0.18100  0.44100  0.08500  Biso   1.000  F
  F45      1.0000 0.91500  0.18100  0.55900  Biso   1.000  F
  F46      1.0000 0.55900  0.08500  0.81900  Biso   1.000  F
  F47      1.0000 0.44100  0.08500  0.18100  Biso   1.000  F
  F48      1.0000 0.55900  0.91500  0.18100  Biso   1.000  F
  F49      1.0000 0.04680  0.42150  0.37910  Biso   1.000  F
  F50      1.0000 0.37910  0.04680  0.42150  Biso   1.000  F
  F51      1.0000 0.42150  0.37910  0.04680  Biso   1.000  F
  F52      1.0000 0.57850  0.62090  0.04680  Biso   1.000  F
  F53      1.0000 0.37910  0.95320  0.57850  Biso   1.000  F
  F54      1.0000 0.57850  0.37910  0.95320  Biso   1.000  F
  F55      1.0000 0.62090  0.95320  0.42150  Biso   1.000  F
  F56      1.0000 0.62090  0.04680  0.57850  Biso   1.000  F
  F57      1.0000 0.42150  0.62090  0.95320  Biso   1.000  F
  F58      1.0000 0.95320  0.57850  0.37910  Biso   1.000  F
  F59      1.0000 0.04680  0.57850  0.62090  Biso   1.000  F
  F60      1.0000 0.95320  0.42150  0.62090  Biso   1.000  F
  F61      1.0000 0.54680  0.92150  0.87910  Biso   1.000  F
  F62      1.0000 0.87910  0.54680  0.92150  Biso   1.000  F
  F63      1.0000 0.92150  0.87910  0.54680  Biso   1.000  F
  F64      1.0000 0.07850  0.12090  0.54680  Biso   1.000  F
  F65      1.0000 0.87910  0.45320  0.07850  Biso   1.000  F
  F66      1.0000 0.07850  0.87910  0.45320  Biso   1.000  F
  F67      1.0000 0.12090  0.45320  0.92150  Biso   1.000  F
  F68      1.0000 0.12090  0.54680  0.07850  Biso   1.000  F
  F69      1.0000 0.92150  0.12090  0.45320  Biso   1.000  F
  F70      1.0000 0.45320  0.07850  0.87910  Biso   1.000  F
  F71      1.0000 0.54680  0.07850  0.12090  Biso   1.000  F
  F72      1.0000 0.45320  0.92150  0.12090  Biso   1.000  F
  N1       1.0000 0.09120  0.29910  0.28190  Biso   1.000  N
  N2       1.0000 0.28190  0.09120  0.29910  Biso   1.000  N
  N3       1.0000 0.29910  0.28190  0.09120  Biso   1.000  N
  N4       1.0000 0.70090  0.71810  0.09120  Biso   1.000  N
  N5       1.0000 0.28190  0.90880  0.70090  Biso   1.000  N
  N6       1.0000 0.70090  0.28190  0.90880  Biso   1.000  N
  N7       1.0000 0.71810  0.90880  0.29910  Biso   1.000  N
  N8       1.0000 0.71810  0.09120  0.70090  Biso   1.000  N
  N9       1.0000 0.29910  0.71810  0.90880  Biso   1.000  N
  N10      1.0000 0.90880  0.70090  0.28190  Biso   1.000  N
  N11      1.0000 0.09120  0.70090  0.71810  Biso   1.000  N
  N12      1.0000 0.90880  0.29910  0.71810  Biso   1.000  N
  N13      1.0000 0.59120  0.79910  0.78190  Biso   1.000  N
  N14      1.0000 0.78190  0.59120  0.79910  Biso   1.000  N
  N15      1.0000 0.79910  0.78190  0.59120  Biso   1.000  N
  N16      1.0000 0.20090  0.21810  0.59120  Biso   1.000  N
  N17      1.0000 0.78190  0.40880  0.20090  Biso   1.000  N
  N18      1.0000 0.20090  0.78190  0.40880  Biso   1.000  N
  N19      1.0000 0.21810  0.40880  0.79910  Biso   1.000  N
  N20      1.0000 0.21810  0.59120  0.20090  Biso   1.000  N
  N21      1.0000 0.79910  0.21810  0.40880  Biso   1.000  N
  N22      1.0000 0.40880  0.20090  0.78190  Biso   1.000  N
  N23      1.0000 0.59120  0.20090  0.21810  Biso   1.000  N
  N24      1.0000 0.40880  0.79910  0.21810  Biso   1.000  N
  N25      1.0000 0.09860  0.22640  0.25050  Biso   1.000  N
  N26      1.0000 0.25050  0.09860  0.22640  Biso   1.000  N
  N27      1.0000 0.22640  0.25050  0.09860  Biso   1.000  N
  N28      1.0000 0.77360  0.74950  0.09860  Biso   1.000  N
  N29      1.0000 0.25050  0.90140  0.77360  Biso   1.000  N
  N30      1.0000 0.77360  0.25050  0.90140  Biso   1.000  N
  N31      1.0000 0.74950  0.90140  0.22640  Biso   1.000  N
  N32      1.0000 0.74950  0.09860  0.77360  Biso   1.000  N
  N33      1.0000 0.22640  0.74950  0.90140  Biso   1.000  N
  N34      1.0000 0.90140  0.77360  0.25050  Biso   1.000  N
  N35      1.0000 0.09860  0.77360  0.74950  Biso   1.000  N
  N36      1.0000 0.90140  0.22640  0.74950  Biso   1.000  N
  N37      1.0000 0.59860  0.72640  0.75050  Biso   1.000  N
  N38      1.0000 0.75050  0.59860  0.72640  Biso   1.000  N
  N39      1.0000 0.72640  0.75050  0.59860  Biso   1.000  N
  N40      1.0000 0.27360  0.24950  0.59860  Biso   1.000  N
  N41      1.0000 0.75050  0.40140  0.27360  Biso   1.000  N
  N42      1.0000 0.27360  0.75050  0.40140  Biso   1.000  N
  N43      1.0000 0.24950  0.40140  0.72640  Biso   1.000  N
  N44      1.0000 0.24950  0.59860  0.27360  Biso   1.000  N
  N45      1.0000 0.72640  0.24950  0.40140  Biso   1.000  N
  N46      1.0000 0.40140  0.27360  0.75050  Biso   1.000  N
  N47      1.0000 0.59860  0.27360  0.24950  Biso   1.000  N
  N48      1.0000 0.40140  0.72640  0.24950  Biso   1.000  N
  N49      1.0000 0.97860  0.24020  0.29660  Biso   1.000  N
  N50      1.0000 0.29660  0.97860  0.24020  Biso   1.000  N
  N51      1.0000 0.24020  0.29660  0.97860  Biso   1.000  N
  N52      1.0000 0.75980  0.70340  0.97860  Biso   1.000  N
  N53      1.0000 0.29660  0.02140  0.75980  Biso   1.000  N
  N54      1.0000 0.75980  0.29660  0.02140  Biso   1.000  N
  N55      1.0000 0.70340  0.02140  0.24020  Biso   1.000  N
  N56      1.0000 0.70340  0.97860  0.75980  Biso   1.000  N
  N57      1.0000 0.24020  0.70340  0.02140  Biso   1.000  N
  N58      1.0000 0.02140  0.75980  0.29660  Biso   1.000  N
  N59      1.0000 0.97860  0.75980  0.70340  Biso   1.000  N
  N60      1.0000 0.02140  0.24020  0.70340  Biso   1.000  N
  N61      1.0000 0.47860  0.74020  0.79660  Biso   1.000  N
  N62      1.0000 0.79660  0.47860  0.74020  Biso   1.000  N
  N63      1.0000 0.74020  0.79660  0.47860  Biso   1.000  N
  N64      1.0000 0.25980  0.20340  0.47860  Biso   1.000  N
  N65      1.0000 0.79660  0.52140  0.25980  Biso   1.000  N
  N66      1.0000 0.25980  0.79660  0.52140  Biso   1.000  N
  N67      1.0000 0.20340  0.52140  0.74020  Biso   1.000  N
  N68      1.0000 0.20340  0.47860  0.25980  Biso   1.000  N
  N69      1.0000 0.74020  0.20340  0.52140  Biso   1.000  N
  N70      1.0000 0.52140  0.25980  0.79660  Biso   1.000  N
  N71      1.0000 0.47860  0.25980  0.20340  Biso   1.000  N
  N72      1.0000 0.52140  0.74020  0.20340  Biso   1.000  N
  C1       1.0000 0.99090  0.37560  0.34890  Biso   1.000  C
  C2       1.0000 0.34890  0.99090  0.37560  Biso   1.000  C
  C3       1.0000 0.37560  0.34890  0.99090  Biso   1.000  C
  C4       1.0000 0.62440  0.65110  0.99090  Biso   1.000  C
  C5       1.0000 0.34890  0.00910  0.62440  Biso   1.000  C
  C6       1.0000 0.62440  0.34890  0.00910  Biso   1.000  C
  C7       1.0000 0.65110  0.00910  0.37560  Biso   1.000  C
  C8       1.0000 0.65110  0.99090  0.62440  Biso   1.000  C
  C9       1.0000 0.37560  0.65110  0.00910  Biso   1.000  C
  C10      1.0000 0.00910  0.62440  0.34890  Biso   1.000  C
  C11      1.0000 0.99090  0.62440  0.65110  Biso   1.000  C
  C12      1.0000 0.00910  0.37560  0.65110  Biso   1.000  C
  C13      1.0000 0.49090  0.87560  0.84890  Biso   1.000  C
  C14      1.0000 0.84890  0.49090  0.87560  Biso   1.000  C
  C15      1.0000 0.87560  0.84890  0.49090  Biso   1.000  C
  C16      1.0000 0.12440  0.15110  0.49090  Biso   1.000  C
  C17      1.0000 0.84890  0.50910  0.12440  Biso   1.000  C
  C18      1.0000 0.12440  0.84890  0.50910  Biso   1.000  C
  C19      1.0000 0.15110  0.50910  0.87560  Biso   1.000  C
  C20      1.0000 0.15110  0.49090  0.12440  Biso   1.000  C
  C21      1.0000 0.87560  0.15110  0.50910  Biso   1.000  C
  C22      1.0000 0.50910  0.12440  0.84890  Biso   1.000  C
  C23      1.0000 0.49090  0.12440  0.15110  Biso   1.000  C
  C24      1.0000 0.50910  0.87560  0.15110  Biso   1.000  C
  C25      1.0000 0.01960  0.30420  0.30870  Biso   1.000  C
  C26      1.0000 0.30870  0.01960  0.30420  Biso   1.000  C
  C27      1.0000 0.30420  0.30870  0.01960  Biso   1.000  C
  C28      1.0000 0.69580  0.69130  0.01960  Biso   1.000  C
  C29      1.0000 0.30870  0.98040  0.69580  Biso   1.000  C
  C30      1.0000 0.69580  0.30870  0.98040  Biso   1.000  C
  C31      1.0000 0.69130  0.98040  0.30420  Biso   1.000  C
  C32      1.0000 0.69130  0.01960  0.69580  Biso   1.000  C
  C33      1.0000 0.30420  0.69130  0.98040  Biso   1.000  C
  C34      1.0000 0.98040  0.69580  0.30870  Biso   1.000  C
  C35      1.0000 0.01960  0.69580  0.69130  Biso   1.000  C
  C36      1.0000 0.98040  0.30420  0.69130  Biso   1.000  C
  C37      1.0000 0.51960  0.80420  0.80870  Biso   1.000  C
  C38      1.0000 0.80870  0.51960  0.80420  Biso   1.000  C
  C39      1.0000 0.80420  0.80870  0.51960  Biso   1.000  C
  C40      1.0000 0.19580  0.19130  0.51960  Biso   1.000  C
  C41      1.0000 0.80870  0.48040  0.19580  Biso   1.000  C
  C42      1.0000 0.19580  0.80870  0.48040  Biso   1.000  C
  C43      1.0000 0.19130  0.48040  0.80420  Biso   1.000  C
  C44      1.0000 0.19130  0.51960  0.19580  Biso   1.000  C
  C45      1.0000 0.80420  0.19130  0.48040  Biso   1.000  C
  C46      1.0000 0.48040  0.19580  0.80870  Biso   1.000  C
  C47      1.0000 0.51960  0.19580  0.19130  Biso   1.000  C
  C48      1.0000 0.48040  0.80420  0.19130  Biso   1.000  C
  C49      1.0000 0.02870  0.19370  0.25930  Biso   1.000  C
  C50      1.0000 0.25930  0.02870  0.19370  Biso   1.000  C
  C51      1.0000 0.19370  0.25930  0.02870  Biso   1.000  C
  C52      1.0000 0.80630  0.74070  0.02870  Biso   1.000  C
  C53      1.0000 0.25930  0.97130  0.80630  Biso   1.000  C
  C54      1.0000 0.80630  0.25930  0.97130  Biso   1.000  C
  C55      1.0000 0.74070  0.97130  0.19370  Biso   1.000  C
  C56      1.0000 0.74070  0.02870  0.80630  Biso   1.000  C
  C57      1.0000 0.19370  0.74070  0.97130  Biso   1.000  C
  C58      1.0000 0.97130  0.80630  0.25930  Biso   1.000  C
  C59      1.0000 0.02870  0.80630  0.74070  Biso   1.000  C
  C60      1.0000 0.97130  0.19370  0.74070  Biso   1.000  C
  C61      1.0000 0.52870  0.69370  0.75930  Biso   1.000  C
  C62      1.0000 0.75930  0.52870  0.69370  Biso   1.000  C
  C63      1.0000 0.69370  0.75930  0.52870  Biso   1.000  C
  C64      1.0000 0.30630  0.24070  0.52870  Biso   1.000  C
  C65      1.0000 0.75930  0.47130  0.30630  Biso   1.000  C
  C66      1.0000 0.30630  0.75930  0.47130  Biso   1.000  C
  C67      1.0000 0.24070  0.47130  0.69370  Biso   1.000  C
  C68      1.0000 0.24070  0.52870  0.30630  Biso   1.000  C
  C69      1.0000 0.69370  0.24070  0.47130  Biso   1.000  C
  C70      1.0000 0.47130  0.30630  0.75930  Biso   1.000  C
  C71      1.0000 0.52870  0.30630  0.24070  Biso   1.000  C
  C72      1.0000 0.47130  0.69370  0.24070  Biso   1.000  C
  C73      1.0000 0.01110  0.11340  0.23530  Biso   1.000  C
  C74      1.0000 0.23530  0.01110  0.11340  Biso   1.000  C
  C75      1.0000 0.11340  0.23530  0.01110  Biso   1.000  C
  C76      1.0000 0.88660  0.76470  0.01110  Biso   1.000  C
  C77      1.0000 0.23530  0.98890  0.88660  Biso   1.000  C
  C78      1.0000 0.88660  0.23530  0.98890  Biso   1.000  C
  C79      1.0000 0.76470  0.98890  0.11340  Biso   1.000  C
  C80      1.0000 0.76470  0.01110  0.88660  Biso   1.000  C
  C81      1.0000 0.11340  0.76470  0.98890  Biso   1.000  C
  C82      1.0000 0.98890  0.88660  0.23530  Biso   1.000  C
  C83      1.0000 0.01110  0.88660  0.76470  Biso   1.000  C
  C84      1.0000 0.98890  0.11340  0.76470  Biso   1.000  C
  C85      1.0000 0.51110  0.61340  0.73530  Biso   1.000  C
  C86      1.0000 0.73530  0.51110  0.61340  Biso   1.000  C
  C87      1.0000 0.61340  0.73530  0.51110  Biso   1.000  C
  C88      1.0000 0.38660  0.26470  0.51110  Biso   1.000  C
  C89      1.0000 0.73530  0.48890  0.38660  Biso   1.000  C
  C90      1.0000 0.38660  0.73530  0.48890  Biso   1.000  C
  C91      1.0000 0.26470  0.48890  0.61340  Biso   1.000  C
  C92      1.0000 0.26470  0.51110  0.38660  Biso   1.000  C
  C93      1.0000 0.61340  0.26470  0.48890  Biso   1.000  C
  C94      1.0000 0.48890  0.38660  0.73530  Biso   1.000  C
  C95      1.0000 0.51110  0.38660  0.26470  Biso   1.000  C
  C96      1.0000 0.48890  0.61340  0.26470  Biso   1.000  C
  H1       1.0000 0.03050  0.10480  0.18340  Biso   1.000  H
  H2       1.0000 0.18340  0.03050  0.10480  Biso   1.000  H
  H3       1.0000 0.10480  0.18340  0.03050  Biso   1.000  H
  H4       1.0000 0.89520  0.81660  0.03050  Biso   1.000  H
  H5       1.0000 0.18340  0.96950  0.89520  Biso   1.000  H
  H6       1.0000 0.89520  0.18340  0.96950  Biso   1.000  H
  H7       1.0000 0.81660  0.96950  0.10480  Biso   1.000  H
  H8       1.0000 0.81660  0.03050  0.89520  Biso   1.000  H
  H9       1.0000 0.10480  0.81660  0.96950  Biso   1.000  H
  H10      1.0000 0.96950  0.89520  0.18340  Biso   1.000  H
  H11      1.0000 0.03050  0.89520  0.81660  Biso   1.000  H
  H12      1.0000 0.96950  0.10480  0.81660  Biso   1.000  H
  H13      1.0000 0.53050  0.60480  0.68340  Biso   1.000  H
  H14      1.0000 0.68340  0.53050  0.60480  Biso   1.000  H
  H15      1.0000 0.60480  0.68340  0.53050  Biso   1.000  H
  H16      1.0000 0.39520  0.31660  0.53050  Biso   1.000  H
  H17      1.0000 0.68340  0.46950  0.39520  Biso   1.000  H
  H18      1.0000 0.39520  0.68340  0.46950  Biso   1.000  H
  H19      1.0000 0.31660  0.46950  0.60480  Biso   1.000  H
  H20      1.0000 0.31660  0.53050  0.39520  Biso   1.000  H
  H21      1.0000 0.60480  0.31660  0.46950  Biso   1.000  H
  H22      1.0000 0.46950  0.39520  0.68340  Biso   1.000  H
  H23      1.0000 0.53050  0.39520  0.31660  Biso   1.000  H
  H24      1.0000 0.46950  0.60480  0.31660  Biso   1.000  H
  H25      1.0000 0.95560  0.10510  0.23610  Biso   1.000  H
  H26      1.0000 0.23610  0.95560  0.10510  Biso   1.000  H
  H27      1.0000 0.10510  0.23610  0.95560  Biso   1.000  H
  H28      1.0000 0.89490  0.76390  0.95560  Biso   1.000  H
  H29      1.0000 0.23610  0.04440  0.89490  Biso   1.000  H
  H30      1.0000 0.89490  0.23610  0.04440  Biso   1.000  H
  H31      1.0000 0.76390  0.04440  0.10510  Biso   1.000  H
  H32      1.0000 0.76390  0.95560  0.89490  Biso   1.000  H
  H33      1.0000 0.10510  0.76390  0.04440  Biso   1.000  H
  H34      1.0000 0.04440  0.89490  0.23610  Biso   1.000  H
  H35      1.0000 0.95560  0.89490  0.76390  Biso   1.000  H
  H36      1.0000 0.04440  0.10510  0.76390  Biso   1.000  H
  H37      1.0000 0.45560  0.60510  0.73610  Biso   1.000  H
  H38      1.0000 0.73610  0.45560  0.60510  Biso   1.000  H
  H39      1.0000 0.60510  0.73610  0.45560  Biso   1.000  H
  H40      1.0000 0.39490  0.26390  0.45560  Biso   1.000  H
  H41      1.0000 0.73610  0.54440  0.39490  Biso   1.000  H
  H42      1.0000 0.39490  0.73610  0.54440  Biso   1.000  H
  H43      1.0000 0.26390  0.54440  0.60510  Biso   1.000  H
  H44      1.0000 0.26390  0.45560  0.39490  Biso   1.000  H
  H45      1.0000 0.60510  0.26390  0.54440  Biso   1.000  H
  H46      1.0000 0.54440  0.39490  0.73610  Biso   1.000  H
  H47      1.0000 0.45560  0.39490  0.26390  Biso   1.000  H
  H48      1.0000 0.54440  0.60510  0.26390  Biso   1.000  H
  H49      1.0000 0.03580  0.07760  0.27070  Biso   1.000  H
  H50      1.0000 0.27070  0.03580  0.07760  Biso   1.000  H
  H51      1.0000 0.07760  0.27070  0.03580  Biso   1.000  H
  H52      1.0000 0.92240  0.72930  0.03580  Biso   1.000  H
  H53      1.0000 0.27070  0.96420  0.92240  Biso   1.000  H
  H54      1.0000 0.92240  0.27070  0.96420  Biso   1.000  H
  H55      1.0000 0.72930  0.96420  0.07760  Biso   1.000  H
  H56      1.0000 0.72930  0.03580  0.92240  Biso   1.000  H
  H57      1.0000 0.07760  0.72930  0.96420  Biso   1.000  H
  H58      1.0000 0.96420  0.92240  0.27070  Biso   1.000  H
  H59      1.0000 0.03580  0.92240  0.72930  Biso   1.000  H
  H60      1.0000 0.96420  0.07760  0.72930  Biso   1.000  H
  H61      1.0000 0.53580  0.57760  0.77070  Biso   1.000  H
  H62      1.0000 0.77070  0.53580  0.57760  Biso   1.000  H
  H63      1.0000 0.57760  0.77070  0.53580  Biso   1.000  H
  H64      1.0000 0.42240  0.22930  0.53580  Biso   1.000  H
  H65      1.0000 0.77070  0.46420  0.42240  Biso   1.000  H
  H66      1.0000 0.42240  0.77070  0.46420  Biso   1.000  H
  H67      1.0000 0.22930  0.46420  0.57760  Biso   1.000  H
  H68      1.0000 0.22930  0.53580  0.42240  Biso   1.000  H
  H69      1.0000 0.57760  0.22930  0.46420  Biso   1.000  H
  H70      1.0000 0.46420  0.42240  0.77070  Biso   1.000  H
  H71      1.0000 0.53580  0.42240  0.22930  Biso   1.000  H
  H72      1.0000 0.46420  0.57760  0.22930  Biso   1.000  H
  F73      1.0000 0.95810  0.07880  0.27710  Biso   1.000  F
  F74      1.0000 0.27710  0.95810  0.07880  Biso   1.000  F
  F75      1.0000 0.07880  0.27710  0.95810  Biso   1.000  F
  F76      1.0000 0.92120  0.72290  0.95810  Biso   1.000  F
  F77      1.0000 0.27710  0.04190  0.92120  Biso   1.000  F
  F78      1.0000 0.92120  0.27710  0.04190  Biso   1.000  F
  F79      1.0000 0.72290  0.04190  0.07880  Biso   1.000  F
  F80      1.0000 0.72290  0.95810  0.92120  Biso   1.000  F
  F81      1.0000 0.07880  0.72290  0.04190  Biso   1.000  F
  F82      1.0000 0.04190  0.92120  0.27710  Biso   1.000  F
  F83      1.0000 0.95810  0.92120  0.72290  Biso   1.000  F
  F84      1.0000 0.04190  0.07880  0.72290  Biso   1.000  F
  F85      1.0000 0.45810  0.57880  0.77710  Biso   1.000  F
  F86      1.0000 0.77710  0.45810  0.57880  Biso   1.000  F
  F87      1.0000 0.57880  0.77710  0.45810  Biso   1.000  F
  F88      1.0000 0.42120  0.22290  0.45810  Biso   1.000  F
  F89      1.0000 0.77710  0.54190  0.42120  Biso   1.000  F
  F90      1.0000 0.42120  0.77710  0.54190  Biso   1.000  F
  F91      1.0000 0.22290  0.54190  0.57880  Biso   1.000  F
  F92      1.0000 0.22290  0.45810  0.42120  Biso   1.000  F
  F93      1.0000 0.57880  0.22290  0.54190  Biso   1.000  F
  F94      1.0000 0.54190  0.42120  0.77710  Biso   1.000  F
  F95      1.0000 0.45810  0.42120  0.22290  Biso   1.000  F
  F96      1.0000 0.54190  0.57880  0.22290  Biso   1.000  F
  F97      1.0000 0.97500  0.10470  0.16790  Biso   1.000  F
  F98      1.0000 0.16790  0.97500  0.10470  Biso   1.000  F
  F99      1.0000 0.10470  0.16790  0.97500  Biso   1.000  F
  F100     1.0000 0.89530  0.83210  0.97500  Biso   1.000  F
  F101     1.0000 0.16790  0.02500  0.89530  Biso   1.000  F
  F102     1.0000 0.89530  0.16790  0.02500  Biso   1.000  F
  F103     1.0000 0.83210  0.02500  0.10470  Biso   1.000  F
  F104     1.0000 0.83210  0.97500  0.89530  Biso   1.000  F
  F105     1.0000 0.10470  0.83210  0.02500  Biso   1.000  F
  F106     1.0000 0.02500  0.89530  0.16790  Biso   1.000  F
  F107     1.0000 0.97500  0.89530  0.83210  Biso   1.000  F
  F108     1.0000 0.02500  0.10470  0.83210  Biso   1.000  F
  F109     1.0000 0.47500  0.60470  0.66790  Biso   1.000  F
  F110     1.0000 0.66790  0.47500  0.60470  Biso   1.000  F
  F111     1.0000 0.60470  0.66790  0.47500  Biso   1.000  F
  F112     1.0000 0.39530  0.33210  0.47500  Biso   1.000  F
  F113     1.0000 0.66790  0.52500  0.39530  Biso   1.000  F
  F114     1.0000 0.39530  0.66790  0.52500  Biso   1.000  F
  F115     1.0000 0.33210  0.52500  0.60470  Biso   1.000  F
  F116     1.0000 0.33210  0.47500  0.39530  Biso   1.000  F
  F117     1.0000 0.60470  0.33210  0.52500  Biso   1.000  F
  F118     1.0000 0.52500  0.39530  0.66790  Biso   1.000  F
  F119     1.0000 0.47500  0.39530  0.33210  Biso   1.000  F
  F120     1.0000 0.52500  0.60470  0.33210  Biso   1.000  F
  F121     1.0000 0.06890  0.06810  0.22270  Biso   1.000  F
  F122     1.0000 0.22270  0.06890  0.06810  Biso   1.000  F
  F123     1.0000 0.06810  0.22270  0.06890  Biso   1.000  F
  F124     1.0000 0.93190  0.77730  0.06890  Biso   1.000  F
  F125     1.0000 0.22270  0.93110  0.93190  Biso   1.000  F
  F126     1.0000 0.93190  0.22270  0.93110  Biso   1.000  F
  F127     1.0000 0.77730  0.93110  0.06810  Biso   1.000  F
  F128     1.0000 0.77730  0.06890  0.93190  Biso   1.000  F
  F129     1.0000 0.06810  0.77730  0.93110  Biso   1.000  F
  F130     1.0000 0.93110  0.93190  0.22270  Biso   1.000  F
  F131     1.0000 0.06890  0.93190  0.77730  Biso   1.000  F
  F132     1.0000 0.93110  0.06810  0.77730  Biso   1.000  F
  F133     1.0000 0.56890  0.56810  0.72270  Biso   1.000  F
  F134     1.0000 0.72270  0.56890  0.56810  Biso   1.000  F
  F135     1.0000 0.56810  0.72270  0.56890  Biso   1.000  F
  F136     1.0000 0.43190  0.27730  0.56890  Biso   1.000  F
  F137     1.0000 0.72270  0.43110  0.43190  Biso   1.000  F
  F138     1.0000 0.43190  0.72270  0.43110  Biso   1.000  F
  F139     1.0000 0.27730  0.43110  0.56810  Biso   1.000  F
  F140     1.0000 0.27730  0.56890  0.43190  Biso   1.000  F
  F141     1.0000 0.56810  0.27730  0.43110  Biso   1.000  F
  F142     1.0000 0.43110  0.43190  0.72270  Biso   1.000  F
  F143     1.0000 0.56890  0.43190  0.27730  Biso   1.000  F
  F144     1.0000 0.43110  0.56810  0.27730  Biso   1.000  F
  H73      1.0000 0.94130  0.39010  0.32720  Biso   1.000  H
  H74      1.0000 0.32720  0.94130  0.39010  Biso   1.000  H
  H75      1.0000 0.39010  0.32720  0.94130  Biso   1.000  H
  H76      1.0000 0.60990  0.67280  0.94130  Biso   1.000  H
  H77      1.0000 0.32720  0.05870  0.60990  Biso   1.000  H
  H78      1.0000 0.60990  0.32720  0.05870  Biso   1.000  H
  H79      1.0000 0.67280  0.05870  0.39010  Biso   1.000  H
  H80      1.0000 0.67280  0.94130  0.60990  Biso   1.000  H
  H81      1.0000 0.39010  0.67280  0.05870  Biso   1.000  H
  H82      1.0000 0.05870  0.60990  0.32720  Biso   1.000  H
  H83      1.0000 0.94130  0.60990  0.67280  Biso   1.000  H
  H84      1.0000 0.05870  0.39010  0.67280  Biso   1.000  H
  H85      1.0000 0.44130  0.89010  0.82720  Biso   1.000  H
  H86      1.0000 0.82720  0.44130  0.89010  Biso   1.000  H
  H87      1.0000 0.89010  0.82720  0.44130  Biso   1.000  H
  H88      1.0000 0.10990  0.17280  0.44130  Biso   1.000  H
  H89      1.0000 0.82720  0.55870  0.10990  Biso   1.000  H
  H90      1.0000 0.10990  0.82720  0.55870  Biso   1.000  H
  H91      1.0000 0.17280  0.55870  0.89010  Biso   1.000  H
  H92      1.0000 0.17280  0.44130  0.10990  Biso   1.000  H
  H93      1.0000 0.89010  0.17280  0.55870  Biso   1.000  H
  H94      1.0000 0.55870  0.10990  0.82720  Biso   1.000  H
  H95      1.0000 0.44130  0.10990  0.17280  Biso   1.000  H
  H96      1.0000 0.55870  0.89010  0.17280  Biso   1.000  H
  H97      1.0000 0.02690  0.41830  0.34360  Biso   1.000  H
  H98      1.0000 0.34360  0.02690  0.41830  Biso   1.000  H
  H99      1.0000 0.41830  0.34360  0.02690  Biso   1.000  H
  H100     1.0000 0.58170  0.65640  0.02690  Biso   1.000  H
  H101     1.0000 0.34360  0.97310  0.58170  Biso   1.000  H
  H102     1.0000 0.58170  0.34360  0.97310  Biso   1.000  H
  H103     1.0000 0.65640  0.97310  0.41830  Biso   1.000  H
  H104     1.0000 0.65640  0.02690  0.58170  Biso   1.000  H
  H105     1.0000 0.41830  0.65640  0.97310  Biso   1.000  H
  H106     1.0000 0.97310  0.58170  0.34360  Biso   1.000  H
  H107     1.0000 0.02690  0.58170  0.65640  Biso   1.000  H
  H108     1.0000 0.97310  0.41830  0.65640  Biso   1.000  H
  H109     1.0000 0.52690  0.91830  0.84360  Biso   1.000  H
  H110     1.0000 0.84360  0.52690  0.91830  Biso   1.000  H
  H111     1.0000 0.91830  0.84360  0.52690  Biso   1.000  H
  H112     1.0000 0.08170  0.15640  0.52690  Biso   1.000  H
  H113     1.0000 0.84360  0.47310  0.08170  Biso   1.000  H
  H114     1.0000 0.08170  0.84360  0.47310  Biso   1.000  H
  H115     1.0000 0.15640  0.47310  0.91830  Biso   1.000  H
  H116     1.0000 0.15640  0.52690  0.08170  Biso   1.000  H
  H117     1.0000 0.91830  0.15640  0.47310  Biso   1.000  H
  H118     1.0000 0.47310  0.08170  0.84360  Biso   1.000  H
  H119     1.0000 0.52690  0.08170  0.15640  Biso   1.000  H
  H120     1.0000 0.47310  0.91830  0.15640  Biso   1.000  H
  H121     1.0000 0.98460  0.36320  0.40330  Biso   1.000  H
  H122     1.0000 0.40330  0.98460  0.36320  Biso   1.000  H
  H123     1.0000 0.36320  0.40330  0.98460  Biso   1.000  H
  H124     1.0000 0.63680  0.59670  0.98460  Biso   1.000  H
  H125     1.0000 0.40330  0.01540  0.63680  Biso   1.000  H
  H126     1.0000 0.63680  0.40330  0.01540  Biso   1.000  H
  H127     1.0000 0.59670  0.01540  0.36320  Biso   1.000  H
  H128     1.0000 0.59670  0.98460  0.63680  Biso   1.000  H
  H129     1.0000 0.36320  0.59670  0.01540  Biso   1.000  H
  H130     1.0000 0.01540  0.63680  0.40330  Biso   1.000  H
  H131     1.0000 0.98460  0.63680  0.59670  Biso   1.000  H
  H132     1.0000 0.01540  0.36320  0.59670  Biso   1.000  H
  H133     1.0000 0.48460  0.86320  0.90330  Biso   1.000  H
  H134     1.0000 0.90330  0.48460  0.86320  Biso   1.000  H
  H135     1.0000 0.86320  0.90330  0.48460  Biso   1.000  H
  H136     1.0000 0.13680  0.09670  0.48460  Biso   1.000  H
  H137     1.0000 0.90330  0.51540  0.13680  Biso   1.000  H
  H138     1.0000 0.13680  0.90330  0.51540  Biso   1.000  H
  H139     1.0000 0.09670  0.51540  0.86320  Biso   1.000  H
  H140     1.0000 0.09670  0.48460  0.13680  Biso   1.000  H
  H141     1.0000 0.86320  0.09670  0.51540  Biso   1.000  H
  H142     1.0000 0.51540  0.13680  0.90330  Biso   1.000  H
  H143     1.0000 0.48460  0.13680  0.09670  Biso   1.000  H
  H144     1.0000 0.51540  0.86320  0.09670  Biso   1.000  H
