data_image0
_cell_length_a       9.204
_cell_length_b       8.125
_cell_length_c       26.304
_cell_angle_alpha    90
_cell_angle_beta     90
_cell_angle_gamma    90

_symmetry_space_group_name_H-M    "P 1"
_symmetry_int_tables_number       1

loop_
  _symmetry_equiv_pos_as_xyz
  'x, y, z'

loop_
  _atom_site_label
  _atom_site_occupancy
  _atom_site_fract_x
  _atom_site_fract_y
  _atom_site_fract_z
  _atom_site_thermal_displace_type
  _atom_site_B_iso_or_equiv
  _atom_site_type_symbol
  Cu1      1.0000 0.78808  0.10713  0.41452  Biso   1.000  Cu
  Cu2      1.0000 0.21192  0.89287  0.91452  Biso   1.000  Cu
  Cu3      1.0000 0.28808  0.89287  0.41452  Biso   1.000  Cu
  Cu4      1.0000 0.71192  0.10713  0.91452  Biso   1.000  Cu
  N1       1.0000 0.47360  0.00700  0.40860  Biso   1.000  N
  N2       1.0000 0.52640  0.99300  0.90860  Biso   1.000  N
  N3       1.0000 0.97360  0.99300  0.40860  Biso   1.000  N
  N4       1.0000 0.02640  0.00700  0.90860  Biso   1.000  N
  C1       1.0000 0.59290  0.04370  0.41160  Biso   1.000  C
  C2       1.0000 0.40710  0.95630  0.91160  Biso   1.000  C
  C3       1.0000 0.09290  0.95630  0.41160  Biso   1.000  C
  C4       1.0000 0.90710  0.04370  0.91160  Biso   1.000  C
  N5       1.0000 0.85980  0.34040  0.42670  Biso   1.000  N
  N6       1.0000 0.14020  0.65960  0.92670  Biso   1.000  N
  N7       1.0000 0.35980  0.65960  0.42670  Biso   1.000  N
  N8       1.0000 0.64020  0.34040  0.92670  Biso   1.000  N
  C5       1.0000 0.83580  0.47760  0.40150  Biso   1.000  C
  C6       1.0000 0.16420  0.52240  0.90150  Biso   1.000  C
  C7       1.0000 0.33580  0.52240  0.40150  Biso   1.000  C
  C8       1.0000 0.66420  0.47760  0.90150  Biso   1.000  C
  N9       1.0000 0.91300  0.60200  0.42220  Biso   1.000  N
  N10      1.0000 0.08700  0.39800  0.92220  Biso   1.000  N
  N11      1.0000 0.41300  0.39800  0.42220  Biso   1.000  N
  N12      1.0000 0.58700  0.60200  0.92220  Biso   1.000  N
  H1       1.0000 0.91290  0.70280  0.41230  Biso   1.000  H
  H2       1.0000 0.08710  0.29720  0.91230  Biso   1.000  H
  H3       1.0000 0.41290  0.29720  0.41230  Biso   1.000  H
  H4       1.0000 0.58710  0.70280  0.91230  Biso   1.000  H
  C9       1.0000 0.99120  0.53910  0.46160  Biso   1.000  C
  C10      1.0000 0.00880  0.46090  0.96160  Biso   1.000  C
  C11      1.0000 0.49120  0.46090  0.46160  Biso   1.000  C
  C12      1.0000 0.50880  0.53910  0.96160  Biso   1.000  C
  H5       1.0000 0.05460  0.59650  0.48260  Biso   1.000  H
  H6       1.0000 0.94540  0.40350  0.98260  Biso   1.000  H
  H7       1.0000 0.55460  0.40350  0.48260  Biso   1.000  H
  H8       1.0000 0.44540  0.59650  0.98260  Biso   1.000  H
  C13      1.0000 0.95890  0.37790  0.46420  Biso   1.000  C
  C14      1.0000 0.04110  0.62210  0.96420  Biso   1.000  C
  C15      1.0000 0.45890  0.62210  0.46420  Biso   1.000  C
  C16      1.0000 0.54110  0.37790  0.96420  Biso   1.000  C
  H9       1.0000 0.99720  0.30370  0.48760  Biso   1.000  H
  H10      1.0000 0.00280  0.69630  0.98760  Biso   1.000  H
  H11      1.0000 0.49720  0.69630  0.48760  Biso   1.000  H
  H12      1.0000 0.50280  0.30370  0.98760  Biso   1.000  H
  C17      1.0000 0.74070  0.49740  0.35710  Biso   1.000  C
  C18      1.0000 0.25930  0.50260  0.85710  Biso   1.000  C
  C19      1.0000 0.24070  0.50260  0.35710  Biso   1.000  C
  C20      1.0000 0.75930  0.49740  0.85710  Biso   1.000  C
  C21      1.0000 0.67620  0.64900  0.34630  Biso   1.000  C
  C22      1.0000 0.32380  0.35100  0.84630  Biso   1.000  C
  C23      1.0000 0.17620  0.35100  0.34630  Biso   1.000  C
  C24      1.0000 0.82380  0.64900  0.84630  Biso   1.000  C
  H13      1.0000 0.69530  0.73840  0.36730  Biso   1.000  H
  H14      1.0000 0.30470  0.26160  0.86730  Biso   1.000  H
  H15      1.0000 0.19530  0.26160  0.36730  Biso   1.000  H
  H16      1.0000 0.80470  0.73840  0.86730  Biso   1.000  H
  C25      1.0000 0.58660  0.66910  0.30590  Biso   1.000  C
  C26      1.0000 0.41340  0.33090  0.80590  Biso   1.000  C
  C27      1.0000 0.08660  0.33090  0.30590  Biso   1.000  C
  C28      1.0000 0.91340  0.66910  0.80590  Biso   1.000  C
  H17      1.0000 0.54710  0.77180  0.29870  Biso   1.000  H
  H18      1.0000 0.45290  0.22820  0.79870  Biso   1.000  H
  H19      1.0000 0.04710  0.22820  0.29870  Biso   1.000  H
  H20      1.0000 0.95290  0.77180  0.79870  Biso   1.000  H
  C29      1.0000 0.55510  0.53690  0.27590  Biso   1.000  C
  C30      1.0000 0.44490  0.46310  0.77590  Biso   1.000  C
  C31      1.0000 0.05510  0.46310  0.27590  Biso   1.000  C
  C32      1.0000 0.94490  0.53690  0.77590  Biso   1.000  C
  H21      1.0000 0.49570  0.55110  0.24760  Biso   1.000  H
  H22      1.0000 0.50430  0.44890  0.74760  Biso   1.000  H
  H23      1.0000 0.99570  0.44890  0.24760  Biso   1.000  H
  H24      1.0000 0.00430  0.55110  0.74760  Biso   1.000  H
  C33      1.0000 0.60910  0.38440  0.28650  Biso   1.000  C
  C34      1.0000 0.39090  0.61560  0.78650  Biso   1.000  C
  C35      1.0000 0.10910  0.61560  0.28650  Biso   1.000  C
  C36      1.0000 0.89090  0.38440  0.78650  Biso   1.000  C
  H25      1.0000 0.58190  0.29410  0.26700  Biso   1.000  H
  H26      1.0000 0.41810  0.70590  0.76700  Biso   1.000  H
  H27      1.0000 0.08190  0.70590  0.26700  Biso   1.000  H
  H28      1.0000 0.91810  0.29410  0.76700  Biso   1.000  H
  C37      1.0000 0.70530  0.36570  0.32690  Biso   1.000  C
  C38      1.0000 0.29470  0.63430  0.82690  Biso   1.000  C
  C39      1.0000 0.20530  0.63430  0.32690  Biso   1.000  C
  C40      1.0000 0.79470  0.36570  0.82690  Biso   1.000  C
  H29      1.0000 0.74590  0.26310  0.33350  Biso   1.000  H
  H30      1.0000 0.25410  0.73690  0.83350  Biso   1.000  H
  H31      1.0000 0.24590  0.73690  0.33350  Biso   1.000  H
  H32      1.0000 0.75410  0.26310  0.83350  Biso   1.000  H
  Cu5      1.0000 0.45555  0.38953  0.58580  Biso   1.000  Cu
  Cu6      1.0000 0.54445  0.61047  0.08580  Biso   1.000  Cu
  Cu7      1.0000 0.95555  0.61047  0.58580  Biso   1.000  Cu
  Cu8      1.0000 0.04445  0.38953  0.08580  Biso   1.000  Cu
  N13      1.0000 0.77110  0.49330  0.58910  Biso   1.000  N
  N14      1.0000 0.22890  0.50670  0.08910  Biso   1.000  N
  N15      1.0000 0.27110  0.50670  0.58910  Biso   1.000  N
  N16      1.0000 0.72890  0.49330  0.08910  Biso   1.000  N
  C41      1.0000 0.65120  0.45790  0.58940  Biso   1.000  C
  C42      1.0000 0.34880  0.54210  0.08940  Biso   1.000  C
  C43      1.0000 0.15120  0.54210  0.58940  Biso   1.000  C
  C44      1.0000 0.84880  0.45790  0.08940  Biso   1.000  C
  N17      1.0000 0.38230  0.15710  0.57322  Biso   1.000  N
  N18      1.0000 0.61770  0.84290  0.07322  Biso   1.000  N
  N19      1.0000 0.88230  0.84290  0.57322  Biso   1.000  N
  N20      1.0000 0.11770  0.15710  0.07322  Biso   1.000  N
  C45      1.0000 0.40360  0.01930  0.59840  Biso   1.000  C
  C46      1.0000 0.59640  0.98070  0.09840  Biso   1.000  C
  C47      1.0000 0.90360  0.98070  0.59840  Biso   1.000  C
  C48      1.0000 0.09640  0.01930  0.09840  Biso   1.000  C
  N21      1.0000 0.32500  0.89660  0.57740  Biso   1.000  N
  N22      1.0000 0.67500  0.10340  0.07740  Biso   1.000  N
  N23      1.0000 0.82500  0.10340  0.57740  Biso   1.000  N
  N24      1.0000 0.17500  0.89660  0.07740  Biso   1.000  N
  H33      1.0000 0.32430  0.79540  0.58700  Biso   1.000  H
  H34      1.0000 0.67570  0.20460  0.08700  Biso   1.000  H
  H35      1.0000 0.82430  0.20460  0.58700  Biso   1.000  H
  H36      1.0000 0.17570  0.79540  0.08700  Biso   1.000  H
  C49      1.0000 0.24700  0.96160  0.53830  Biso   1.000  C
  C50      1.0000 0.75300  0.03840  0.03830  Biso   1.000  C
  C51      1.0000 0.74700  0.03840  0.53830  Biso   1.000  C
  C52      1.0000 0.25300  0.96160  0.03830  Biso   1.000  C
  H37      1.0000 0.18210  0.90590  0.51740  Biso   1.000  H
  H38      1.0000 0.81790  0.09410  0.01740  Biso   1.000  H
  H39      1.0000 0.68210  0.09410  0.51740  Biso   1.000  H
  H40      1.0000 0.31790  0.90590  0.01740  Biso   1.000  H
  C53      1.0000 0.28190  0.12220  0.53580  Biso   1.000  C
  C54      1.0000 0.71810  0.87780  0.03580  Biso   1.000  C
  C55      1.0000 0.78190  0.87780  0.53580  Biso   1.000  C
  C56      1.0000 0.21810  0.12220  0.03580  Biso   1.000  C
  H41      1.0000 0.24440  0.19740  0.51270  Biso   1.000  H
  H42      1.0000 0.75560  0.80260  0.01270  Biso   1.000  H
  H43      1.0000 0.74440  0.80260  0.51270  Biso   1.000  H
  H44      1.0000 0.25560  0.19740  0.01270  Biso   1.000  H
  C57      1.0000 0.50480  0.99460  0.64090  Biso   1.000  C
  C58      1.0000 0.49520  0.00540  0.14090  Biso   1.000  C
  C59      1.0000 0.00480  0.00540  0.64090  Biso   1.000  C
  C60      1.0000 0.99520  0.99460  0.14090  Biso   1.000  C
  C61      1.0000 0.55690  0.83780  0.65270  Biso   1.000  C
  C62      1.0000 0.44310  0.16220  0.15270  Biso   1.000  C
  C63      1.0000 0.05690  0.16220  0.65270  Biso   1.000  C
  C64      1.0000 0.94310  0.83780  0.15270  Biso   1.000  C
  H45      1.0000 0.52910  0.74890  0.63270  Biso   1.000  H
  H46      1.0000 0.47090  0.25110  0.13270  Biso   1.000  H
  H47      1.0000 0.02910  0.25110  0.63270  Biso   1.000  H
  H48      1.0000 0.97090  0.74890  0.13270  Biso   1.000  H
  C65      1.0000 0.64700  0.81180  0.69270  Biso   1.000  C
  C66      1.0000 0.35300  0.18820  0.19270  Biso   1.000  C
  C67      1.0000 0.14700  0.18820  0.69270  Biso   1.000  C
  C68      1.0000 0.85300  0.81180  0.19270  Biso   1.000  C
  H49      1.0000 0.68240  0.70690  0.69940  Biso   1.000  H
  H50      1.0000 0.31760  0.29310  0.19940  Biso   1.000  H
  H51      1.0000 0.18240  0.29310  0.69940  Biso   1.000  H
  H52      1.0000 0.81760  0.70690  0.19940  Biso   1.000  H
  C69      1.0000 0.68510  0.94130  0.72290  Biso   1.000  C
  C70      1.0000 0.31490  0.05870  0.22290  Biso   1.000  C
  C71      1.0000 0.18510  0.05870  0.72290  Biso   1.000  C
  C72      1.0000 0.81490  0.94130  0.22290  Biso   1.000  C
  H53      1.0000 0.74600  0.92340  0.75050  Biso   1.000  H
  H54      1.0000 0.25400  0.07660  0.25050  Biso   1.000  H
  H55      1.0000 0.24600  0.07660  0.75050  Biso   1.000  H
  H56      1.0000 0.75400  0.92340  0.25050  Biso   1.000  H
  C73      1.0000 0.63580  0.09650  0.71320  Biso   1.000  C
  C74      1.0000 0.36420  0.90350  0.21320  Biso   1.000  C
  C75      1.0000 0.13580  0.90350  0.71320  Biso   1.000  C
  C76      1.0000 0.86420  0.09650  0.21320  Biso   1.000  C
  H57      1.0000 0.66440  0.18410  0.73370  Biso   1.000  H
  H58      1.0000 0.33560  0.81590  0.23370  Biso   1.000  H
  H59      1.0000 0.16440  0.81590  0.73370  Biso   1.000  H
  H60      1.0000 0.83560  0.18410  0.23370  Biso   1.000  H
  C77      1.0000 0.54210  0.12220  0.67250  Biso   1.000  C
  C78      1.0000 0.45790  0.87780  0.17250  Biso   1.000  C
  C79      1.0000 0.04210  0.87780  0.67250  Biso   1.000  C
  C80      1.0000 0.95790  0.12220  0.17250  Biso   1.000  C
  H61      1.0000 0.50440  0.22670  0.66660  Biso   1.000  H
  H62      1.0000 0.49560  0.77330  0.16660  Biso   1.000  H
  H63      1.0000 0.00440  0.77330  0.66660  Biso   1.000  H
  H64      1.0000 0.99560  0.22670  0.16660  Biso   1.000  H
