data_image0
_cell_length_a       9.565
_cell_length_b       7.764
_cell_length_c       8.983
_cell_angle_alpha    90
_cell_angle_beta     96.76
_cell_angle_gamma    90

_symmetry_space_group_name_H-M    "P 1"
_symmetry_int_tables_number       1

loop_
  _symmetry_equiv_pos_as_xyz
  'x, y, z'

loop_
  _atom_site_label
  _atom_site_occupancy
  _atom_site_fract_x
  _atom_site_fract_y
  _atom_site_fract_z
  _atom_site_thermal_displace_type
  _atom_site_B_iso_or_equiv
  _atom_site_type_symbol
  Cu1      1.0000 0.00000  0.13290  0.25000  Biso   1.000  Cu
  Cu2      1.0000 0.50000  0.63290  0.25000  Biso   1.000  Cu
  Cu3      1.0000 0.00000  0.86710  0.75000  Biso   1.000  Cu
  Cu4      1.0000 0.50000  0.36710  0.75000  Biso   1.000  Cu
  C1       1.0000 0.98820  0.02930  0.43820  Biso   1.000  C
  C2       1.0000 0.01180  0.02930  0.06180  Biso   1.000  C
  C3       1.0000 0.48820  0.52930  0.43820  Biso   1.000  C
  C4       1.0000 0.51180  0.52930  0.06180  Biso   1.000  C
  C5       1.0000 0.01180  0.97070  0.56180  Biso   1.000  C
  C6       1.0000 0.98820  0.97070  0.93820  Biso   1.000  C
  C7       1.0000 0.51180  0.47070  0.56180  Biso   1.000  C
  C8       1.0000 0.48820  0.47070  0.93820  Biso   1.000  C
  N1       1.0000 0.95450  0.38450  0.26700  Biso   1.000  N
  N2       1.0000 0.04550  0.38450  0.23300  Biso   1.000  N
  N3       1.0000 0.45450  0.88450  0.26700  Biso   1.000  N
  N4       1.0000 0.54550  0.88450  0.23300  Biso   1.000  N
  N5       1.0000 0.04550  0.61550  0.73300  Biso   1.000  N
  N6       1.0000 0.95450  0.61550  0.76700  Biso   1.000  N
  N7       1.0000 0.54550  0.11550  0.73300  Biso   1.000  N
  N8       1.0000 0.45450  0.11550  0.76700  Biso   1.000  N
  C9       1.0000 0.01800  0.51600  0.22300  Biso   1.000  C
  C10      1.0000 0.98200  0.51600  0.27700  Biso   1.000  C
  C11      1.0000 0.51800  0.01600  0.22300  Biso   1.000  C
  C12      1.0000 0.48200  0.01600  0.27700  Biso   1.000  C
  C13      1.0000 0.98200  0.48400  0.77700  Biso   1.000  C
  C14      1.0000 0.01800  0.48400  0.72300  Biso   1.000  C
  C15      1.0000 0.48200  0.98400  0.77700  Biso   1.000  C
  C16      1.0000 0.51800  0.98400  0.72300  Biso   1.000  C
  N9       1.0000 0.96240  0.66040  0.27040  Biso   1.000  N
  N10      1.0000 0.03760  0.66040  0.22960  Biso   1.000  N
  N11      1.0000 0.46240  0.16040  0.27040  Biso   1.000  N
  N12      1.0000 0.53760  0.16040  0.22960  Biso   1.000  N
  N13      1.0000 0.03760  0.33960  0.72960  Biso   1.000  N
  N14      1.0000 0.96240  0.33960  0.77040  Biso   1.000  N
  N15      1.0000 0.53760  0.83960  0.72960  Biso   1.000  N
  N16      1.0000 0.46240  0.83960  0.77040  Biso   1.000  N
  C17      1.0000 0.14570  0.61900  0.15410  Biso   1.000  C
  C18      1.0000 0.85430  0.61900  0.34590  Biso   1.000  C
  C19      1.0000 0.64570  0.11900  0.15410  Biso   1.000  C
  C20      1.0000 0.35430  0.11900  0.34590  Biso   1.000  C
  C21      1.0000 0.85430  0.38100  0.84590  Biso   1.000  C
  C22      1.0000 0.14570  0.38100  0.65410  Biso   1.000  C
  C23      1.0000 0.35430  0.88100  0.84590  Biso   1.000  C
  C24      1.0000 0.64570  0.88100  0.65410  Biso   1.000  C
  C25      1.0000 0.85080  0.44400  0.35150  Biso   1.000  C
  C26      1.0000 0.14920  0.44400  0.14850  Biso   1.000  C
  C27      1.0000 0.35080  0.94400  0.35150  Biso   1.000  C
  C28      1.0000 0.64920  0.94400  0.14850  Biso   1.000  C
  C29      1.0000 0.14920  0.55600  0.64850  Biso   1.000  C
  C30      1.0000 0.85080  0.55600  0.85150  Biso   1.000  C
  C31      1.0000 0.64920  0.05600  0.64850  Biso   1.000  C
  C32      1.0000 0.35080  0.05600  0.85150  Biso   1.000  C
  C33      1.0000 0.85460  0.52200  0.36000  Biso   1.000  C
  C34      1.0000 0.14540  0.52200  0.14000  Biso   1.000  C
  C35      1.0000 0.35460  0.02200  0.36000  Biso   1.000  C
  C36      1.0000 0.64540  0.02200  0.14000  Biso   1.000  C
  C37      1.0000 0.14540  0.47800  0.64000  Biso   1.000  C
  C38      1.0000 0.85460  0.47800  0.86000  Biso   1.000  C
  C39      1.0000 0.64540  0.97800  0.64000  Biso   1.000  C
  C40      1.0000 0.35460  0.97800  0.86000  Biso   1.000  C
