data_image0
_cell_length_a       8.12
_cell_length_b       11.796
_cell_length_c       16.375
_cell_angle_alpha    90
_cell_angle_beta     100.87
_cell_angle_gamma    90

_symmetry_space_group_name_H-M    "P 1"
_symmetry_int_tables_number       1

loop_
  _symmetry_equiv_pos_as_xyz
  'x, y, z'

loop_
  _atom_site_label
  _atom_site_occupancy
  _atom_site_fract_x
  _atom_site_fract_y
  _atom_site_fract_z
  _atom_site_thermal_displace_type
  _atom_site_B_iso_or_equiv
  _atom_site_type_symbol
  Cu1      1.0000 0.22920  0.51790  0.30365  Biso   1.000  Cu
  Cu2      1.0000 0.22920  0.98210  0.80365  Biso   1.000  Cu
  Cu3      1.0000 0.77080  0.48210  0.69635  Biso   1.000  Cu
  Cu4      1.0000 0.77080  0.01790  0.19635  Biso   1.000  Cu
  Cu5      1.0000 0.57069  0.84418  0.42857  Biso   1.000  Cu
  Cu6      1.0000 0.57069  0.65582  0.92857  Biso   1.000  Cu
  Cu7      1.0000 0.42931  0.15582  0.57143  Biso   1.000  Cu
  Cu8      1.0000 0.42931  0.34418  0.07143  Biso   1.000  Cu
  N1       1.0000 0.74530  0.96730  0.30610  Biso   1.000  N
  N2       1.0000 0.74530  0.53270  0.80610  Biso   1.000  N
  N3       1.0000 0.25470  0.03270  0.69390  Biso   1.000  N
  N4       1.0000 0.25470  0.46730  0.19390  Biso   1.000  N
  C1       1.0000 0.68210  0.92540  0.35510  Biso   1.000  C
  C2       1.0000 0.68210  0.57460  0.85510  Biso   1.000  C
  C3       1.0000 0.31790  0.07460  0.64490  Biso   1.000  C
  C4       1.0000 0.31790  0.42540  0.14490  Biso   1.000  C
  N5       1.0000 0.40410  0.72970  0.38450  Biso   1.000  N
  N6       1.0000 0.40410  0.77030  0.88450  Biso   1.000  N
  N7       1.0000 0.59590  0.27030  0.61550  Biso   1.000  N
  N8       1.0000 0.59590  0.22970  0.11550  Biso   1.000  N
  C5       1.0000 0.33290  0.65250  0.35440  Biso   1.000  C
  C6       1.0000 0.33290  0.84750  0.85440  Biso   1.000  C
  C7       1.0000 0.66710  0.34750  0.64560  Biso   1.000  C
  C8       1.0000 0.66710  0.15250  0.14560  Biso   1.000  C
  N9       1.0000 0.09590  0.40020  0.34770  Biso   1.000  N
  N10      1.0000 0.09590  0.09980  0.84770  Biso   1.000  N
  N11      1.0000 0.90410  0.59980  0.65230  Biso   1.000  N
  N12      1.0000 0.90410  0.90020  0.15230  Biso   1.000  N
  N13      1.0000 0.99270  0.28590  0.43060  Biso   1.000  N
  N14      1.0000 0.99270  0.21410  0.93060  Biso   1.000  N
  N15      1.0000 0.00730  0.71410  0.56940  Biso   1.000  N
  N16      1.0000 0.00730  0.78590  0.06940  Biso   1.000  N
  N17      1.0000 0.58490  0.82950  0.54930  Biso   1.000  N
  N18      1.0000 0.58490  0.67050  0.04930  Biso   1.000  N
  N19      1.0000 0.41510  0.17050  0.45070  Biso   1.000  N
  N20      1.0000 0.41510  0.32950  0.95070  Biso   1.000  N
  N21      1.0000 0.64700  0.85360  0.68430  Biso   1.000  N
  N22      1.0000 0.64700  0.64640  0.18430  Biso   1.000  N
  N23      1.0000 0.35300  0.14640  0.31570  Biso   1.000  N
  N24      1.0000 0.35300  0.35360  0.81570  Biso   1.000  N
  C9       1.0000 0.09750  0.37340  0.42660  Biso   1.000  C
  C10      1.0000 0.09750  0.12660  0.92660  Biso   1.000  C
  C11      1.0000 0.90250  0.62660  0.57340  Biso   1.000  C
  C12      1.0000 0.90250  0.87340  0.07340  Biso   1.000  C
  C13      1.0000 0.92170  0.25530  0.35060  Biso   1.000  C
  C14      1.0000 0.92170  0.24470  0.85060  Biso   1.000  C
  C15      1.0000 0.07830  0.74470  0.64940  Biso   1.000  C
  C16      1.0000 0.07830  0.75530  0.14940  Biso   1.000  C
  H1       1.0000 0.84440  0.19750  0.33440  Biso   1.000  H
  H2       1.0000 0.84440  0.30250  0.83440  Biso   1.000  H
  H3       1.0000 0.15560  0.80250  0.66560  Biso   1.000  H
  H4       1.0000 0.15560  0.69750  0.16560  Biso   1.000  H
  C17      1.0000 0.98620  0.32530  0.30090  Biso   1.000  C
  C18      1.0000 0.98620  0.17470  0.80090  Biso   1.000  C
  C19      1.0000 0.01380  0.67470  0.69910  Biso   1.000  C
  C20      1.0000 0.01380  0.82530  0.19910  Biso   1.000  C
  H5       1.0000 0.96090  0.32390  0.24310  Biso   1.000  H
  H6       1.0000 0.96090  0.17610  0.74310  Biso   1.000  H
  H7       1.0000 0.03910  0.67610  0.75690  Biso   1.000  H
  H8       1.0000 0.03910  0.82390  0.25690  Biso   1.000  H
  C21      1.0000 0.20270  0.42830  0.49920  Biso   1.000  C
  C22      1.0000 0.20270  0.07170  0.99920  Biso   1.000  C
  C23      1.0000 0.79730  0.57170  0.50080  Biso   1.000  C
  C24      1.0000 0.79730  0.92830  0.00080  Biso   1.000  C
  H9       1.0000 0.29010  0.37720  0.52390  Biso   1.000  H
  H10      1.0000 0.29010  0.12280  0.02390  Biso   1.000  H
  H11      1.0000 0.70990  0.62280  0.47610  Biso   1.000  H
  H12      1.0000 0.70990  0.87720  0.97610  Biso   1.000  H
  H13      1.0000 0.13470  0.44730  0.53920  Biso   1.000  H
  H14      1.0000 0.13470  0.05270  0.03920  Biso   1.000  H
  H15      1.0000 0.86530  0.55270  0.46080  Biso   1.000  H
  H16      1.0000 0.86530  0.94730  0.96080  Biso   1.000  H
  H17      1.0000 0.25160  0.49600  0.48160  Biso   1.000  H
  H18      1.0000 0.25160  0.00400  0.98160  Biso   1.000  H
  H19      1.0000 0.74840  0.50400  0.51840  Biso   1.000  H
  H20      1.0000 0.74840  0.99600  0.01840  Biso   1.000  H
  C25      1.0000 0.96160  0.23050  0.50610  Biso   1.000  C
  C26      1.0000 0.96160  0.26950  0.00610  Biso   1.000  C
  C27      1.0000 0.03840  0.76950  0.49390  Biso   1.000  C
  C28      1.0000 0.03840  0.73050  0.99390  Biso   1.000  C
  H21      1.0000 0.06360  0.19700  0.53520  Biso   1.000  H
  H22      1.0000 0.06360  0.30300  0.03520  Biso   1.000  H
  H23      1.0000 0.93640  0.80300  0.46480  Biso   1.000  H
  H24      1.0000 0.93640  0.69700  0.96480  Biso   1.000  H
  H25      1.0000 0.87810  0.17260  0.49140  Biso   1.000  H
  H26      1.0000 0.87810  0.32740  0.99140  Biso   1.000  H
  H27      1.0000 0.12190  0.82740  0.50860  Biso   1.000  H
  H28      1.0000 0.12190  0.67260  0.00860  Biso   1.000  H
  H29      1.0000 0.92250  0.28560  0.54120  Biso   1.000  H
  H30      1.0000 0.92250  0.21440  0.04120  Biso   1.000  H
  H31      1.0000 0.07750  0.71440  0.45880  Biso   1.000  H
  H32      1.0000 0.07750  0.78560  0.95880  Biso   1.000  H
  C29      1.0000 0.67230  0.88950  0.61030  Biso   1.000  C
  C30      1.0000 0.67230  0.61050  0.11030  Biso   1.000  C
  C31      1.0000 0.32770  0.11050  0.38970  Biso   1.000  C
  C32      1.0000 0.32770  0.38950  0.88970  Biso   1.000  C
  C33      1.0000 0.53640  0.76390  0.67050  Biso   1.000  C
  C34      1.0000 0.53640  0.73610  0.17050  Biso   1.000  C
  C35      1.0000 0.46360  0.23610  0.32950  Biso   1.000  C
  C36      1.0000 0.46360  0.26390  0.82950  Biso   1.000  C
  H33      1.0000 0.49570  0.72160  0.71030  Biso   1.000  H
  H34      1.0000 0.49570  0.77840  0.21030  Biso   1.000  H
  H35      1.0000 0.50430  0.27840  0.28970  Biso   1.000  H
  H36      1.0000 0.50430  0.22160  0.78970  Biso   1.000  H
  C37      1.0000 0.49980  0.75030  0.58820  Biso   1.000  C
  C38      1.0000 0.49980  0.74970  0.08820  Biso   1.000  C
  C39      1.0000 0.50020  0.24970  0.41180  Biso   1.000  C
  C40      1.0000 0.50020  0.25030  0.91180  Biso   1.000  C
  H37      1.0000 0.42750  0.69550  0.56080  Biso   1.000  H
  H38      1.0000 0.42750  0.80450  0.06080  Biso   1.000  H
  H39      1.0000 0.57250  0.30450  0.43920  Biso   1.000  H
  H40      1.0000 0.57250  0.19550  0.93920  Biso   1.000  H
  C41      1.0000 0.78370  0.98620  0.59940  Biso   1.000  C
  C42      1.0000 0.78370  0.51380  0.09940  Biso   1.000  C
  C43      1.0000 0.21630  0.01380  0.40060  Biso   1.000  C
  C44      1.0000 0.21630  0.48620  0.90060  Biso   1.000  C
  H41      1.0000 0.89640  0.96940  0.62660  Biso   1.000  H
  H42      1.0000 0.89640  0.53060  0.12660  Biso   1.000  H
  H43      1.0000 0.10360  0.03060  0.37340  Biso   1.000  H
  H44      1.0000 0.10360  0.46940  0.87340  Biso   1.000  H
  H45      1.0000 0.74550  0.05330  0.62320  Biso   1.000  H
  H46      1.0000 0.74550  0.44670  0.12320  Biso   1.000  H
  H47      1.0000 0.25450  0.94670  0.37680  Biso   1.000  H
  H48      1.0000 0.25450  0.55330  0.87680  Biso   1.000  H
  H49      1.0000 0.78090  0.99830  0.54110  Biso   1.000  H
  H50      1.0000 0.78090  0.50170  0.04110  Biso   1.000  H
  H51      1.0000 0.21910  0.00170  0.45890  Biso   1.000  H
  H52      1.0000 0.21910  0.49830  0.95890  Biso   1.000  H
  C45      1.0000 0.71840  0.89880  0.76540  Biso   1.000  C
  C46      1.0000 0.71840  0.60120  0.26540  Biso   1.000  C
  C47      1.0000 0.28160  0.10120  0.23460  Biso   1.000  C
  C48      1.0000 0.28160  0.39880  0.73460  Biso   1.000  C
  H53      1.0000 0.83820  0.90240  0.77140  Biso   1.000  H
  H54      1.0000 0.83820  0.59760  0.27140  Biso   1.000  H
  H55      1.0000 0.16180  0.09760  0.22860  Biso   1.000  H
  H56      1.0000 0.16180  0.40240  0.72860  Biso   1.000  H
  H57      1.0000 0.68950  0.85050  0.80770  Biso   1.000  H
  H58      1.0000 0.68950  0.64950  0.30770  Biso   1.000  H
  H59      1.0000 0.31050  0.14950  0.19230  Biso   1.000  H
  H60      1.0000 0.31050  0.35050  0.69230  Biso   1.000  H
  H61      1.0000 0.67490  0.97360  0.77090  Biso   1.000  H
  H62      1.0000 0.67490  0.52640  0.27090  Biso   1.000  H
  H63      1.0000 0.32510  0.02640  0.22910  Biso   1.000  H
  H64      1.0000 0.32510  0.47360  0.72910  Biso   1.000  H
