data_image0
_cell_length_a       24.907
_cell_length_b       6.894
_cell_length_c       18.259
_cell_angle_alpha    90
_cell_angle_beta     102.79
_cell_angle_gamma    90

_symmetry_space_group_name_H-M    "P 1"
_symmetry_int_tables_number       1

loop_
  _symmetry_equiv_pos_as_xyz
  'x, y, z'

loop_
  _atom_site_label
  _atom_site_occupancy
  _atom_site_fract_x
  _atom_site_fract_y
  _atom_site_fract_z
  _atom_site_thermal_displace_type
  _atom_site_B_iso_or_equiv
  _atom_site_type_symbol
  Cu1      1.0000 0.24332  0.09663  0.03555  Biso   1.000  Cu
  Cu2      1.0000 0.75668  0.09663  0.46445  Biso   1.000  Cu
  Cu3      1.0000 0.74332  0.59663  0.03555  Biso   1.000  Cu
  Cu4      1.0000 0.25668  0.59663  0.46445  Biso   1.000  Cu
  Cu5      1.0000 0.75668  0.90337  0.96445  Biso   1.000  Cu
  Cu6      1.0000 0.24332  0.90337  0.53555  Biso   1.000  Cu
  Cu7      1.0000 0.25668  0.40337  0.96445  Biso   1.000  Cu
  Cu8      1.0000 0.74332  0.40337  0.53555  Biso   1.000  Cu
  Cu9      1.0000 0.43632  0.27493  0.12743  Biso   1.000  Cu
  Cu10     1.0000 0.56368  0.27493  0.37257  Biso   1.000  Cu
  Cu11     1.0000 0.93632  0.77493  0.12743  Biso   1.000  Cu
  Cu12     1.0000 0.06368  0.77493  0.37257  Biso   1.000  Cu
  Cu13     1.0000 0.56368  0.72507  0.87257  Biso   1.000  Cu
  Cu14     1.0000 0.43632  0.72507  0.62743  Biso   1.000  Cu
  Cu15     1.0000 0.06368  0.22507  0.87257  Biso   1.000  Cu
  Cu16     1.0000 0.93632  0.22507  0.62743  Biso   1.000  Cu
  C1       1.0000 0.31540  0.24660  0.05280  Biso   1.000  C
  C2       1.0000 0.68460  0.24660  0.44720  Biso   1.000  C
  C3       1.0000 0.81540  0.74660  0.05280  Biso   1.000  C
  C4       1.0000 0.18460  0.74660  0.44720  Biso   1.000  C
  C5       1.0000 0.68460  0.75340  0.94720  Biso   1.000  C
  C6       1.0000 0.31540  0.75340  0.55280  Biso   1.000  C
  C7       1.0000 0.18460  0.25340  0.94720  Biso   1.000  C
  C8       1.0000 0.81540  0.25340  0.55280  Biso   1.000  C
  N1       1.0000 0.36060  0.25970  0.08220  Biso   1.000  N
  N2       1.0000 0.63940  0.25970  0.41780  Biso   1.000  N
  N3       1.0000 0.86060  0.75970  0.08220  Biso   1.000  N
  N4       1.0000 0.13940  0.75970  0.41780  Biso   1.000  N
  N5       1.0000 0.63940  0.74030  0.91780  Biso   1.000  N
  N6       1.0000 0.36060  0.74030  0.58220  Biso   1.000  N
  N7       1.0000 0.13940  0.24030  0.91780  Biso   1.000  N
  N8       1.0000 0.86060  0.24030  0.58220  Biso   1.000  N
  N9       1.0000 0.24850  0.82860  0.00980  Biso   1.000  N
  N10      1.0000 0.75150  0.82860  0.49020  Biso   1.000  N
  N11      1.0000 0.74850  0.32860  0.00980  Biso   1.000  N
  N12      1.0000 0.25150  0.32860  0.49020  Biso   1.000  N
  N13      1.0000 0.75150  0.17140  0.99020  Biso   1.000  N
  N14      1.0000 0.24850  0.17140  0.50980  Biso   1.000  N
  N15      1.0000 0.25150  0.67140  0.99020  Biso   1.000  N
  N16      1.0000 0.74850  0.67140  0.50980  Biso   1.000  N
  N17      1.0000 0.48420  0.29310  0.22170  Biso   1.000  N
  N18      1.0000 0.51580  0.29310  0.27830  Biso   1.000  N
  N19      1.0000 0.98420  0.79310  0.22170  Biso   1.000  N
  N20      1.0000 0.01580  0.79310  0.27830  Biso   1.000  N
  N21      1.0000 0.51580  0.70690  0.77830  Biso   1.000  N
  N22      1.0000 0.48420  0.70690  0.72170  Biso   1.000  N
  N23      1.0000 0.01580  0.20690  0.77830  Biso   1.000  N
  N24      1.0000 0.98420  0.20690  0.72170  Biso   1.000  N
  N25      1.0000 0.20870  0.17200  0.12470  Biso   1.000  N
  N26      1.0000 0.79130  0.17200  0.37530  Biso   1.000  N
  N27      1.0000 0.70870  0.67200  0.12470  Biso   1.000  N
  N28      1.0000 0.29130  0.67200  0.37530  Biso   1.000  N
  N29      1.0000 0.79130  0.82800  0.87530  Biso   1.000  N
  N30      1.0000 0.20870  0.82800  0.62470  Biso   1.000  N
  N31      1.0000 0.29130  0.32800  0.87530  Biso   1.000  N
  N32      1.0000 0.70870  0.32800  0.62470  Biso   1.000  N
  C9       1.0000 0.19920  0.06740  0.17950  Biso   1.000  C
  C10      1.0000 0.80080  0.06740  0.32050  Biso   1.000  C
  C11      1.0000 0.69920  0.56740  0.17950  Biso   1.000  C
  C12      1.0000 0.30080  0.56740  0.32050  Biso   1.000  C
  C13      1.0000 0.80080  0.93260  0.82050  Biso   1.000  C
  C14      1.0000 0.19920  0.93260  0.67950  Biso   1.000  C
  C15      1.0000 0.30080  0.43260  0.82050  Biso   1.000  C
  C16      1.0000 0.69920  0.43260  0.67950  Biso   1.000  C
  H1       1.0000 0.20670  0.93550  0.18540  Biso   1.000  H
  H2       1.0000 0.79330  0.93550  0.31460  Biso   1.000  H
  H3       1.0000 0.70670  0.43550  0.18540  Biso   1.000  H
  H4       1.0000 0.29330  0.43550  0.31460  Biso   1.000  H
  H5       1.0000 0.79330  0.06450  0.81460  Biso   1.000  H
  H6       1.0000 0.20670  0.06450  0.68540  Biso   1.000  H
  H7       1.0000 0.29330  0.56450  0.81460  Biso   1.000  H
  H8       1.0000 0.70670  0.56450  0.68540  Biso   1.000  H
  N33      1.0000 0.17660  0.17700  0.22730  Biso   1.000  N
  N34      1.0000 0.82340  0.17700  0.27270  Biso   1.000  N
  N35      1.0000 0.67660  0.67700  0.22730  Biso   1.000  N
  N36      1.0000 0.32340  0.67700  0.27270  Biso   1.000  N
  N37      1.0000 0.82340  0.82300  0.77270  Biso   1.000  N
  N38      1.0000 0.17660  0.82300  0.72730  Biso   1.000  N
  N39      1.0000 0.32340  0.32300  0.77270  Biso   1.000  N
  N40      1.0000 0.67660  0.32300  0.72730  Biso   1.000  N
  C17      1.0000 0.17260  0.35470  0.19930  Biso   1.000  C
  C18      1.0000 0.82740  0.35470  0.30070  Biso   1.000  C
  C19      1.0000 0.67260  0.85470  0.19930  Biso   1.000  C
  C20      1.0000 0.32740  0.85470  0.30070  Biso   1.000  C
  C21      1.0000 0.82740  0.64530  0.80070  Biso   1.000  C
  C22      1.0000 0.17260  0.64530  0.69930  Biso   1.000  C
  C23      1.0000 0.32740  0.14530  0.80070  Biso   1.000  C
  C24      1.0000 0.67260  0.14530  0.69930  Biso   1.000  C
  C25      1.0000 0.19220  0.35620  0.13680  Biso   1.000  C
  C26      1.0000 0.80780  0.35620  0.36320  Biso   1.000  C
  C27      1.0000 0.69220  0.85620  0.13680  Biso   1.000  C
  C28      1.0000 0.30780  0.85620  0.36320  Biso   1.000  C
  C29      1.0000 0.80780  0.64380  0.86320  Biso   1.000  C
  C30      1.0000 0.19220  0.64380  0.63680  Biso   1.000  C
  C31      1.0000 0.30780  0.14380  0.86320  Biso   1.000  C
  C32      1.0000 0.69220  0.14380  0.63680  Biso   1.000  C
  H9       1.0000 0.19430  0.46380  0.10680  Biso   1.000  H
  H10      1.0000 0.80570  0.46380  0.39320  Biso   1.000  H
  H11      1.0000 0.69430  0.96380  0.10680  Biso   1.000  H
  H12      1.0000 0.30570  0.96380  0.39320  Biso   1.000  H
  H13      1.0000 0.80570  0.53620  0.89320  Biso   1.000  H
  H14      1.0000 0.19430  0.53620  0.60680  Biso   1.000  H
  H15      1.0000 0.30570  0.03620  0.89320  Biso   1.000  H
  H16      1.0000 0.69430  0.03620  0.60680  Biso   1.000  H
  C33      1.0000 0.16090  0.10880  0.29610  Biso   1.000  C
  C34      1.0000 0.83910  0.10880  0.20390  Biso   1.000  C
  C35      1.0000 0.66090  0.60880  0.29610  Biso   1.000  C
  C36      1.0000 0.33910  0.60880  0.20390  Biso   1.000  C
  C37      1.0000 0.83910  0.89120  0.70390  Biso   1.000  C
  C38      1.0000 0.16090  0.89120  0.79610  Biso   1.000  C
  C39      1.0000 0.33910  0.39120  0.70390  Biso   1.000  C
  C40      1.0000 0.66090  0.39120  0.79610  Biso   1.000  C
  H17      1.0000 0.17460  0.97970  0.30760  Biso   1.000  H
  H18      1.0000 0.82540  0.97970  0.19240  Biso   1.000  H
  H19      1.0000 0.67460  0.47970  0.30760  Biso   1.000  H
  H20      1.0000 0.32540  0.47970  0.19240  Biso   1.000  H
  H21      1.0000 0.82540  0.02030  0.69240  Biso   1.000  H
  H22      1.0000 0.17460  0.02030  0.80760  Biso   1.000  H
  H23      1.0000 0.32540  0.52030  0.69240  Biso   1.000  H
  H24      1.0000 0.67460  0.52030  0.80760  Biso   1.000  H
  H25      1.0000 0.12150  0.10880  0.28860  Biso   1.000  H
  H26      1.0000 0.87850  0.10880  0.21140  Biso   1.000  H
  H27      1.0000 0.62150  0.60880  0.28860  Biso   1.000  H
  H28      1.0000 0.37850  0.60880  0.21140  Biso   1.000  H
  H29      1.0000 0.87850  0.89120  0.71140  Biso   1.000  H
  H30      1.0000 0.12150  0.89120  0.78860  Biso   1.000  H
  H31      1.0000 0.37850  0.39120  0.71140  Biso   1.000  H
  H32      1.0000 0.62150  0.39120  0.78860  Biso   1.000  H
  H33      1.0000 0.17630  0.19370  0.33710  Biso   1.000  H
  H34      1.0000 0.82370  0.19370  0.16290  Biso   1.000  H
  H35      1.0000 0.67630  0.69370  0.33710  Biso   1.000  H
  H36      1.0000 0.32370  0.69370  0.16290  Biso   1.000  H
  H37      1.0000 0.82370  0.80630  0.66290  Biso   1.000  H
  H38      1.0000 0.17630  0.80630  0.83710  Biso   1.000  H
  H39      1.0000 0.32370  0.30630  0.66290  Biso   1.000  H
  H40      1.0000 0.67630  0.30630  0.83710  Biso   1.000  H
  Cl1      1.0000 0.14525  0.54100  0.24208  Biso   1.000  Cl
  Cl2      1.0000 0.85475  0.54100  0.25792  Biso   1.000  Cl
  Cl3      1.0000 0.64525  0.04100  0.24208  Biso   1.000  Cl
  Cl4      1.0000 0.35475  0.04100  0.25792  Biso   1.000  Cl
  Cl5      1.0000 0.85475  0.45900  0.75792  Biso   1.000  Cl
  Cl6      1.0000 0.14525  0.45900  0.74208  Biso   1.000  Cl
  Cl7      1.0000 0.35475  0.95900  0.75792  Biso   1.000  Cl
  Cl8      1.0000 0.64525  0.95900  0.74208  Biso   1.000  Cl
  N41      1.0000 0.48060  0.26400  0.04660  Biso   1.000  N
  N42      1.0000 0.51940  0.26400  0.45340  Biso   1.000  N
  N43      1.0000 0.98060  0.76400  0.04660  Biso   1.000  N
  N44      1.0000 0.01940  0.76400  0.45340  Biso   1.000  N
  N45      1.0000 0.51940  0.73600  0.95340  Biso   1.000  N
  N46      1.0000 0.48060  0.73600  0.54660  Biso   1.000  N
  N47      1.0000 0.01940  0.23600  0.95340  Biso   1.000  N
  N48      1.0000 0.98060  0.23600  0.54660  Biso   1.000  N
  C41      1.0000 0.53480  0.27000  0.05830  Biso   1.000  C
  C42      1.0000 0.46520  0.27000  0.44170  Biso   1.000  C
  C43      1.0000 0.03480  0.77000  0.05830  Biso   1.000  C
  C44      1.0000 0.96520  0.77000  0.44170  Biso   1.000  C
  C45      1.0000 0.46520  0.73000  0.94170  Biso   1.000  C
  C46      1.0000 0.53480  0.73000  0.55830  Biso   1.000  C
  C47      1.0000 0.96520  0.23000  0.94170  Biso   1.000  C
  C48      1.0000 0.03480  0.23000  0.55830  Biso   1.000  C
  H41      1.0000 0.55820  0.28760  0.10510  Biso   1.000  H
  H42      1.0000 0.44180  0.28760  0.39490  Biso   1.000  H
  H43      1.0000 0.05820  0.78760  0.10510  Biso   1.000  H
  H44      1.0000 0.94180  0.78760  0.39490  Biso   1.000  H
  H45      1.0000 0.44180  0.71240  0.89490  Biso   1.000  H
  H46      1.0000 0.55820  0.71240  0.60510  Biso   1.000  H
  H47      1.0000 0.94180  0.21240  0.89490  Biso   1.000  H
  H48      1.0000 0.05820  0.21240  0.60510  Biso   1.000  H
  N49      1.0000 0.55180  0.24970  0.99440  Biso   1.000  N
  N50      1.0000 0.44820  0.24970  0.50560  Biso   1.000  N
  N51      1.0000 0.05180  0.74970  0.99440  Biso   1.000  N
  N52      1.0000 0.94820  0.74970  0.50560  Biso   1.000  N
  N53      1.0000 0.44820  0.75030  0.00560  Biso   1.000  N
  N54      1.0000 0.55180  0.75030  0.49440  Biso   1.000  N
  N55      1.0000 0.94820  0.25030  0.00560  Biso   1.000  N
  N56      1.0000 0.05180  0.25030  0.49440  Biso   1.000  N
  C49      1.0000 0.50720  0.23100  0.93970  Biso   1.000  C
  C50      1.0000 0.49280  0.23100  0.56030  Biso   1.000  C
  C51      1.0000 0.00720  0.73100  0.93970  Biso   1.000  C
  C52      1.0000 0.99280  0.73100  0.56030  Biso   1.000  C
  C53      1.0000 0.49280  0.76900  0.06030  Biso   1.000  C
  C54      1.0000 0.50720  0.76900  0.43970  Biso   1.000  C
  C55      1.0000 0.99280  0.26900  0.06030  Biso   1.000  C
  C56      1.0000 0.00720  0.26900  0.43970  Biso   1.000  C
  C57      1.0000 0.46300  0.24200  0.97090  Biso   1.000  C
  C58      1.0000 0.53700  0.24200  0.52910  Biso   1.000  C
  C59      1.0000 0.96300  0.74200  0.97090  Biso   1.000  C
  C60      1.0000 0.03700  0.74200  0.52910  Biso   1.000  C
  C61      1.0000 0.53700  0.75800  0.02910  Biso   1.000  C
  C62      1.0000 0.46300  0.75800  0.47090  Biso   1.000  C
  C63      1.0000 0.03700  0.25800  0.02910  Biso   1.000  C
  C64      1.0000 0.96300  0.25800  0.47090  Biso   1.000  C
  H49      1.0000 0.42650  0.23580  0.94490  Biso   1.000  H
  H50      1.0000 0.57350  0.23580  0.55510  Biso   1.000  H
  H51      1.0000 0.92650  0.73580  0.94490  Biso   1.000  H
  H52      1.0000 0.07350  0.73580  0.55510  Biso   1.000  H
  H53      1.0000 0.57350  0.76420  0.05510  Biso   1.000  H
  H54      1.0000 0.42650  0.76420  0.44490  Biso   1.000  H
  H55      1.0000 0.07350  0.26420  0.05510  Biso   1.000  H
  H56      1.0000 0.92650  0.26420  0.44490  Biso   1.000  H
  C65      1.0000 0.61410  0.24300  0.99270  Biso   1.000  C
  C66      1.0000 0.38590  0.24300  0.50730  Biso   1.000  C
  C67      1.0000 0.11410  0.74300  0.99270  Biso   1.000  C
  C68      1.0000 0.88590  0.74300  0.50730  Biso   1.000  C
  C69      1.0000 0.38590  0.75700  0.00730  Biso   1.000  C
  C70      1.0000 0.61410  0.75700  0.49270  Biso   1.000  C
  C71      1.0000 0.88590  0.25700  0.00730  Biso   1.000  C
  C72      1.0000 0.11410  0.25700  0.49270  Biso   1.000  C
  H57      1.0000 0.62330  0.35490  0.96670  Biso   1.000  H
  H58      1.0000 0.37670  0.35490  0.53330  Biso   1.000  H
  H59      1.0000 0.12330  0.85490  0.96670  Biso   1.000  H
  H60      1.0000 0.87670  0.85490  0.53330  Biso   1.000  H
  H61      1.0000 0.37670  0.64510  0.03330  Biso   1.000  H
  H62      1.0000 0.62330  0.64510  0.46670  Biso   1.000  H
  H63      1.0000 0.87670  0.14510  0.03330  Biso   1.000  H
  H64      1.0000 0.12330  0.14510  0.46670  Biso   1.000  H
  H65      1.0000 0.62150  0.12760  0.96730  Biso   1.000  H
  H66      1.0000 0.37850  0.12760  0.53270  Biso   1.000  H
  H67      1.0000 0.12150  0.62760  0.96730  Biso   1.000  H
  H68      1.0000 0.87850  0.62760  0.53270  Biso   1.000  H
  H69      1.0000 0.37850  0.87240  0.03270  Biso   1.000  H
  H70      1.0000 0.62150  0.87240  0.46730  Biso   1.000  H
  H71      1.0000 0.87850  0.37240  0.03270  Biso   1.000  H
  H72      1.0000 0.12150  0.37240  0.46730  Biso   1.000  H
  H73      1.0000 0.63590  0.24250  0.04320  Biso   1.000  H
  H74      1.0000 0.36410  0.24250  0.45680  Biso   1.000  H
  H75      1.0000 0.13590  0.74250  0.04320  Biso   1.000  H
  H76      1.0000 0.86410  0.74250  0.45680  Biso   1.000  H
  H77      1.0000 0.36410  0.75750  0.95680  Biso   1.000  H
  H78      1.0000 0.63590  0.75750  0.54320  Biso   1.000  H
  H79      1.0000 0.86410  0.25750  0.95680  Biso   1.000  H
  H80      1.0000 0.13590  0.25750  0.54320  Biso   1.000  H
  Cl9      1.0000 0.50750  0.20430  0.84650  Biso   1.000  Cl
  Cl10     1.0000 0.49250  0.20430  0.65350  Biso   1.000  Cl
  Cl11     1.0000 0.00750  0.70430  0.84650  Biso   1.000  Cl
  Cl12     1.0000 0.99250  0.70430  0.65350  Biso   1.000  Cl
  Cl13     1.0000 0.49250  0.79570  0.15350  Biso   1.000  Cl
  Cl14     1.0000 0.50750  0.79570  0.34650  Biso   1.000  Cl
  Cl15     1.0000 0.99250  0.29570  0.15350  Biso   1.000  Cl
  Cl16     1.0000 0.00750  0.29570  0.34650  Biso   1.000  Cl
  N57      1.0000 0.47100  0.25000  0.03500  Biso   1.000  N
  N58      1.0000 0.52900  0.25000  0.46500  Biso   1.000  N
  N59      1.0000 0.97100  0.75000  0.03500  Biso   1.000  N
  N60      1.0000 0.02900  0.75000  0.46500  Biso   1.000  N
  N61      1.0000 0.52900  0.75000  0.96500  Biso   1.000  N
  N62      1.0000 0.47100  0.75000  0.53500  Biso   1.000  N
  N63      1.0000 0.02900  0.25000  0.96500  Biso   1.000  N
  N64      1.0000 0.97100  0.25000  0.53500  Biso   1.000  N
  C73      1.0000 0.45270  0.25000  0.96200  Biso   1.000  C
  C74      1.0000 0.54730  0.25000  0.53800  Biso   1.000  C
  C75      1.0000 0.95270  0.75000  0.96200  Biso   1.000  C
  C76      1.0000 0.04730  0.75000  0.53800  Biso   1.000  C
  C77      1.0000 0.54730  0.75000  0.03800  Biso   1.000  C
  C78      1.0000 0.45270  0.75000  0.46200  Biso   1.000  C
  C79      1.0000 0.04730  0.25000  0.03800  Biso   1.000  C
  C80      1.0000 0.95270  0.25000  0.46200  Biso   1.000  C
  H81      1.0000 0.41550  0.25190  0.93820  Biso   1.000  H
  H82      1.0000 0.58450  0.25190  0.56180  Biso   1.000  H
  H83      1.0000 0.91550  0.75190  0.93820  Biso   1.000  H
  H84      1.0000 0.08450  0.75190  0.56180  Biso   1.000  H
  H85      1.0000 0.58450  0.74810  0.06180  Biso   1.000  H
  H86      1.0000 0.41550  0.74810  0.43820  Biso   1.000  H
  H87      1.0000 0.08450  0.24810  0.06180  Biso   1.000  H
  H88      1.0000 0.91550  0.24810  0.43820  Biso   1.000  H
  N65      1.0000 0.49360  0.25500  0.92600  Biso   1.000  N
  N66      1.0000 0.50640  0.25500  0.57400  Biso   1.000  N
  N67      1.0000 0.99360  0.75500  0.92600  Biso   1.000  N
  N68      1.0000 0.00640  0.75500  0.57400  Biso   1.000  N
  N69      1.0000 0.50640  0.74500  0.07400  Biso   1.000  N
  N70      1.0000 0.49360  0.74500  0.42600  Biso   1.000  N
  N71      1.0000 0.00640  0.24500  0.07400  Biso   1.000  N
  N72      1.0000 0.99360  0.24500  0.42600  Biso   1.000  N
  C81      1.0000 0.54030  0.24400  0.97710  Biso   1.000  C
  C82      1.0000 0.45970  0.24400  0.52290  Biso   1.000  C
  C83      1.0000 0.04030  0.74400  0.97710  Biso   1.000  C
  C84      1.0000 0.95970  0.74400  0.52290  Biso   1.000  C
  C85      1.0000 0.45970  0.75600  0.02290  Biso   1.000  C
  C86      1.0000 0.54030  0.75600  0.47710  Biso   1.000  C
  C87      1.0000 0.95970  0.25600  0.02290  Biso   1.000  C
  C88      1.0000 0.04030  0.25600  0.47710  Biso   1.000  C
  C89      1.0000 0.52700  0.24000  0.04500  Biso   1.000  C
  C90      1.0000 0.47300  0.24000  0.45500  Biso   1.000  C
  C91      1.0000 0.02700  0.74000  0.04500  Biso   1.000  C
  C92      1.0000 0.97300  0.74000  0.45500  Biso   1.000  C
  C93      1.0000 0.47300  0.76000  0.95500  Biso   1.000  C
  C94      1.0000 0.52700  0.76000  0.54500  Biso   1.000  C
  C95      1.0000 0.97300  0.26000  0.95500  Biso   1.000  C
  C96      1.0000 0.02700  0.26000  0.54500  Biso   1.000  C
  H89      1.0000 0.55220  0.22810  0.09080  Biso   1.000  H
  H90      1.0000 0.44780  0.22810  0.40920  Biso   1.000  H
  H91      1.0000 0.05220  0.72810  0.09080  Biso   1.000  H
  H92      1.0000 0.94780  0.72810  0.40920  Biso   1.000  H
  H93      1.0000 0.44780  0.77190  0.90920  Biso   1.000  H
  H94      1.0000 0.55220  0.77190  0.59080  Biso   1.000  H
  H95      1.0000 0.94780  0.27190  0.90920  Biso   1.000  H
  H96      1.0000 0.05220  0.27190  0.59080  Biso   1.000  H
  C97      1.0000 0.48300  0.28500  0.83900  Biso   1.000  C
  C98      1.0000 0.51700  0.28500  0.66100  Biso   1.000  C
  C99      1.0000 0.98300  0.78500  0.83900  Biso   1.000  C
  C100     1.0000 0.01700  0.78500  0.66100  Biso   1.000  C
  C101     1.0000 0.51700  0.71500  0.16100  Biso   1.000  C
  C102     1.0000 0.48300  0.71500  0.33900  Biso   1.000  C
  C103     1.0000 0.01700  0.21500  0.16100  Biso   1.000  C
  C104     1.0000 0.98300  0.21500  0.33900  Biso   1.000  C
  H97      1.0000 0.45860  0.39260  0.82440  Biso   1.000  H
  H98      1.0000 0.54140  0.39260  0.67560  Biso   1.000  H
  H99      1.0000 0.95860  0.89260  0.82440  Biso   1.000  H
  H100     1.0000 0.04140  0.89260  0.67560  Biso   1.000  H
  H101     1.0000 0.54140  0.60740  0.17560  Biso   1.000  H
  H102     1.0000 0.45860  0.60740  0.32440  Biso   1.000  H
  H103     1.0000 0.04140  0.10740  0.17560  Biso   1.000  H
  H104     1.0000 0.95860  0.10740  0.32440  Biso   1.000  H
  H105     1.0000 0.46680  0.16980  0.81380  Biso   1.000  H
  H106     1.0000 0.53320  0.16980  0.68620  Biso   1.000  H
  H107     1.0000 0.96680  0.66980  0.81380  Biso   1.000  H
  H108     1.0000 0.03320  0.66980  0.68620  Biso   1.000  H
  H109     1.0000 0.53320  0.83020  0.18620  Biso   1.000  H
  H110     1.0000 0.46680  0.83020  0.31380  Biso   1.000  H
  H111     1.0000 0.03320  0.33020  0.18620  Biso   1.000  H
  H112     1.0000 0.96680  0.33020  0.31380  Biso   1.000  H
  H113     1.0000 0.51740  0.31080  0.82490  Biso   1.000  H
  H114     1.0000 0.48260  0.31080  0.67510  Biso   1.000  H
  H115     1.0000 0.01740  0.81080  0.82490  Biso   1.000  H
  H116     1.0000 0.98260  0.81080  0.67510  Biso   1.000  H
  H117     1.0000 0.48260  0.68920  0.17510  Biso   1.000  H
  H118     1.0000 0.51740  0.68920  0.32490  Biso   1.000  H
  H119     1.0000 0.98260  0.18920  0.17510  Biso   1.000  H
  H120     1.0000 0.01740  0.18920  0.32490  Biso   1.000  H
  Cl17     1.0000 0.60480  0.25100  0.95860  Biso   1.000  Cl
  Cl18     1.0000 0.39520  0.25100  0.54140  Biso   1.000  Cl
  Cl19     1.0000 0.10480  0.75100  0.95860  Biso   1.000  Cl
  Cl20     1.0000 0.89520  0.75100  0.54140  Biso   1.000  Cl
  Cl21     1.0000 0.39520  0.74900  0.04140  Biso   1.000  Cl
  Cl22     1.0000 0.60480  0.74900  0.45860  Biso   1.000  Cl
  Cl23     1.0000 0.89520  0.24900  0.04140  Biso   1.000  Cl
  Cl24     1.0000 0.10480  0.24900  0.45860  Biso   1.000  Cl
