data_image0
_cell_length_a       31.936
_cell_length_b       10.664
_cell_length_c       12.361
_cell_angle_alpha    90
_cell_angle_beta     96.2
_cell_angle_gamma    90

_symmetry_space_group_name_H-M    "P 1"
_symmetry_int_tables_number       1

loop_
  _symmetry_equiv_pos_as_xyz
  'x, y, z'

loop_
  _atom_site_label
  _atom_site_occupancy
  _atom_site_fract_x
  _atom_site_fract_y
  _atom_site_fract_z
  _atom_site_thermal_displace_type
  _atom_site_B_iso_or_equiv
  _atom_site_type_symbol
  Mn1      1.0000 0.24953  0.25010  0.49958  Biso   1.000  Mn
  Mn2      1.0000 0.25047  0.75010  0.00042  Biso   1.000  Mn
  Mn3      1.0000 0.75047  0.74990  0.50042  Biso   1.000  Mn
  Mn4      1.0000 0.74953  0.24990  0.99958  Biso   1.000  Mn
  Cu1      1.0000 0.99565  0.25738  0.28498  Biso   1.000  Cu
  Cu2      1.0000 0.50435  0.75738  0.21502  Biso   1.000  Cu
  Cu3      1.0000 0.00435  0.74262  0.71502  Biso   1.000  Cu
  Cu4      1.0000 0.49565  0.24262  0.78498  Biso   1.000  Cu
  C1       1.0000 0.07450  0.25460  0.43450  Biso   1.000  C
  C2       1.0000 0.42550  0.75460  0.06550  Biso   1.000  C
  C3       1.0000 0.92550  0.74540  0.56550  Biso   1.000  C
  C4       1.0000 0.57450  0.24540  0.93450  Biso   1.000  C
  C5       1.0000 0.14510  0.24510  0.48470  Biso   1.000  C
  C6       1.0000 0.35490  0.74510  0.01530  Biso   1.000  C
  C7       1.0000 0.85490  0.75490  0.51530  Biso   1.000  C
  C8       1.0000 0.64510  0.25490  0.98470  Biso   1.000  C
  C9       1.0000 0.35260  0.25200  0.53840  Biso   1.000  C
  C10      1.0000 0.14740  0.75200  0.96160  Biso   1.000  C
  C11      1.0000 0.64740  0.74800  0.46160  Biso   1.000  C
  C12      1.0000 0.85260  0.24800  0.03840  Biso   1.000  C
  C13      1.0000 0.42010  0.23970  0.62670  Biso   1.000  C
  C14      1.0000 0.07990  0.73970  0.87330  Biso   1.000  C
  C15      1.0000 0.57990  0.76030  0.37330  Biso   1.000  C
  C16      1.0000 0.92010  0.26030  0.12670  Biso   1.000  C
  C17      1.0000 0.25530  0.95610  0.41090  Biso   1.000  C
  C18      1.0000 0.24470  0.45610  0.08910  Biso   1.000  C
  C19      1.0000 0.74470  0.04390  0.58910  Biso   1.000  C
  C20      1.0000 0.75530  0.54390  0.91090  Biso   1.000  C
  C21      1.0000 0.25050  0.54400  0.59050  Biso   1.000  C
  C22      1.0000 0.24950  0.04400  0.90950  Biso   1.000  C
  C23      1.0000 0.74950  0.45600  0.40950  Biso   1.000  C
  C24      1.0000 0.75050  0.95600  0.09050  Biso   1.000  C
  C25      1.0000 0.25270  0.67130  0.73830  Biso   1.000  C
  C26      1.0000 0.24730  0.17130  0.76170  Biso   1.000  C
  C27      1.0000 0.74730  0.32870  0.26170  Biso   1.000  C
  C28      1.0000 0.75270  0.82870  0.23830  Biso   1.000  C
  C29      1.0000 0.25180  0.82700  0.26520  Biso   1.000  C
  C30      1.0000 0.24820  0.32700  0.23480  Biso   1.000  C
  C31      1.0000 0.74820  0.17300  0.73480  Biso   1.000  C
  C32      1.0000 0.75180  0.67300  0.76520  Biso   1.000  C
  N1       1.0000 0.04310  0.25410  0.38000  Biso   1.000  N
  N2       1.0000 0.45690  0.75410  0.12000  Biso   1.000  N
  N3       1.0000 0.95690  0.74590  0.62000  Biso   1.000  N
  N4       1.0000 0.54310  0.24590  0.88000  Biso   1.000  N
  N5       1.0000 0.10618  0.25580  0.50340  Biso   1.000  N
  N6       1.0000 0.39382  0.75580  0.99660  Biso   1.000  N
  N7       1.0000 0.89382  0.74420  0.49660  Biso   1.000  N
  N8       1.0000 0.60618  0.24420  0.00340  Biso   1.000  N
  N9       1.0000 0.18040  0.23520  0.47990  Biso   1.000  N
  N10      1.0000 0.31960  0.73520  0.02010  Biso   1.000  N
  N11      1.0000 0.81960  0.76480  0.52010  Biso   1.000  N
  N12      1.0000 0.68040  0.26480  0.97990  Biso   1.000  N
  N13      1.0000 0.31800  0.26150  0.52160  Biso   1.000  N
  N14      1.0000 0.18200  0.76150  0.97840  Biso   1.000  N
  N15      1.0000 0.68200  0.73850  0.47840  Biso   1.000  N
  N16      1.0000 0.81800  0.23850  0.02160  Biso   1.000  N
  N17      1.0000 0.39260  0.23770  0.54330  Biso   1.000  N
  N18      1.0000 0.10740  0.73770  0.95670  Biso   1.000  N
  N19      1.0000 0.60740  0.76230  0.45670  Biso   1.000  N
  N20      1.0000 0.89260  0.26230  0.04330  Biso   1.000  N
  N21      1.0000 0.44860  0.24020  0.69000  Biso   1.000  N
  N22      1.0000 0.05140  0.74020  0.81000  Biso   1.000  N
  N23      1.0000 0.55140  0.75980  0.31000  Biso   1.000  N
  N24      1.0000 0.94860  0.25980  0.19000  Biso   1.000  N
  N25      1.0000 0.25050  0.84290  0.36900  Biso   1.000  N
  N26      1.0000 0.24950  0.34290  0.13100  Biso   1.000  N
  N27      1.0000 0.74950  0.15710  0.63100  Biso   1.000  N
  N28      1.0000 0.75050  0.65710  0.86900  Biso   1.000  N
  N29      1.0000 0.25620  0.04760  0.45540  Biso   1.000  N
  N30      1.0000 0.24380  0.54760  0.04460  Biso   1.000  N
  N31      1.0000 0.74380  0.95240  0.54460  Biso   1.000  N
  N32      1.0000 0.75620  0.45240  0.95540  Biso   1.000  N
  N33      1.0000 0.24610  0.45150  0.54400  Biso   1.000  N
  N34      1.0000 0.25390  0.95150  0.95600  Biso   1.000  N
  N35      1.0000 0.75390  0.54850  0.45600  Biso   1.000  N
  N36      1.0000 0.74610  0.04850  0.04400  Biso   1.000  N
  N37      1.0000 0.25630  0.65370  0.63520  Biso   1.000  N
  N38      1.0000 0.24370  0.15370  0.86480  Biso   1.000  N
  N39      1.0000 0.74370  0.34630  0.36480  Biso   1.000  N
  N40      1.0000 0.75630  0.84630  0.13520  Biso   1.000  N
  N41      1.0000 0.25110  0.69980  0.82560  Biso   1.000  N
  N42      1.0000 0.24890  0.19980  0.67440  Biso   1.000  N
  N43      1.0000 0.74890  0.30020  0.17440  Biso   1.000  N
  N44      1.0000 0.75110  0.80020  0.32560  Biso   1.000  N
  N45      1.0000 0.25120  0.79940  0.17520  Biso   1.000  N
  N46      1.0000 0.24880  0.29940  0.32480  Biso   1.000  N
  N47      1.0000 0.74880  0.20060  0.82480  Biso   1.000  N
  N48      1.0000 0.75120  0.70060  0.67520  Biso   1.000  N
  S1       1.0000 0.03619  0.00460  0.16000  Biso   1.000  S
  S2       1.0000 0.46381  0.50460  0.34000  Biso   1.000  S
  S3       1.0000 0.96381  0.99540  0.84000  Biso   1.000  S
  S4       1.0000 0.53619  0.49540  0.66000  Biso   1.000  S
  S5       1.0000 0.05821  0.06220  0.94109  Biso   1.000  S
  S6       1.0000 0.44179  0.56220  0.55891  Biso   1.000  S
  S7       1.0000 0.94179  0.93780  0.05891  Biso   1.000  S
  S8       1.0000 0.55821  0.43780  0.44109  Biso   1.000  S
  S9       1.0000 0.12002  0.05636  0.27048  Biso   1.000  S
  S10      1.0000 0.37998  0.55636  0.22952  Biso   1.000  S
  S11      1.0000 0.87998  0.94364  0.72952  Biso   1.000  S
  S12      1.0000 0.62002  0.44364  0.77048  Biso   1.000  S
  S13      1.0000 0.14679  0.12000  0.01245  Biso   1.000  S
  S14      1.0000 0.35321  0.62000  0.48755  Biso   1.000  S
  S15      1.0000 0.85321  0.88000  0.98755  Biso   1.000  S
  S16      1.0000 0.64679  0.38000  0.51245  Biso   1.000  S
  C33      1.0000 0.01980  0.01450  0.02120  Biso   1.000  C
  C34      1.0000 0.48020  0.51450  0.47880  Biso   1.000  C
  C35      1.0000 0.98020  0.98550  0.97880  Biso   1.000  C
  C36      1.0000 0.51980  0.48550  0.52120  Biso   1.000  C
  C37      1.0000 0.08750  0.05420  0.14930  Biso   1.000  C
  C38      1.0000 0.41250  0.55420  0.35070  Biso   1.000  C
  C39      1.0000 0.91250  0.94580  0.85070  Biso   1.000  C
  C40      1.0000 0.58750  0.44580  0.64930  Biso   1.000  C
  C41      1.0000 0.09750  0.07800  0.05020  Biso   1.000  C
  C42      1.0000 0.40250  0.57800  0.44980  Biso   1.000  C
  C43      1.0000 0.90250  0.92200  0.94980  Biso   1.000  C
  C44      1.0000 0.59750  0.42200  0.55020  Biso   1.000  C
  C45      1.0000 0.16720  0.01900  0.21600  Biso   1.000  C
  C46      1.0000 0.33280  0.51900  0.28400  Biso   1.000  C
  C47      1.0000 0.83280  0.98100  0.78400  Biso   1.000  C
  C48      1.0000 0.66720  0.48100  0.71600  Biso   1.000  C
  H1       1.0000 0.18950  0.01150  0.27520  Biso   1.000  H
  H2       1.0000 0.31050  0.51150  0.22480  Biso   1.000  H
  H3       1.0000 0.81050  0.98850  0.72480  Biso   1.000  H
  H4       1.0000 0.68950  0.48850  0.77520  Biso   1.000  H
  H5       1.0000 0.16390  0.93780  0.18080  Biso   1.000  H
  H6       1.0000 0.33610  0.43780  0.31920  Biso   1.000  H
  H7       1.0000 0.83610  0.06220  0.81920  Biso   1.000  H
  H8       1.0000 0.66390  0.56220  0.68080  Biso   1.000  H
  C49      1.0000 0.18140  0.11090  0.13450  Biso   1.000  C
  C50      1.0000 0.31860  0.61090  0.36550  Biso   1.000  C
  C51      1.0000 0.81860  0.88910  0.86550  Biso   1.000  C
  C52      1.0000 0.68140  0.38910  0.63450  Biso   1.000  C
  H9       1.0000 0.20910  0.08660  0.11680  Biso   1.000  H
  H10      1.0000 0.29090  0.58660  0.38320  Biso   1.000  H
  H11      1.0000 0.79090  0.91340  0.88320  Biso   1.000  H
  H12      1.0000 0.70910  0.41340  0.61680  Biso   1.000  H
  H13      1.0000 0.18380  0.19340  0.16770  Biso   1.000  H
  H14      1.0000 0.31620  0.69340  0.33230  Biso   1.000  H
  H15      1.0000 0.81620  0.80660  0.83230  Biso   1.000  H
  H16      1.0000 0.68380  0.30660  0.66770  Biso   1.000  H
  C53      1.0000 0.17890  0.04670  0.12120  Biso   1.000  C
  C54      1.0000 0.32110  0.54670  0.37880  Biso   1.000  C
  C55      1.0000 0.82110  0.95330  0.87880  Biso   1.000  C
  C56      1.0000 0.67890  0.45330  0.62120  Biso   1.000  C
  H17      1.0000 0.17480  0.95670  0.11530  Biso   1.000  H
  H18      1.0000 0.32520  0.45670  0.38470  Biso   1.000  H
  H19      1.0000 0.82520  0.04330  0.88470  Biso   1.000  H
  H20      1.0000 0.67480  0.54330  0.61530  Biso   1.000  H
  H21      1.0000 0.20810  0.06370  0.11220  Biso   1.000  H
  H22      1.0000 0.29190  0.56370  0.38780  Biso   1.000  H
  H23      1.0000 0.79190  0.93630  0.88780  Biso   1.000  H
  H24      1.0000 0.70810  0.43630  0.61220  Biso   1.000  H
  C57      1.0000 0.17080  0.08700  0.23390  Biso   1.000  C
  C58      1.0000 0.32920  0.58700  0.26610  Biso   1.000  C
  C59      1.0000 0.82920  0.91300  0.76610  Biso   1.000  C
  C60      1.0000 0.67080  0.41300  0.73390  Biso   1.000  C
  H25      1.0000 0.17610  0.17610  0.24070  Biso   1.000  H
  H26      1.0000 0.32390  0.67610  0.25930  Biso   1.000  H
  H27      1.0000 0.82390  0.82390  0.75930  Biso   1.000  H
  H28      1.0000 0.67610  0.32390  0.74070  Biso   1.000  H
  H29      1.0000 0.19110  0.04480  0.28590  Biso   1.000  H
  H30      1.0000 0.30890  0.54480  0.21410  Biso   1.000  H
  H31      1.0000 0.80890  0.95520  0.71410  Biso   1.000  H
  H32      1.0000 0.69110  0.45520  0.78590  Biso   1.000  H
  S17      1.0000 0.04286  0.04580  0.64228  Biso   1.000  S
  S18      1.0000 0.45714  0.54580  0.85772  Biso   1.000  S
  S19      1.0000 0.95714  0.95420  0.35772  Biso   1.000  S
  S20      1.0000 0.54286  0.45420  0.14228  Biso   1.000  S
  S21      1.0000 0.05375  0.90402  0.44776  Biso   1.000  S
  S22      1.0000 0.44625  0.40402  0.05224  Biso   1.000  S
  S23      1.0000 0.94625  0.09598  0.55224  Biso   1.000  S
  S24      1.0000 0.55375  0.59598  0.94776  Biso   1.000  S
  S25      1.0000 0.13075  0.02510  0.73760  Biso   1.000  S
  S26      1.0000 0.36925  0.52510  0.76240  Biso   1.000  S
  S27      1.0000 0.86925  0.97490  0.26240  Biso   1.000  S
  S28      1.0000 0.63075  0.47490  0.23760  Biso   1.000  S
  S29      1.0000 0.14381  0.85480  0.50267  Biso   1.000  S
  S30      1.0000 0.35619  0.35480  0.99733  Biso   1.000  S
  S31      1.0000 0.85619  0.14520  0.49733  Biso   1.000  S
  S32      1.0000 0.64381  0.64520  0.00267  Biso   1.000  S
  C61      1.0000 0.02020  0.98940  0.51930  Biso   1.000  C
  C62      1.0000 0.47980  0.48940  0.98070  Biso   1.000  C
  C63      1.0000 0.97980  0.01060  0.48070  Biso   1.000  C
  C64      1.0000 0.52020  0.51060  0.01930  Biso   1.000  C
  C65      1.0000 0.09290  0.99150  0.63000  Biso   1.000  C
  C66      1.0000 0.40710  0.49150  0.87000  Biso   1.000  C
  C67      1.0000 0.90710  0.00850  0.37000  Biso   1.000  C
  C68      1.0000 0.59290  0.50850  0.13000  Biso   1.000  C
  C69      1.0000 0.09850  0.92310  0.53930  Biso   1.000  C
  C70      1.0000 0.40150  0.42310  0.96070  Biso   1.000  C
  C71      1.0000 0.90150  0.07690  0.46070  Biso   1.000  C
  C72      1.0000 0.59850  0.57690  0.03930  Biso   1.000  C
  C73      1.0000 0.16820  0.90470  0.71830  Biso   1.000  C
  C74      1.0000 0.33180  0.40470  0.78170  Biso   1.000  C
  C75      1.0000 0.83180  0.09530  0.28170  Biso   1.000  C
  C76      1.0000 0.66820  0.59530  0.21830  Biso   1.000  C
  H33      1.0000 0.19240  0.91490  0.77210  Biso   1.000  H
  H34      1.0000 0.30760  0.41490  0.72790  Biso   1.000  H
  H35      1.0000 0.80760  0.08510  0.22790  Biso   1.000  H
  H36      1.0000 0.69240  0.58510  0.27210  Biso   1.000  H
  H37      1.0000 0.15560  0.82390  0.73060  Biso   1.000  H
  H38      1.0000 0.34440  0.32390  0.76940  Biso   1.000  H
  H39      1.0000 0.84440  0.17610  0.26940  Biso   1.000  H
  H40      1.0000 0.65560  0.67610  0.23060  Biso   1.000  H
  C77      1.0000 0.18260  0.90530  0.60880  Biso   1.000  C
  C78      1.0000 0.31740  0.40530  0.89120  Biso   1.000  C
  C79      1.0000 0.81740  0.09470  0.39120  Biso   1.000  C
  C80      1.0000 0.68260  0.59470  0.10880  Biso   1.000  C
  H41      1.0000 0.20710  0.85110  0.60950  Biso   1.000  H
  H42      1.0000 0.29290  0.35110  0.89050  Biso   1.000  H
  H43      1.0000 0.79290  0.14890  0.39050  Biso   1.000  H
  H44      1.0000 0.70710  0.64890  0.10950  Biso   1.000  H
  H45      1.0000 0.19150  0.98960  0.59250  Biso   1.000  H
  H46      1.0000 0.30850  0.48960  0.90750  Biso   1.000  H
  H47      1.0000 0.80850  0.01040  0.40750  Biso   1.000  H
  H48      1.0000 0.69150  0.51040  0.09250  Biso   1.000  H
  S33      1.0000 0.01674  0.40860  0.65600  Biso   1.000  S
  S34      1.0000 0.48326  0.90860  0.84400  Biso   1.000  S
  S35      1.0000 0.98326  0.59140  0.34400  Biso   1.000  S
  S36      1.0000 0.51674  0.09140  0.15600  Biso   1.000  S
  S37      1.0000 0.06330  0.57810  0.52670  Biso   1.000  S
  S38      1.0000 0.43670  0.07810  0.97330  Biso   1.000  S
  S39      1.0000 0.93670  0.42190  0.47330  Biso   1.000  S
  S40      1.0000 0.56330  0.92190  0.02670  Biso   1.000  S
  S41      1.0000 0.08797  0.35060  0.81650  Biso   1.000  S
  S42      1.0000 0.41203  0.85060  0.68350  Biso   1.000  S
  S43      1.0000 0.91203  0.64940  0.18350  Biso   1.000  S
  S44      1.0000 0.58797  0.14940  0.31650  Biso   1.000  S
  S45      1.0000 0.14360  0.55440  0.66410  Biso   1.000  S
  S46      1.0000 0.35640  0.05440  0.83590  Biso   1.000  S
  S47      1.0000 0.85640  0.44560  0.33590  Biso   1.000  S
  S48      1.0000 0.64360  0.94560  0.16410  Biso   1.000  S
  C81      1.0000 0.01690  0.49710  0.53750  Biso   1.000  C
  C82      1.0000 0.48310  0.99710  0.96250  Biso   1.000  C
  C83      1.0000 0.98310  0.50290  0.46250  Biso   1.000  C
  C84      1.0000 0.51690  0.00290  0.03750  Biso   1.000  C
  C85      1.0000 0.06940  0.43510  0.70010  Biso   1.000  C
  C86      1.0000 0.43060  0.93510  0.79990  Biso   1.000  C
  C87      1.0000 0.93060  0.56490  0.29990  Biso   1.000  C
  C88      1.0000 0.56940  0.06490  0.20010  Biso   1.000  C
  C89      1.0000 0.09090  0.51050  0.64270  Biso   1.000  C
  C90      1.0000 0.40910  0.01050  0.85730  Biso   1.000  C
  C91      1.0000 0.90910  0.48950  0.35730  Biso   1.000  C
  C92      1.0000 0.59090  0.98950  0.14270  Biso   1.000  C
  C93      1.0000 0.13910  0.41010  0.84490  Biso   1.000  C
  C94      1.0000 0.36090  0.91010  0.65510  Biso   1.000  C
  C95      1.0000 0.86090  0.58990  0.15510  Biso   1.000  C
  C96      1.0000 0.63910  0.08990  0.34490  Biso   1.000  C
  H49      1.0000 0.13690  0.48820  0.88400  Biso   1.000  H
  H50      1.0000 0.36310  0.98820  0.61600  Biso   1.000  H
  H51      1.0000 0.86310  0.51180  0.11600  Biso   1.000  H
  H52      1.0000 0.63690  0.01180  0.38400  Biso   1.000  H
  H53      1.0000 0.15450  0.35200  0.89490  Biso   1.000  H
  H54      1.0000 0.34550  0.85200  0.60510  Biso   1.000  H
  H55      1.0000 0.84550  0.64800  0.10510  Biso   1.000  H
  H56      1.0000 0.65450  0.14800  0.39490  Biso   1.000  H
  C97      1.0000 0.16530  0.43470  0.75750  Biso   1.000  C
  C98      1.0000 0.33470  0.93470  0.74250  Biso   1.000  C
  C99      1.0000 0.83470  0.56530  0.24250  Biso   1.000  C
  C100     1.0000 0.66530  0.06530  0.25750  Biso   1.000  C
  H57      1.0000 0.16850  0.35770  0.71740  Biso   1.000  H
  H58      1.0000 0.33150  0.85770  0.78260  Biso   1.000  H
  H59      1.0000 0.83150  0.64230  0.28260  Biso   1.000  H
  H60      1.0000 0.66850  0.14230  0.21740  Biso   1.000  H
  H61      1.0000 0.19310  0.46060  0.78910  Biso   1.000  H
  H62      1.0000 0.30690  0.96060  0.71090  Biso   1.000  H
  H63      1.0000 0.80690  0.53940  0.21090  Biso   1.000  H
  H64      1.0000 0.69310  0.03940  0.28910  Biso   1.000  H
  S49      1.0000 0.04984  0.39081  0.08846  Biso   1.000  S
  S50      1.0000 0.45016  0.89081  0.41154  Biso   1.000  S
  S51      1.0000 0.95016  0.60919  0.91154  Biso   1.000  S
  S52      1.0000 0.54984  0.10919  0.58846  Biso   1.000  S
  S53      1.0000 0.02964  0.65548  0.09146  Biso   1.000  S
  S54      1.0000 0.47036  0.15548  0.40854  Biso   1.000  S
  S55      1.0000 0.97036  0.34452  0.90854  Biso   1.000  S
  S56      1.0000 0.52964  0.84452  0.59146  Biso   1.000  S
  S57      1.0000 0.12778  0.40740  0.23510  Biso   1.000  S
  S58      1.0000 0.37222  0.90740  0.26490  Biso   1.000  S
  S59      1.0000 0.87222  0.59260  0.76490  Biso   1.000  S
  S60      1.0000 0.62778  0.09260  0.73510  Biso   1.000  S
  S61      1.0000 0.10382  0.72722  0.24061  Biso   1.000  S
  S62      1.0000 0.39618  0.22722  0.25939  Biso   1.000  S
  S63      1.0000 0.89618  0.27278  0.75939  Biso   1.000  S
  S64      1.0000 0.60382  0.77278  0.74061  Biso   1.000  S
  C101     1.0000 0.01700  0.50960  0.03830  Biso   1.000  C
  C102     1.0000 0.48300  0.00960  0.46170  Biso   1.000  C
  C103     1.0000 0.98300  0.49040  0.96170  Biso   1.000  C
  C104     1.0000 0.51700  0.99040  0.53830  Biso   1.000  C
  C105     1.0000 0.08510  0.48480  0.16900  Biso   1.000  C
  C106     1.0000 0.41490  0.98480  0.33100  Biso   1.000  C
  C107     1.0000 0.91490  0.51520  0.83100  Biso   1.000  C
  C108     1.0000 0.58510  0.01520  0.66900  Biso   1.000  C
  C109     1.0000 0.07490  0.60890  0.17030  Biso   1.000  C
  C110     1.0000 0.42510  0.10890  0.32970  Biso   1.000  C
  C111     1.0000 0.92510  0.39110  0.82970  Biso   1.000  C
  C112     1.0000 0.57490  0.89110  0.67030  Biso   1.000  C
  C113     1.0000 0.15260  0.52960  0.32000  Biso   1.000  C
  C114     1.0000 0.34740  0.02960  0.18000  Biso   1.000  C
  C115     1.0000 0.84740  0.47040  0.68000  Biso   1.000  C
  C116     1.0000 0.65260  0.97040  0.82000  Biso   1.000  C
  H65      1.0000 0.13770  0.53820  0.38390  Biso   1.000  H
  H66      1.0000 0.36230  0.03820  0.11610  Biso   1.000  H
  H67      1.0000 0.86230  0.46180  0.61610  Biso   1.000  H
  H68      1.0000 0.63770  0.96180  0.88390  Biso   1.000  H
  H69      1.0000 0.18120  0.50390  0.34450  Biso   1.000  H
  H70      1.0000 0.31880  0.00390  0.15550  Biso   1.000  H
  H71      1.0000 0.81880  0.49610  0.65550  Biso   1.000  H
  H72      1.0000 0.68120  0.99610  0.84450  Biso   1.000  H
  C117     1.0000 0.15410  0.65270  0.26750  Biso   1.000  C
  C118     1.0000 0.34590  0.15270  0.23250  Biso   1.000  C
  C119     1.0000 0.84590  0.34730  0.73250  Biso   1.000  C
  C120     1.0000 0.65410  0.84730  0.76750  Biso   1.000  C
  H73      1.0000 0.16620  0.64270  0.19940  Biso   1.000  H
  H74      1.0000 0.33380  0.14270  0.30060  Biso   1.000  H
  H75      1.0000 0.83380  0.35730  0.80060  Biso   1.000  H
  H76      1.0000 0.66620  0.85730  0.69940  Biso   1.000  H
  H77      1.0000 0.17260  0.70710  0.31380  Biso   1.000  H
  H78      1.0000 0.32740  0.20710  0.18620  Biso   1.000  H
  H79      1.0000 0.82740  0.29290  0.68620  Biso   1.000  H
  H80      1.0000 0.67260  0.79290  0.81380  Biso   1.000  H
