data_image0
_cell_length_a       31.951
_cell_length_b       10.636
_cell_length_c       12.368
_cell_angle_alpha    90
_cell_angle_beta     96.03
_cell_angle_gamma    90

_symmetry_space_group_name_H-M    "P 1"
_symmetry_int_tables_number       1

loop_
  _symmetry_equiv_pos_as_xyz
  'x, y, z'

loop_
  _atom_site_label
  _atom_site_occupancy
  _atom_site_fract_x
  _atom_site_fract_y
  _atom_site_fract_z
  _atom_site_thermal_displace_type
  _atom_site_B_iso_or_equiv
  _atom_site_type_symbol
  Mn1      1.0000 0.24958  0.24825  0.49941  Biso   1.000  Mn
  Mn2      1.0000 0.25042  0.74825  0.00059  Biso   1.000  Mn
  Mn3      1.0000 0.75042  0.75175  0.50059  Biso   1.000  Mn
  Mn4      1.0000 0.74958  0.25175  0.99941  Biso   1.000  Mn
  Cu1      1.0000 0.99577  0.25709  0.28561  Biso   1.000  Cu
  Cu2      1.0000 0.50423  0.75709  0.21439  Biso   1.000  Cu
  Cu3      1.0000 0.00423  0.74291  0.71439  Biso   1.000  Cu
  Cu4      1.0000 0.49577  0.24291  0.78561  Biso   1.000  Cu
  C1       1.0000 0.07450  0.25470  0.43490  Biso   1.000  C
  C2       1.0000 0.42550  0.75470  0.06510  Biso   1.000  C
  C3       1.0000 0.92550  0.74530  0.56510  Biso   1.000  C
  C4       1.0000 0.57450  0.24530  0.93490  Biso   1.000  C
  C5       1.0000 0.14490  0.24390  0.48520  Biso   1.000  C
  C6       1.0000 0.35510  0.74390  0.01480  Biso   1.000  C
  C7       1.0000 0.85510  0.75610  0.51480  Biso   1.000  C
  C8       1.0000 0.64490  0.25610  0.98520  Biso   1.000  C
  C9       1.0000 0.35320  0.25090  0.53810  Biso   1.000  C
  C10      1.0000 0.14680  0.75090  0.96190  Biso   1.000  C
  C11      1.0000 0.64680  0.74910  0.46190  Biso   1.000  C
  C12      1.0000 0.85320  0.24910  0.03810  Biso   1.000  C
  C13      1.0000 0.42050  0.23840  0.62610  Biso   1.000  C
  C14      1.0000 0.07950  0.73840  0.87390  Biso   1.000  C
  C15      1.0000 0.57950  0.76160  0.37390  Biso   1.000  C
  C16      1.0000 0.92050  0.26160  0.12610  Biso   1.000  C
  C17      1.0000 0.25460  0.95210  0.41250  Biso   1.000  C
  C18      1.0000 0.24540  0.45210  0.08750  Biso   1.000  C
  C19      1.0000 0.74540  0.04790  0.58750  Biso   1.000  C
  C20      1.0000 0.75460  0.54790  0.91250  Biso   1.000  C
  C21      1.0000 0.24980  0.54310  0.59020  Biso   1.000  C
  C22      1.0000 0.25020  0.04310  0.90980  Biso   1.000  C
  C23      1.0000 0.75020  0.45690  0.40980  Biso   1.000  C
  C24      1.0000 0.74980  0.95690  0.09020  Biso   1.000  C
  C25      1.0000 0.25320  0.66950  0.73760  Biso   1.000  C
  C26      1.0000 0.24680  0.16950  0.76240  Biso   1.000  C
  C27      1.0000 0.74680  0.33050  0.26240  Biso   1.000  C
  C28      1.0000 0.75320  0.83050  0.23760  Biso   1.000  C
  C29      1.0000 0.25140  0.82360  0.26620  Biso   1.000  C
  C30      1.0000 0.24860  0.32360  0.23380  Biso   1.000  C
  C31      1.0000 0.74860  0.17640  0.73380  Biso   1.000  C
  C32      1.0000 0.75140  0.67640  0.76620  Biso   1.000  C
  N1       1.0000 0.04354  0.25410  0.38090  Biso   1.000  N
  N2       1.0000 0.45646  0.75410  0.11910  Biso   1.000  N
  N3       1.0000 0.95646  0.74590  0.61910  Biso   1.000  N
  N4       1.0000 0.54354  0.24590  0.88090  Biso   1.000  N
  N5       1.0000 0.10640  0.25800  0.50520  Biso   1.000  N
  N6       1.0000 0.39360  0.75800  0.99480  Biso   1.000  N
  N7       1.0000 0.89360  0.74200  0.49480  Biso   1.000  N
  N8       1.0000 0.60640  0.24200  0.00520  Biso   1.000  N
  N9       1.0000 0.18078  0.23280  0.48020  Biso   1.000  N
  N10      1.0000 0.31922  0.73280  0.01980  Biso   1.000  N
  N11      1.0000 0.81922  0.76720  0.51980  Biso   1.000  N
  N12      1.0000 0.68078  0.26720  0.98020  Biso   1.000  N
  N13      1.0000 0.31830  0.26070  0.52090  Biso   1.000  N
  N14      1.0000 0.18170  0.76070  0.97910  Biso   1.000  N
  N15      1.0000 0.68170  0.73930  0.47910  Biso   1.000  N
  N16      1.0000 0.81830  0.23930  0.02090  Biso   1.000  N
  N17      1.0000 0.39290  0.23710  0.54220  Biso   1.000  N
  N18      1.0000 0.10710  0.73710  0.95780  Biso   1.000  N
  N19      1.0000 0.60710  0.76290  0.45780  Biso   1.000  N
  N20      1.0000 0.89290  0.26290  0.04220  Biso   1.000  N
  N21      1.0000 0.44840  0.24030  0.68980  Biso   1.000  N
  N22      1.0000 0.05160  0.74030  0.81020  Biso   1.000  N
  N23      1.0000 0.55160  0.75970  0.31020  Biso   1.000  N
  N24      1.0000 0.94840  0.25970  0.18980  Biso   1.000  N
  N25      1.0000 0.25060  0.83770  0.36970  Biso   1.000  N
  N26      1.0000 0.24940  0.33770  0.13030  Biso   1.000  N
  N27      1.0000 0.74940  0.16230  0.63030  Biso   1.000  N
  N28      1.0000 0.75060  0.66230  0.86970  Biso   1.000  N
  N29      1.0000 0.25660  0.04410  0.45560  Biso   1.000  N
  N30      1.0000 0.24340  0.54410  0.04440  Biso   1.000  N
  N31      1.0000 0.74340  0.95590  0.54440  Biso   1.000  N
  N32      1.0000 0.75660  0.45590  0.95560  Biso   1.000  N
  N33      1.0000 0.24580  0.45110  0.54250  Biso   1.000  N
  N34      1.0000 0.25420  0.95110  0.95750  Biso   1.000  N
  N35      1.0000 0.75420  0.54890  0.45750  Biso   1.000  N
  N36      1.0000 0.74580  0.04890  0.04250  Biso   1.000  N
  N37      1.0000 0.25700  0.65280  0.63450  Biso   1.000  N
  N38      1.0000 0.24300  0.15280  0.86550  Biso   1.000  N
  N39      1.0000 0.74300  0.34720  0.36550  Biso   1.000  N
  N40      1.0000 0.75700  0.84720  0.13450  Biso   1.000  N
  N41      1.0000 0.25084  0.69860  0.82540  Biso   1.000  N
  N42      1.0000 0.24916  0.19860  0.67460  Biso   1.000  N
  N43      1.0000 0.74916  0.30140  0.17460  Biso   1.000  N
  N44      1.0000 0.75084  0.80140  0.32540  Biso   1.000  N
  N45      1.0000 0.25100  0.79700  0.17620  Biso   1.000  N
  N46      1.0000 0.24900  0.29700  0.32380  Biso   1.000  N
  N47      1.0000 0.74900  0.20300  0.82380  Biso   1.000  N
  N48      1.0000 0.75100  0.70300  0.67620  Biso   1.000  N
  S1       1.0000 0.03603  0.00499  0.16040  Biso   1.000  S
  S2       1.0000 0.46397  0.50499  0.33960  Biso   1.000  S
  S3       1.0000 0.96397  0.99501  0.83960  Biso   1.000  S
  S4       1.0000 0.53603  0.49501  0.66040  Biso   1.000  S
  S5       1.0000 0.05833  0.05960  0.94135  Biso   1.000  S
  S6       1.0000 0.44167  0.55960  0.55865  Biso   1.000  S
  S7       1.0000 0.94167  0.94040  0.05865  Biso   1.000  S
  S8       1.0000 0.55833  0.44040  0.44135  Biso   1.000  S
  S9       1.0000 0.11984  0.05521  0.27145  Biso   1.000  S
  S10      1.0000 0.38016  0.55521  0.22855  Biso   1.000  S
  S11      1.0000 0.88016  0.94479  0.72855  Biso   1.000  S
  S12      1.0000 0.61984  0.44479  0.77145  Biso   1.000  S
  S13      1.0000 0.14701  0.11680  0.01265  Biso   1.000  S
  S14      1.0000 0.35299  0.61680  0.48735  Biso   1.000  S
  S15      1.0000 0.85299  0.88320  0.98735  Biso   1.000  S
  S16      1.0000 0.64701  0.38320  0.51265  Biso   1.000  S
  C33      1.0000 0.01979  0.01340  0.02100  Biso   1.000  C
  C34      1.0000 0.48021  0.51340  0.47900  Biso   1.000  C
  C35      1.0000 0.98021  0.98660  0.97900  Biso   1.000  C
  C36      1.0000 0.51979  0.48660  0.52100  Biso   1.000  C
  C37      1.0000 0.08746  0.05140  0.14940  Biso   1.000  C
  C38      1.0000 0.41254  0.55140  0.35060  Biso   1.000  C
  C39      1.0000 0.91254  0.94860  0.85060  Biso   1.000  C
  C40      1.0000 0.58746  0.44860  0.64940  Biso   1.000  C
  C41      1.0000 0.09780  0.07620  0.04890  Biso   1.000  C
  C42      1.0000 0.40220  0.57620  0.45110  Biso   1.000  C
  C43      1.0000 0.90220  0.92380  0.95110  Biso   1.000  C
  C44      1.0000 0.59780  0.42380  0.54890  Biso   1.000  C
  C45      1.0000 0.16820  0.02080  0.22020  Biso   1.000  C
  C46      1.0000 0.33180  0.52080  0.27980  Biso   1.000  C
  C47      1.0000 0.83180  0.97920  0.77980  Biso   1.000  C
  C48      1.0000 0.66820  0.47920  0.72020  Biso   1.000  C
  H1       1.0000 0.19010  0.02040  0.28090  Biso   1.000  H
  H2       1.0000 0.30990  0.52040  0.21910  Biso   1.000  H
  H3       1.0000 0.80990  0.97960  0.71910  Biso   1.000  H
  H4       1.0000 0.69010  0.47960  0.78090  Biso   1.000  H
  H5       1.0000 0.16650  0.93630  0.19050  Biso   1.000  H
  H6       1.0000 0.33350  0.43630  0.30950  Biso   1.000  H
  H7       1.0000 0.83350  0.06370  0.80950  Biso   1.000  H
  H8       1.0000 0.66650  0.56370  0.69050  Biso   1.000  H
  C49      1.0000 0.18200  0.10850  0.13340  Biso   1.000  C
  C50      1.0000 0.31800  0.60850  0.36660  Biso   1.000  C
  C51      1.0000 0.81800  0.89150  0.86660  Biso   1.000  C
  C52      1.0000 0.68200  0.39150  0.63340  Biso   1.000  C
  H9       1.0000 0.20930  0.08110  0.11470  Biso   1.000  H
  H10      1.0000 0.29070  0.58110  0.38530  Biso   1.000  H
  H11      1.0000 0.79070  0.91890  0.88530  Biso   1.000  H
  H12      1.0000 0.70930  0.41890  0.61470  Biso   1.000  H
  H13      1.0000 0.18540  0.19240  0.16390  Biso   1.000  H
  H14      1.0000 0.31460  0.69240  0.33610  Biso   1.000  H
  H15      1.0000 0.81460  0.80760  0.83610  Biso   1.000  H
  H16      1.0000 0.68540  0.30760  0.66390  Biso   1.000  H
  C53      1.0000 0.17810  0.04380  0.12220  Biso   1.000  C
  C54      1.0000 0.32190  0.54380  0.37780  Biso   1.000  C
  C55      1.0000 0.82190  0.95620  0.87780  Biso   1.000  C
  C56      1.0000 0.67810  0.45620  0.62220  Biso   1.000  C
  H17      1.0000 0.17280  0.95400  0.11930  Biso   1.000  H
  H18      1.0000 0.32720  0.45400  0.38070  Biso   1.000  H
  H19      1.0000 0.82720  0.04600  0.88070  Biso   1.000  H
  H20      1.0000 0.67280  0.54600  0.61930  Biso   1.000  H
  H21      1.0000 0.20760  0.05650  0.11280  Biso   1.000  H
  H22      1.0000 0.29240  0.55650  0.38720  Biso   1.000  H
  H23      1.0000 0.79240  0.94350  0.88720  Biso   1.000  H
  H24      1.0000 0.70760  0.44350  0.61280  Biso   1.000  H
  C57      1.0000 0.17010  0.09190  0.23330  Biso   1.000  C
  C58      1.0000 0.32990  0.59190  0.26670  Biso   1.000  C
  C59      1.0000 0.82990  0.90810  0.76670  Biso   1.000  C
  C60      1.0000 0.67010  0.40810  0.73330  Biso   1.000  C
  H25      1.0000 0.17350  0.18250  0.23440  Biso   1.000  H
  H26      1.0000 0.32650  0.68250  0.26560  Biso   1.000  H
  H27      1.0000 0.82650  0.81750  0.76560  Biso   1.000  H
  H28      1.0000 0.67350  0.31750  0.73440  Biso   1.000  H
  H29      1.0000 0.19130  0.05690  0.28690  Biso   1.000  H
  H30      1.0000 0.30870  0.55690  0.21310  Biso   1.000  H
  H31      1.0000 0.80870  0.94310  0.71310  Biso   1.000  H
  H32      1.0000 0.69130  0.44310  0.78690  Biso   1.000  H
  S17      1.0000 0.04276  0.04710  0.64237  Biso   1.000  S
  S18      1.0000 0.45724  0.54710  0.85763  Biso   1.000  S
  S19      1.0000 0.95724  0.95290  0.35763  Biso   1.000  S
  S20      1.0000 0.54276  0.45290  0.14237  Biso   1.000  S
  S21      1.0000 0.05373  0.90209  0.44816  Biso   1.000  S
  S22      1.0000 0.44627  0.40209  0.05184  Biso   1.000  S
  S23      1.0000 0.94627  0.09791  0.55184  Biso   1.000  S
  S24      1.0000 0.55373  0.59791  0.94816  Biso   1.000  S
  S25      1.0000 0.13070  0.02690  0.73742  Biso   1.000  S
  S26      1.0000 0.36930  0.52690  0.76258  Biso   1.000  S
  S27      1.0000 0.86930  0.97310  0.26258  Biso   1.000  S
  S28      1.0000 0.63070  0.47310  0.23742  Biso   1.000  S
  S29      1.0000 0.14373  0.85250  0.50330  Biso   1.000  S
  S30      1.0000 0.35627  0.35250  0.99670  Biso   1.000  S
  S31      1.0000 0.85627  0.14750  0.49670  Biso   1.000  S
  S32      1.0000 0.64373  0.64750  0.00330  Biso   1.000  S
  C61      1.0000 0.02020  0.98900  0.51910  Biso   1.000  C
  C62      1.0000 0.47980  0.48900  0.98090  Biso   1.000  C
  C63      1.0000 0.97980  0.01100  0.48090  Biso   1.000  C
  C64      1.0000 0.52020  0.51100  0.01910  Biso   1.000  C
  C65      1.0000 0.09300  0.99350  0.62980  Biso   1.000  C
  C66      1.0000 0.40700  0.49350  0.87020  Biso   1.000  C
  C67      1.0000 0.90700  0.00650  0.37020  Biso   1.000  C
  C68      1.0000 0.59300  0.50650  0.12980  Biso   1.000  C
  C69      1.0000 0.09850  0.92260  0.53880  Biso   1.000  C
  C70      1.0000 0.40150  0.42260  0.96120  Biso   1.000  C
  C71      1.0000 0.90150  0.07740  0.46120  Biso   1.000  C
  C72      1.0000 0.59850  0.57740  0.03880  Biso   1.000  C
  C73      1.0000 0.16820  0.90370  0.71980  Biso   1.000  C
  C74      1.0000 0.33180  0.40370  0.78020  Biso   1.000  C
  C75      1.0000 0.83180  0.09630  0.28020  Biso   1.000  C
  C76      1.0000 0.66820  0.59630  0.21980  Biso   1.000  C
  H33      1.0000 0.19230  0.91350  0.77390  Biso   1.000  H
  H34      1.0000 0.30770  0.41350  0.72610  Biso   1.000  H
  H35      1.0000 0.80770  0.08650  0.22610  Biso   1.000  H
  H36      1.0000 0.69230  0.58650  0.27390  Biso   1.000  H
  H37      1.0000 0.15540  0.82300  0.73190  Biso   1.000  H
  H38      1.0000 0.34460  0.32300  0.76810  Biso   1.000  H
  H39      1.0000 0.84460  0.17700  0.26810  Biso   1.000  H
  H40      1.0000 0.65540  0.67700  0.23190  Biso   1.000  H
  C77      1.0000 0.18300  0.90470  0.60930  Biso   1.000  C
  C78      1.0000 0.31700  0.40470  0.89070  Biso   1.000  C
  C79      1.0000 0.81700  0.09530  0.39070  Biso   1.000  C
  C80      1.0000 0.68300  0.59530  0.10930  Biso   1.000  C
  H41      1.0000 0.20750  0.85090  0.60980  Biso   1.000  H
  H42      1.0000 0.29250  0.35090  0.89020  Biso   1.000  H
  H43      1.0000 0.79250  0.14910  0.39020  Biso   1.000  H
  H44      1.0000 0.70750  0.64910  0.10980  Biso   1.000  H
  H45      1.0000 0.19150  0.98940  0.59280  Biso   1.000  H
  H46      1.0000 0.30850  0.48940  0.90720  Biso   1.000  H
  H47      1.0000 0.80850  0.01060  0.40720  Biso   1.000  H
  H48      1.0000 0.69150  0.51060  0.09280  Biso   1.000  H
  S33      1.0000 0.01657  0.40880  0.65635  Biso   1.000  S
  S34      1.0000 0.48343  0.90880  0.84365  Biso   1.000  S
  S35      1.0000 0.98343  0.59120  0.34365  Biso   1.000  S
  S36      1.0000 0.51657  0.09120  0.15635  Biso   1.000  S
  S37      1.0000 0.06351  0.57640  0.52603  Biso   1.000  S
  S38      1.0000 0.43649  0.07640  0.97397  Biso   1.000  S
  S39      1.0000 0.93649  0.42360  0.47397  Biso   1.000  S
  S40      1.0000 0.56351  0.92360  0.02603  Biso   1.000  S
  S41      1.0000 0.08766  0.35180  0.81830  Biso   1.000  S
  S42      1.0000 0.41234  0.85180  0.68170  Biso   1.000  S
  S43      1.0000 0.91234  0.64820  0.18170  Biso   1.000  S
  S44      1.0000 0.58766  0.14820  0.31830  Biso   1.000  S
  S45      1.0000 0.14380  0.55340  0.66370  Biso   1.000  S
  S46      1.0000 0.35620  0.05340  0.83630  Biso   1.000  S
  S47      1.0000 0.85620  0.44660  0.33630  Biso   1.000  S
  S48      1.0000 0.64380  0.94660  0.16370  Biso   1.000  S
  C81      1.0000 0.01700  0.49680  0.53750  Biso   1.000  C
  C82      1.0000 0.48300  0.99680  0.96250  Biso   1.000  C
  C83      1.0000 0.98300  0.50320  0.46250  Biso   1.000  C
  C84      1.0000 0.51700  0.00320  0.03750  Biso   1.000  C
  C85      1.0000 0.06870  0.43700  0.70080  Biso   1.000  C
  C86      1.0000 0.43130  0.93700  0.79920  Biso   1.000  C
  C87      1.0000 0.93130  0.56300  0.29920  Biso   1.000  C
  C88      1.0000 0.56870  0.06300  0.20080  Biso   1.000  C
  C89      1.0000 0.09090  0.51030  0.64270  Biso   1.000  C
  C90      1.0000 0.40910  0.01030  0.85730  Biso   1.000  C
  C91      1.0000 0.90910  0.48970  0.35730  Biso   1.000  C
  C92      1.0000 0.59090  0.98970  0.14270  Biso   1.000  C
  C93      1.0000 0.13890  0.41150  0.84690  Biso   1.000  C
  C94      1.0000 0.36110  0.91150  0.65310  Biso   1.000  C
  C95      1.0000 0.86110  0.58850  0.15310  Biso   1.000  C
  C96      1.0000 0.63890  0.08850  0.34690  Biso   1.000  C
  H49      1.0000 0.13690  0.49130  0.88400  Biso   1.000  H
  H50      1.0000 0.36310  0.99130  0.61600  Biso   1.000  H
  H51      1.0000 0.86310  0.50870  0.11600  Biso   1.000  H
  H52      1.0000 0.63690  0.00870  0.38400  Biso   1.000  H
  H53      1.0000 0.15430  0.35450  0.89790  Biso   1.000  H
  H54      1.0000 0.34570  0.85450  0.60210  Biso   1.000  H
  H55      1.0000 0.84570  0.64550  0.10210  Biso   1.000  H
  H56      1.0000 0.65430  0.14550  0.39790  Biso   1.000  H
  C97      1.0000 0.16390  0.43120  0.75790  Biso   1.000  C
  C98      1.0000 0.33610  0.93120  0.74210  Biso   1.000  C
  C99      1.0000 0.83610  0.56880  0.24210  Biso   1.000  C
  C100     1.0000 0.66390  0.06880  0.25790  Biso   1.000  C
  H57      1.0000 0.16540  0.35290  0.71820  Biso   1.000  H
  H58      1.0000 0.33460  0.85290  0.78180  Biso   1.000  H
  H59      1.0000 0.83460  0.64710  0.28180  Biso   1.000  H
  H60      1.0000 0.66540  0.14710  0.21820  Biso   1.000  H
  H61      1.0000 0.19230  0.45320  0.78720  Biso   1.000  H
  H62      1.0000 0.30770  0.95320  0.71280  Biso   1.000  H
  H63      1.0000 0.80770  0.54680  0.21280  Biso   1.000  H
  H64      1.0000 0.69230  0.04680  0.28720  Biso   1.000  H
  S49      1.0000 0.04934  0.38960  0.08987  Biso   1.000  S
  S50      1.0000 0.45066  0.88960  0.41013  Biso   1.000  S
  S51      1.0000 0.95066  0.61040  0.91013  Biso   1.000  S
  S52      1.0000 0.54934  0.11040  0.58987  Biso   1.000  S
  S53      1.0000 0.02944  0.65562  0.09241  Biso   1.000  S
  S54      1.0000 0.47056  0.15562  0.40759  Biso   1.000  S
  S55      1.0000 0.97056  0.34438  0.90759  Biso   1.000  S
  S56      1.0000 0.52944  0.84438  0.59241  Biso   1.000  S
  S57      1.0000 0.12762  0.40607  0.23500  Biso   1.000  S
  S58      1.0000 0.37238  0.90607  0.26500  Biso   1.000  S
  S59      1.0000 0.87238  0.59393  0.76500  Biso   1.000  S
  S60      1.0000 0.62762  0.09393  0.73500  Biso   1.000  S
  S61      1.0000 0.10378  0.72678  0.24067  Biso   1.000  S
  S62      1.0000 0.39622  0.22678  0.25933  Biso   1.000  S
  S63      1.0000 0.89622  0.27322  0.75933  Biso   1.000  S
  S64      1.0000 0.60378  0.77322  0.74067  Biso   1.000  S
  C101     1.0000 0.01670  0.50910  0.03830  Biso   1.000  C
  C102     1.0000 0.48330  0.00910  0.46170  Biso   1.000  C
  C103     1.0000 0.98330  0.49090  0.96170  Biso   1.000  C
  C104     1.0000 0.51670  0.99090  0.53830  Biso   1.000  C
  C105     1.0000 0.08430  0.48490  0.17020  Biso   1.000  C
  C106     1.0000 0.41570  0.98490  0.32980  Biso   1.000  C
  C107     1.0000 0.91570  0.51510  0.82980  Biso   1.000  C
  C108     1.0000 0.58430  0.01510  0.67020  Biso   1.000  C
  C109     1.0000 0.07480  0.60860  0.17090  Biso   1.000  C
  C110     1.0000 0.42520  0.10860  0.32910  Biso   1.000  C
  C111     1.0000 0.92520  0.39140  0.82910  Biso   1.000  C
  C112     1.0000 0.57480  0.89140  0.67090  Biso   1.000  C
  C113     1.0000 0.15230  0.52880  0.32040  Biso   1.000  C
  C114     1.0000 0.34770  0.02880  0.17960  Biso   1.000  C
  C115     1.0000 0.84770  0.47120  0.67960  Biso   1.000  C
  C116     1.0000 0.65230  0.97120  0.82040  Biso   1.000  C
  H65      1.0000 0.13690  0.53850  0.38340  Biso   1.000  H
  H66      1.0000 0.36310  0.03850  0.11660  Biso   1.000  H
  H67      1.0000 0.86310  0.46150  0.61660  Biso   1.000  H
  H68      1.0000 0.63690  0.96150  0.88340  Biso   1.000  H
  H69      1.0000 0.18070  0.50230  0.34620  Biso   1.000  H
  H70      1.0000 0.31930  0.00230  0.15380  Biso   1.000  H
  H71      1.0000 0.81930  0.49770  0.65380  Biso   1.000  H
  H72      1.0000 0.68070  0.99770  0.84620  Biso   1.000  H
  C117     1.0000 0.15460  0.65210  0.26710  Biso   1.000  C
  C118     1.0000 0.34540  0.15210  0.23290  Biso   1.000  C
  C119     1.0000 0.84540  0.34790  0.73290  Biso   1.000  C
  C120     1.0000 0.65460  0.84790  0.76710  Biso   1.000  C
  H73      1.0000 0.16660  0.64120  0.19890  Biso   1.000  H
  H74      1.0000 0.33340  0.14120  0.30110  Biso   1.000  H
  H75      1.0000 0.83340  0.35880  0.80110  Biso   1.000  H
  H76      1.0000 0.66660  0.85880  0.69890  Biso   1.000  H
  H77      1.0000 0.17320  0.70660  0.31290  Biso   1.000  H
  H78      1.0000 0.32680  0.20660  0.18710  Biso   1.000  H
  H79      1.0000 0.82680  0.29340  0.68710  Biso   1.000  H
  H80      1.0000 0.67320  0.79340  0.81290  Biso   1.000  H
