data_image0
_cell_length_a       7.2829
_cell_length_b       16.104
_cell_length_c       33.023
_cell_angle_alpha    90
_cell_angle_beta     93.268
_cell_angle_gamma    90

_symmetry_space_group_name_H-M    "P 1"
_symmetry_int_tables_number       1

loop_
  _symmetry_equiv_pos_as_xyz
  'x, y, z'

loop_
  _atom_site_label
  _atom_site_occupancy
  _atom_site_fract_x
  _atom_site_fract_y
  _atom_site_fract_z
  _atom_site_thermal_displace_type
  _atom_site_B_iso_or_equiv
  _atom_site_type_symbol
  Cu1      1.0000 0.52989  0.77779  0.98017  Biso   1.000  Cu
  Cu2      1.0000 0.97011  0.27779  0.51983  Biso   1.000  Cu
  Cu3      1.0000 0.47011  0.22221  0.01983  Biso   1.000  Cu
  Cu4      1.0000 0.02989  0.72221  0.48017  Biso   1.000  Cu
  Cu5      1.0000 0.32009  0.75588  0.80358  Biso   1.000  Cu
  Cu6      1.0000 0.17991  0.25588  0.69642  Biso   1.000  Cu
  Cu7      1.0000 0.67991  0.24412  0.19642  Biso   1.000  Cu
  Cu8      1.0000 0.82009  0.74412  0.30358  Biso   1.000  Cu
  N1       1.0000 0.47740  0.78623  0.92399  Biso   1.000  N
  N2       1.0000 0.02260  0.28623  0.57601  Biso   1.000  N
  N3       1.0000 0.52260  0.21377  0.07601  Biso   1.000  N
  N4       1.0000 0.97740  0.71377  0.42399  Biso   1.000  N
  N5       1.0000 0.40500  0.77501  0.85760  Biso   1.000  N
  N6       1.0000 0.09500  0.27501  0.64240  Biso   1.000  N
  N7       1.0000 0.59500  0.22499  0.14240  Biso   1.000  N
  N8       1.0000 0.90500  0.72499  0.35760  Biso   1.000  N
  O1       1.0000 0.46550  0.88806  0.79520  Biso   1.000  O
  O2       1.0000 0.03450  0.38806  0.70480  Biso   1.000  O
  O3       1.0000 0.53450  0.11194  0.20480  Biso   1.000  O
  O4       1.0000 0.96550  0.61194  0.29520  Biso   1.000  O
  O5       1.0000 0.57830  0.98215  0.83963  Biso   1.000  O
  O6       1.0000 0.92170  0.48215  0.66037  Biso   1.000  O
  O7       1.0000 0.42170  0.01785  0.16037  Biso   1.000  O
  O8       1.0000 0.07830  0.51785  0.33963  Biso   1.000  O
  O9       1.0000 0.09670  0.47871  0.84515  Biso   1.000  O
  O10      1.0000 0.40330  0.97871  0.65485  Biso   1.000  O
  O11      1.0000 0.90330  0.52129  0.15485  Biso   1.000  O
  O12      1.0000 0.59670  0.02129  0.34515  Biso   1.000  O
  C1       1.0000 0.48880  0.85150  0.86474  Biso   1.000  C
  C2       1.0000 0.01120  0.35150  0.63526  Biso   1.000  C
  C3       1.0000 0.51120  0.14850  0.13526  Biso   1.000  C
  C4       1.0000 0.98880  0.64850  0.36474  Biso   1.000  C
  N9       1.0000 0.54420  0.76731  0.03718  Biso   1.000  N
  N10      1.0000 0.95580  0.26731  0.46282  Biso   1.000  N
  N11      1.0000 0.45580  0.23269  0.96282  Biso   1.000  N
  N12      1.0000 0.04420  0.73269  0.53718  Biso   1.000  N
  N13      1.0000 0.72370  0.75846  0.25011  Biso   1.000  N
  N14      1.0000 0.77630  0.25846  0.24989  Biso   1.000  N
  N15      1.0000 0.27630  0.24154  0.74989  Biso   1.000  N
  N16      1.0000 0.22370  0.74154  0.75011  Biso   1.000  N
  C5       1.0000 0.30580  0.62440  0.94053  Biso   1.000  C
  C6       1.0000 0.19420  0.12440  0.55947  Biso   1.000  C
  C7       1.0000 0.69420  0.37560  0.05947  Biso   1.000  C
  C8       1.0000 0.80580  0.87560  0.44053  Biso   1.000  C
  H1       1.0000 0.34940  0.65620  0.96250  Biso   1.000  H
  H2       1.0000 0.15060  0.15620  0.53750  Biso   1.000  H
  H3       1.0000 0.65060  0.34380  0.03750  Biso   1.000  H
  H4       1.0000 0.84940  0.84380  0.46250  Biso   1.000  H
  O13      1.0000 0.66120  0.91018  0.96738  Biso   1.000  O
  O14      1.0000 0.83880  0.41018  0.53262  Biso   1.000  O
  O15      1.0000 0.33880  0.08982  0.03262  Biso   1.000  O
  O16      1.0000 0.16120  0.58982  0.46738  Biso   1.000  O
  O17      1.0000 0.67430  0.99022  0.91237  Biso   1.000  O
  O18      1.0000 0.82570  0.49022  0.58763  Biso   1.000  O
  O19      1.0000 0.32570  0.00978  0.08763  Biso   1.000  O
  O20      1.0000 0.17430  0.50978  0.41237  Biso   1.000  O
  H5       1.0000 0.65110  0.98540  0.88790  Biso   1.000  H
  H6       1.0000 0.84890  0.48540  0.61210  Biso   1.000  H
  H7       1.0000 0.34890  0.01460  0.11210  Biso   1.000  H
  H8       1.0000 0.15110  0.51460  0.38790  Biso   1.000  H
  C9       1.0000 0.58920  0.76290  0.12195  Biso   1.000  C
  C10      1.0000 0.91080  0.26290  0.37805  Biso   1.000  C
  C11      1.0000 0.41080  0.23710  0.87805  Biso   1.000  C
  C12      1.0000 0.08920  0.73710  0.62195  Biso   1.000  C
  C13      1.0000 0.53320  0.85750  0.90560  Biso   1.000  C
  C14      1.0000 0.96680  0.35750  0.59440  Biso   1.000  C
  C15      1.0000 0.46680  0.14250  0.09440  Biso   1.000  C
  C16      1.0000 0.03320  0.64250  0.40560  Biso   1.000  C
  C17      1.0000 0.52140  0.83670  0.05939  Biso   1.000  C
  C18      1.0000 0.97860  0.33670  0.44061  Biso   1.000  C
  C19      1.0000 0.47860  0.16330  0.94061  Biso   1.000  C
  C20      1.0000 0.02140  0.66330  0.55939  Biso   1.000  C
  H9       1.0000 0.49030  0.88590  0.04600  Biso   1.000  H
  H10      1.0000 0.00970  0.38590  0.45400  Biso   1.000  H
  H11      1.0000 0.50970  0.11410  0.95400  Biso   1.000  H
  H12      1.0000 0.99030  0.61410  0.54600  Biso   1.000  H
  C21      1.0000 0.60860  0.69200  0.09877  Biso   1.000  C
  C22      1.0000 0.89140  0.19200  0.40123  Biso   1.000  C
  C23      1.0000 0.39140  0.30800  0.90123  Biso   1.000  C
  C24      1.0000 0.10860  0.80800  0.59877  Biso   1.000  C
  H13      1.0000 0.63700  0.64160  0.11140  Biso   1.000  H
  H14      1.0000 0.86300  0.14160  0.38860  Biso   1.000  H
  H15      1.0000 0.36300  0.35840  0.88860  Biso   1.000  H
  H16      1.0000 0.13700  0.85840  0.61140  Biso   1.000  H
  C25      1.0000 0.62450  0.76250  0.16659  Biso   1.000  C
  C26      1.0000 0.87550  0.26250  0.33341  Biso   1.000  C
  C27      1.0000 0.37550  0.23750  0.83341  Biso   1.000  C
  C28      1.0000 0.12450  0.73750  0.66659  Biso   1.000  C
  C29      1.0000 0.67190  0.68890  0.22931  Biso   1.000  C
  C30      1.0000 0.82810  0.18890  0.27069  Biso   1.000  C
  C31      1.0000 0.32810  0.31110  0.77069  Biso   1.000  C
  C32      1.0000 0.17190  0.81110  0.72931  Biso   1.000  C
  H17      1.0000 0.67070  0.63900  0.24340  Biso   1.000  H
  H18      1.0000 0.82930  0.13900  0.25660  Biso   1.000  H
  H19      1.0000 0.32930  0.36100  0.75660  Biso   1.000  H
  H20      1.0000 0.17070  0.86100  0.74340  Biso   1.000  H
  C33      1.0000 0.23050  0.54620  0.94716  Biso   1.000  C
  C34      1.0000 0.26950  0.04620  0.55284  Biso   1.000  C
  C35      1.0000 0.76950  0.45380  0.05284  Biso   1.000  C
  C36      1.0000 0.73050  0.95380  0.44716  Biso   1.000  C
  H21      1.0000 0.22700  0.52570  0.97340  Biso   1.000  H
  H22      1.0000 0.27300  0.02570  0.52660  Biso   1.000  H
  H23      1.0000 0.77300  0.47430  0.02660  Biso   1.000  H
  H24      1.0000 0.72700  0.97430  0.47340  Biso   1.000  H
  C37      1.0000 0.54250  0.83730  0.10133  Biso   1.000  C
  C38      1.0000 0.95750  0.33730  0.39867  Biso   1.000  C
  C39      1.0000 0.45750  0.16270  0.89867  Biso   1.000  C
  C40      1.0000 0.04250  0.66270  0.60133  Biso   1.000  C
  H25      1.0000 0.52620  0.88620  0.11570  Biso   1.000  H
  H26      1.0000 0.97380  0.38620  0.38430  Biso   1.000  H
  H27      1.0000 0.47380  0.11380  0.88430  Biso   1.000  H
  H28      1.0000 0.02620  0.61380  0.61570  Biso   1.000  H
  C41      1.0000 0.39880  0.73770  0.89404  Biso   1.000  C
  C42      1.0000 0.10120  0.23770  0.60596  Biso   1.000  C
  C43      1.0000 0.60120  0.26230  0.10596  Biso   1.000  C
  C44      1.0000 0.89880  0.76230  0.39404  Biso   1.000  C
  C45      1.0000 0.58600  0.69570  0.05681  Biso   1.000  C
  C46      1.0000 0.91400  0.19570  0.44319  Biso   1.000  C
  C47      1.0000 0.41400  0.30430  0.94319  Biso   1.000  C
  C48      1.0000 0.08600  0.80430  0.55681  Biso   1.000  C
  H29      1.0000 0.60000  0.64750  0.04180  Biso   1.000  H
  H30      1.0000 0.90000  0.14750  0.45820  Biso   1.000  H
  H31      1.0000 0.40000  0.35250  0.95820  Biso   1.000  H
  H32      1.0000 0.10000  0.85250  0.54180  Biso   1.000  H
  C49      1.0000 0.24660  0.60770  0.86835  Biso   1.000  C
  C50      1.0000 0.25340  0.10770  0.63165  Biso   1.000  C
  C51      1.0000 0.75340  0.39230  0.13165  Biso   1.000  C
  C52      1.0000 0.74660  0.89230  0.36835  Biso   1.000  C
  H33      1.0000 0.25200  0.62760  0.84200  Biso   1.000  H
  H34      1.0000 0.24800  0.12760  0.65800  Biso   1.000  H
  H35      1.0000 0.74800  0.37240  0.15800  Biso   1.000  H
  H36      1.0000 0.75200  0.87240  0.34200  Biso   1.000  H
  C53      1.0000 0.16110  0.49910  0.91482  Biso   1.000  C
  C54      1.0000 0.33890  0.99910  0.58518  Biso   1.000  C
  C55      1.0000 0.83890  0.50090  0.08518  Biso   1.000  C
  C56      1.0000 0.66110  0.00090  0.41482  Biso   1.000  C
  H37      1.0000 0.10970  0.44730  0.91920  Biso   1.000  H
  H38      1.0000 0.39030  0.94730  0.58080  Biso   1.000  H
  H39      1.0000 0.89030  0.55270  0.08080  Biso   1.000  H
  H40      1.0000 0.60970  0.05270  0.41920  Biso   1.000  H
  C57      1.0000 0.51120  0.90980  0.83038  Biso   1.000  C
  C58      1.0000 0.98880  0.40980  0.66962  Biso   1.000  C
  C59      1.0000 0.48880  0.09020  0.16962  Biso   1.000  C
  C60      1.0000 0.01120  0.59020  0.33038  Biso   1.000  C
  C61      1.0000 0.16890  0.53010  0.87548  Biso   1.000  C
  C62      1.0000 0.33110  0.03010  0.62452  Biso   1.000  C
  C63      1.0000 0.83110  0.46990  0.12452  Biso   1.000  C
  C64      1.0000 0.66890  0.96990  0.37548  Biso   1.000  C
  C65      1.0000 0.31640  0.65550  0.90123  Biso   1.000  C
  C66      1.0000 0.18360  0.15550  0.59877  Biso   1.000  C
  C67      1.0000 0.68360  0.34450  0.09877  Biso   1.000  C
  C68      1.0000 0.81640  0.84450  0.40123  Biso   1.000  C
  C69      1.0000 0.62900  0.92270  0.93050  Biso   1.000  C
  C70      1.0000 0.87100  0.42270  0.56950  Biso   1.000  C
  C71      1.0000 0.37100  0.07730  0.06950  Biso   1.000  C
  C72      1.0000 0.12900  0.57730  0.43050  Biso   1.000  C
  C73      1.0000 0.66440  0.83490  0.18828  Biso   1.000  C
  C74      1.0000 0.83560  0.33490  0.31172  Biso   1.000  C
  C75      1.0000 0.33560  0.16510  0.81172  Biso   1.000  C
  C76      1.0000 0.16440  0.66510  0.68828  Biso   1.000  C
  H41      1.0000 0.65690  0.88610  0.17530  Biso   1.000  H
  H42      1.0000 0.84310  0.38610  0.32470  Biso   1.000  H
  H43      1.0000 0.34310  0.11390  0.82470  Biso   1.000  H
  H44      1.0000 0.15690  0.61390  0.67530  Biso   1.000  H
  C77      1.0000 0.62100  0.68790  0.18843  Biso   1.000  C
  C78      1.0000 0.87900  0.18790  0.31157  Biso   1.000  C
  C79      1.0000 0.37900  0.31210  0.81157  Biso   1.000  C
  C80      1.0000 0.12100  0.81210  0.68843  Biso   1.000  C
  H45      1.0000 0.58510  0.63860  0.17560  Biso   1.000  H
  H46      1.0000 0.91490  0.13860  0.32440  Biso   1.000  H
  H47      1.0000 0.41490  0.36140  0.82440  Biso   1.000  H
  H48      1.0000 0.08510  0.86140  0.67560  Biso   1.000  H
  C81      1.0000 0.71520  0.83040  0.22926  Biso   1.000  C
  C82      1.0000 0.78480  0.33040  0.27074  Biso   1.000  C
  C83      1.0000 0.28480  0.16960  0.77074  Biso   1.000  C
  C84      1.0000 0.21520  0.66960  0.72926  Biso   1.000  C
  H49      1.0000 0.74490  0.87940  0.24310  Biso   1.000  H
  H50      1.0000 0.75510  0.37940  0.25690  Biso   1.000  H
  H51      1.0000 0.25510  0.12060  0.75690  Biso   1.000  H
  H52      1.0000 0.24490  0.62060  0.74310  Biso   1.000  H
  C85      1.0000 0.11080  0.50680  0.80406  Biso   1.000  C
  C86      1.0000 0.38920  0.00680  0.69594  Biso   1.000  C
  C87      1.0000 0.88920  0.49320  0.19594  Biso   1.000  C
  C88      1.0000 0.61080  0.99320  0.30406  Biso   1.000  C
  H53      1.0000 0.04770  0.55880  0.80040  Biso   1.000  H
  H54      1.0000 0.45230  0.05880  0.69960  Biso   1.000  H
  H55      1.0000 0.95230  0.44120  0.19960  Biso   1.000  H
  H56      1.0000 0.54770  0.94120  0.30040  Biso   1.000  H
  H57      1.0000 0.05600  0.46640  0.78570  Biso   1.000  H
  H58      1.0000 0.44400  0.96640  0.71430  Biso   1.000  H
  H59      1.0000 0.94400  0.53360  0.21430  Biso   1.000  H
  H60      1.0000 0.55600  0.03360  0.28570  Biso   1.000  H
  H61      1.0000 0.23800  0.51380  0.79870  Biso   1.000  H
  H62      1.0000 0.26200  0.01380  0.70130  Biso   1.000  H
  H63      1.0000 0.76200  0.48620  0.20130  Biso   1.000  H
  H64      1.0000 0.73800  0.98620  0.29870  Biso   1.000  H
  Cu9      1.0000 0.71785  0.67905  0.78463  Biso   1.000  Cu
  Cu10     1.0000 0.78215  0.17905  0.71537  Biso   1.000  Cu
  Cu11     1.0000 0.28215  0.32095  0.21537  Biso   1.000  Cu
  Cu12     1.0000 0.21785  0.82095  0.28463  Biso   1.000  Cu
  Cu13     1.0000 0.92386  0.71226  0.96253  Biso   1.000  Cu
  Cu14     1.0000 0.57614  0.21226  0.53747  Biso   1.000  Cu
  Cu15     1.0000 0.07614  0.28774  0.03747  Biso   1.000  Cu
  Cu16     1.0000 0.42386  0.78774  0.46253  Biso   1.000  Cu
  N17      1.0000 0.78550  0.67339  0.84114  Biso   1.000  N
  N18      1.0000 0.71450  0.17339  0.65886  Biso   1.000  N
  N19      1.0000 0.21450  0.32661  0.15886  Biso   1.000  N
  N20      1.0000 0.28550  0.82661  0.34114  Biso   1.000  N
  N21      1.0000 0.85200  0.68847  0.90752  Biso   1.000  N
  N22      1.0000 0.64800  0.18847  0.59248  Biso   1.000  N
  N23      1.0000 0.14800  0.31153  0.09248  Biso   1.000  N
  N24      1.0000 0.35200  0.81153  0.40752  Biso   1.000  N
  O21      1.0000 0.78230  0.58301  0.97099  Biso   1.000  O
  O22      1.0000 0.71770  0.08301  0.52901  Biso   1.000  O
  O23      1.0000 0.21770  0.41699  0.02901  Biso   1.000  O
  O24      1.0000 0.28230  0.91699  0.47099  Biso   1.000  O
  N25      1.0000 0.68290  0.69796  0.72804  Biso   1.000  N
  N26      1.0000 0.81710  0.19796  0.77196  Biso   1.000  N
  N27      1.0000 0.31710  0.30204  0.27196  Biso   1.000  N
  N28      1.0000 0.18290  0.80204  0.22804  Biso   1.000  N
  N29      1.0000 0.50910  0.75948  0.51634  Biso   1.000  N
  N30      1.0000 0.99090  0.25948  0.98366  Biso   1.000  N
  N31      1.0000 0.49090  0.24052  0.48366  Biso   1.000  N
  N32      1.0000 0.00910  0.74052  0.01634  Biso   1.000  N
  C89      1.0000 0.77050  0.61210  0.90110  Biso   1.000  C
  C90      1.0000 0.72950  0.11210  0.59890  Biso   1.000  C
  C91      1.0000 0.22950  0.38790  0.09890  Biso   1.000  C
  C92      1.0000 0.27050  0.88790  0.40110  Biso   1.000  C
  C93      1.0000 0.93540  0.83990  0.82386  Biso   1.000  C
  C94      1.0000 0.56460  0.33990  0.67614  Biso   1.000  C
  C95      1.0000 0.06460  0.16010  0.17614  Biso   1.000  C
  C96      1.0000 0.43540  0.66010  0.32386  Biso   1.000  C
  H65      1.0000 0.88380  0.80990  0.80200  Biso   1.000  H
  H66      1.0000 0.61620  0.30990  0.69800  Biso   1.000  H
  H67      1.0000 0.11620  0.19010  0.19800  Biso   1.000  H
  H68      1.0000 0.38380  0.69010  0.30200  Biso   1.000  H
  O25      1.0000 0.60740  0.54466  0.79888  Biso   1.000  O
  O26      1.0000 0.89260  0.04466  0.70112  Biso   1.000  O
  O27      1.0000 0.39260  0.45534  0.20112  Biso   1.000  O
  O28      1.0000 0.10740  0.95534  0.29888  Biso   1.000  O
  O29      1.0000 0.59890  0.46797  0.85542  Biso   1.000  O
  O30      1.0000 0.90110  0.96797  0.64458  Biso   1.000  O
  O31      1.0000 0.40110  0.53203  0.14458  Biso   1.000  O
  O32      1.0000 0.09890  0.03203  0.35542  Biso   1.000  O
  H69      1.0000 0.49220  0.47050  0.86200  Biso   1.000  H
  H70      1.0000 0.00780  0.97050  0.63800  Biso   1.000  H
  H71      1.0000 0.50780  0.52950  0.13800  Biso   1.000  H
  H72      1.0000 0.99220  0.02950  0.36200  Biso   1.000  H
  C97      1.0000 0.72900  0.60270  0.85988  Biso   1.000  C
  C98      1.0000 0.77100  0.10270  0.64012  Biso   1.000  C
  C99      1.0000 0.27100  0.39730  0.14012  Biso   1.000  C
  C100     1.0000 0.22900  0.89730  0.35988  Biso   1.000  C
  O33      1.0000 0.67000  0.48456  0.92907  Biso   1.000  O
  O34      1.0000 0.83000  0.98456  0.57093  Biso   1.000  O
  O35      1.0000 0.33000  0.51544  0.07093  Biso   1.000  O
  O36      1.0000 0.17000  0.01544  0.42907  Biso   1.000  O
  C101     1.0000 0.69520  0.63360  0.70153  Biso   1.000  C
  C102     1.0000 0.80480  0.13360  0.79847  Biso   1.000  C
  C103     1.0000 0.30480  0.36640  0.29847  Biso   1.000  C
  C104     1.0000 0.19520  0.86640  0.20153  Biso   1.000  C
  H73      1.0000 0.72450  0.58120  0.71180  Biso   1.000  H
  H74      1.0000 0.77550  0.08120  0.78820  Biso   1.000  H
  H75      1.0000 0.27550  0.41880  0.28820  Biso   1.000  H
  H76      1.0000 0.22450  0.91880  0.21180  Biso   1.000  H
  C105     1.0000 0.00880  0.91840  0.81789  Biso   1.000  C
  C106     1.0000 0.49120  0.41840  0.68211  Biso   1.000  C
  C107     1.0000 0.99120  0.08160  0.18211  Biso   1.000  C
  C108     1.0000 0.50880  0.58160  0.31789  Biso   1.000  C
  H77      1.0000 0.00310  0.94130  0.79200  Biso   1.000  H
  H78      1.0000 0.49690  0.44130  0.70800  Biso   1.000  H
  H79      1.0000 0.99690  0.05870  0.20800  Biso   1.000  H
  H80      1.0000 0.50310  0.55870  0.29200  Biso   1.000  H
  O37      1.0000 0.17850  0.97882  0.91845  Biso   1.000  O
  O38      1.0000 0.32150  0.47882  0.58155  Biso   1.000  O
  O39      1.0000 0.82150  0.02118  0.08155  Biso   1.000  O
  O40      1.0000 0.67850  0.52118  0.41845  Biso   1.000  O
  C109     1.0000 0.51460  0.67040  0.57489  Biso   1.000  C
  C110     1.0000 0.98540  0.17040  0.92511  Biso   1.000  C
  C111     1.0000 0.48540  0.32960  0.42511  Biso   1.000  C
  C112     1.0000 0.01460  0.82960  0.07489  Biso   1.000  C
  H81      1.0000 0.49200  0.61830  0.58570  Biso   1.000  H
  H82      1.0000 0.00800  0.11830  0.91430  Biso   1.000  H
  H83      1.0000 0.50800  0.38170  0.41430  Biso   1.000  H
  H84      1.0000 0.99200  0.88170  0.08570  Biso   1.000  H
  C113     1.0000 0.58710  0.82000  0.54029  Biso   1.000  C
  C114     1.0000 0.91290  0.32000  0.95971  Biso   1.000  C
  C115     1.0000 0.41290  0.18000  0.45971  Biso   1.000  C
  C116     1.0000 0.08710  0.68000  0.04029  Biso   1.000  C
  H85      1.0000 0.61450  0.87070  0.52860  Biso   1.000  H
  H86      1.0000 0.88550  0.37070  0.97140  Biso   1.000  H
  H87      1.0000 0.38550  0.12930  0.47140  Biso   1.000  H
  H88      1.0000 0.11450  0.62930  0.02860  Biso   1.000  H
  C117     1.0000 0.02110  0.85130  0.89541  Biso   1.000  C
  C118     1.0000 0.47890  0.35130  0.60459  Biso   1.000  C
  C119     1.0000 0.97890  0.14870  0.10459  Biso   1.000  C
  C120     1.0000 0.52110  0.64870  0.39541  Biso   1.000  C
  H89      1.0000 0.02520  0.82910  0.92140  Biso   1.000  H
  H90      1.0000 0.47480  0.32910  0.57860  Biso   1.000  H
  H91      1.0000 0.97480  0.17090  0.07860  Biso   1.000  H
  H92      1.0000 0.52520  0.67090  0.42140  Biso   1.000  H
  C121     1.0000 0.93990  0.80650  0.86289  Biso   1.000  C
  C122     1.0000 0.56010  0.30650  0.63711  Biso   1.000  C
  C123     1.0000 0.06010  0.19350  0.13711  Biso   1.000  C
  C124     1.0000 0.43990  0.69350  0.36289  Biso   1.000  C
  C125     1.0000 0.74000  0.55800  0.93633  Biso   1.000  C
  C126     1.0000 0.76000  0.05800  0.56367  Biso   1.000  C
  C127     1.0000 0.26000  0.44200  0.06367  Biso   1.000  C
  C128     1.0000 0.24000  0.94200  0.43633  Biso   1.000  C
  C129     1.0000 0.63880  0.53410  0.83632  Biso   1.000  C
  C130     1.0000 0.86120  0.03410  0.66368  Biso   1.000  C
  C131     1.0000 0.36120  0.46590  0.16368  Biso   1.000  C
  C132     1.0000 0.13880  0.96590  0.33632  Biso   1.000  C
  C133     1.0000 0.64110  0.77390  0.71220  Biso   1.000  C
  C134     1.0000 0.85890  0.27390  0.78780  Biso   1.000  C
  C135     1.0000 0.35890  0.22610  0.28780  Biso   1.000  C
  C136     1.0000 0.14110  0.72610  0.21220  Biso   1.000  C
  H93      1.0000 0.63200  0.81850  0.72980  Biso   1.000  H
  H94      1.0000 0.86800  0.31850  0.77020  Biso   1.000  H
  H95      1.0000 0.36800  0.18150  0.27020  Biso   1.000  H
  H96      1.0000 0.13200  0.68150  0.22980  Biso   1.000  H
  C137     1.0000 0.66600  0.64310  0.66019  Biso   1.000  C
  C138     1.0000 0.83400  0.14310  0.83981  Biso   1.000  C
  C139     1.0000 0.33400  0.35690  0.33981  Biso   1.000  C
  C140     1.0000 0.16600  0.85690  0.16019  Biso   1.000  C
  H97      1.0000 0.67510  0.59760  0.64310  Biso   1.000  H
  H98      1.0000 0.82490  0.09760  0.85690  Biso   1.000  H
  H99      1.0000 0.32490  0.40240  0.35690  Biso   1.000  H
  H100     1.0000 0.17510  0.90240  0.14310  Biso   1.000  H
  C141     1.0000 0.62740  0.80880  0.58160  Biso   1.000  C
  C142     1.0000 0.87260  0.30880  0.91840  Biso   1.000  C
  C143     1.0000 0.37260  0.19120  0.41840  Biso   1.000  C
  C144     1.0000 0.12740  0.69120  0.08160  Biso   1.000  C
  H101     1.0000 0.68050  0.85170  0.59700  Biso   1.000  H
  H102     1.0000 0.81950  0.35170  0.90300  Biso   1.000  H
  H103     1.0000 0.31950  0.14830  0.40300  Biso   1.000  H
  H104     1.0000 0.18050  0.64830  0.09700  Biso   1.000  H
  C145     1.0000 0.61130  0.78780  0.67121  Biso   1.000  C
  C146     1.0000 0.88870  0.28780  0.82879  Biso   1.000  C
  C147     1.0000 0.38870  0.21220  0.32879  Biso   1.000  C
  C148     1.0000 0.11130  0.71220  0.17121  Biso   1.000  C
  H105     1.0000 0.58380  0.84090  0.66160  Biso   1.000  H
  H106     1.0000 0.91620  0.34090  0.83840  Biso   1.000  H
  H107     1.0000 0.41620  0.15910  0.33840  Biso   1.000  H
  H108     1.0000 0.08380  0.65910  0.16160  Biso   1.000  H
  C149     1.0000 0.09620  0.92970  0.88869  Biso   1.000  C
  C150     1.0000 0.40380  0.42970  0.61131  Biso   1.000  C
  C151     1.0000 0.90380  0.07030  0.11131  Biso   1.000  C
  C152     1.0000 0.59620  0.57030  0.38869  Biso   1.000  C
  C153     1.0000 0.86000  0.72330  0.87048  Biso   1.000  C
  C154     1.0000 0.64000  0.22330  0.62952  Biso   1.000  C
  C155     1.0000 0.14000  0.27670  0.12952  Biso   1.000  C
  C156     1.0000 0.36000  0.77670  0.37048  Biso   1.000  C
  C157     1.0000 0.62280  0.72110  0.64403  Biso   1.000  C
  C158     1.0000 0.87720  0.22110  0.85597  Biso   1.000  C
  C159     1.0000 0.37720  0.27890  0.35597  Biso   1.000  C
  C160     1.0000 0.12280  0.77890  0.14403  Biso   1.000  C
  C161     1.0000 0.09060  0.96330  0.85009  Biso   1.000  C
  C162     1.0000 0.40940  0.46330  0.64991  Biso   1.000  C
  C163     1.0000 0.90940  0.03670  0.14991  Biso   1.000  C
  C164     1.0000 0.59060  0.53670  0.35009  Biso   1.000  C
  H109     1.0000 0.14100  0.01540  0.84570  Biso   1.000  H
  H110     1.0000 0.35900  0.51540  0.65430  Biso   1.000  H
  H111     1.0000 0.85900  0.98460  0.15430  Biso   1.000  H
  H112     1.0000 0.64100  0.48460  0.34570  Biso   1.000  H
  C165     1.0000 0.47480  0.68550  0.53391  Biso   1.000  C
  C166     1.0000 0.02520  0.18550  0.96609  Biso   1.000  C
  C167     1.0000 0.52520  0.31450  0.46609  Biso   1.000  C
  C168     1.0000 0.97480  0.81450  0.03391  Biso   1.000  C
  H113     1.0000 0.42250  0.64330  0.51790  Biso   1.000  H
  H114     1.0000 0.07750  0.14330  0.98210  Biso   1.000  H
  H115     1.0000 0.57750  0.35670  0.48210  Biso   1.000  H
  H116     1.0000 0.92250  0.85670  0.01790  Biso   1.000  H
  C169     1.0000 0.58850  0.73350  0.59983  Biso   1.000  C
  C170     1.0000 0.91150  0.23350  0.90017  Biso   1.000  C
  C171     1.0000 0.41150  0.26650  0.40017  Biso   1.000  C
  C172     1.0000 0.08850  0.76650  0.09983  Biso   1.000  C
  C173     1.0000 0.16430  0.95190  0.96000  Biso   1.000  C
  C174     1.0000 0.33570  0.45190  0.54000  Biso   1.000  C
  C175     1.0000 0.83570  0.04810  0.04000  Biso   1.000  C
  C176     1.0000 0.66430  0.54810  0.46000  Biso   1.000  C
  H117     1.0000 0.03710  0.94780  0.96590  Biso   1.000  H
  H118     1.0000 0.46290  0.44780  0.53410  Biso   1.000  H
  H119     1.0000 0.96290  0.05220  0.03410  Biso   1.000  H
  H120     1.0000 0.53710  0.55220  0.46590  Biso   1.000  H
  H121     1.0000 0.22440  0.99150  0.97800  Biso   1.000  H
  H122     1.0000 0.27560  0.49150  0.52200  Biso   1.000  H
  H123     1.0000 0.77560  0.00850  0.02200  Biso   1.000  H
  H124     1.0000 0.72440  0.50850  0.47800  Biso   1.000  H
  H125     1.0000 0.22220  0.89870  0.96370  Biso   1.000  H
  H126     1.0000 0.27780  0.39870  0.53630  Biso   1.000  H
  H127     1.0000 0.77780  0.10130  0.03630  Biso   1.000  H
  H128     1.0000 0.72220  0.60130  0.46370  Biso   1.000  H
  H129     1.0000 0.57670  0.98930  0.86420  Biso   1.000  H
  H130     1.0000 0.92330  0.48930  0.63580  Biso   1.000  H
  H131     1.0000 0.42330  0.01070  0.13580  Biso   1.000  H
  H132     1.0000 0.07670  0.51070  0.36420  Biso   1.000  H
  H133     1.0000 0.63500  0.48120  0.90510  Biso   1.000  H
  H134     1.0000 0.86500  0.98120  0.59490  Biso   1.000  H
  H135     1.0000 0.36500  0.51880  0.09490  Biso   1.000  H
  H136     1.0000 0.13500  0.01880  0.40510  Biso   1.000  H
