data_image0
_cell_length_a       9.271
_cell_length_b       7.7355
_cell_length_c       11.967
_cell_angle_alpha    90
_cell_angle_beta     102.693
_cell_angle_gamma    90

_symmetry_space_group_name_H-M    "P 1"
_symmetry_int_tables_number       1

loop_
  _symmetry_equiv_pos_as_xyz
  'x, y, z'

loop_
  _atom_site_label
  _atom_site_occupancy
  _atom_site_fract_x
  _atom_site_fract_y
  _atom_site_fract_z
  _atom_site_thermal_displace_type
  _atom_site_B_iso_or_equiv
  _atom_site_type_symbol
  Cu1      1.0000 0.25324  0.51904  0.55131  Biso   1.000  Cu
  Cu2      1.0000 0.24676  0.01904  0.94869  Biso   1.000  Cu
  Cu3      1.0000 0.74676  0.48096  0.44869  Biso   1.000  Cu
  Cu4      1.0000 0.75324  0.98096  0.05131  Biso   1.000  Cu
  O1       1.0000 0.14530  0.47730  0.33380  Biso   1.000  O
  O2       1.0000 0.35470  0.97730  0.16620  Biso   1.000  O
  O3       1.0000 0.85470  0.52270  0.66620  Biso   1.000  O
  O4       1.0000 0.64530  0.02270  0.83380  Biso   1.000  O
  N1       1.0000 0.42460  0.49490  0.47170  Biso   1.000  N
  N2       1.0000 0.07540  0.99490  0.02830  Biso   1.000  N
  N3       1.0000 0.57540  0.50510  0.52830  Biso   1.000  N
  N4       1.0000 0.92460  0.00510  0.97170  Biso   1.000  N
  N5       1.0000 0.19230  0.74180  0.58860  Biso   1.000  N
  N6       1.0000 0.30770  0.24180  0.91140  Biso   1.000  N
  N7       1.0000 0.80770  0.25820  0.41140  Biso   1.000  N
  N8       1.0000 0.69230  0.75820  0.08860  Biso   1.000  N
  N9       1.0000 0.18600  0.30260  0.59540  Biso   1.000  N
  N10      1.0000 0.31400  0.80260  0.90460  Biso   1.000  N
  N11      1.0000 0.81400  0.69740  0.40460  Biso   1.000  N
  N12      1.0000 0.68600  0.19740  0.09540  Biso   1.000  N
  N13      1.0000 0.10120  0.01720  0.64620  Biso   1.000  N
  N14      1.0000 0.39880  0.51720  0.85380  Biso   1.000  N
  N15      1.0000 0.89880  0.98280  0.35380  Biso   1.000  N
  N16      1.0000 0.60120  0.48280  0.14620  Biso   1.000  N
  C1       1.0000 0.02570  0.45240  0.24560  Biso   1.000  C
  C2       1.0000 0.47430  0.95240  0.25440  Biso   1.000  C
  C3       1.0000 0.97430  0.54760  0.75440  Biso   1.000  C
  C4       1.0000 0.52570  0.04760  0.74560  Biso   1.000  C
  H1       1.0000 0.92760  0.46290  0.25140  Biso   1.000  H
  H2       1.0000 0.57240  0.96290  0.24860  Biso   1.000  H
  H3       1.0000 0.07240  0.53710  0.74860  Biso   1.000  H
  H4       1.0000 0.42760  0.03710  0.75140  Biso   1.000  H
  C5       1.0000 0.06950  0.41100  0.14990  Biso   1.000  C
  C6       1.0000 0.43050  0.91100  0.35010  Biso   1.000  C
  C7       1.0000 0.93050  0.58900  0.85010  Biso   1.000  C
  C8       1.0000 0.56950  0.08900  0.64990  Biso   1.000  C
  H5       1.0000 0.00830  0.38740  0.07890  Biso   1.000  H
  H6       1.0000 0.49170  0.88740  0.42110  Biso   1.000  H
  H7       1.0000 0.99170  0.61260  0.92110  Biso   1.000  H
  H8       1.0000 0.50830  0.11260  0.57890  Biso   1.000  H
  C9       1.0000 0.22350  0.40960  0.17570  Biso   1.000  C
  C10      1.0000 0.27650  0.90960  0.32430  Biso   1.000  C
  C11      1.0000 0.77650  0.59040  0.82430  Biso   1.000  C
  C12      1.0000 0.72350  0.09040  0.67570  Biso   1.000  C
  H9       1.0000 0.28460  0.38620  0.12550  Biso   1.000  H
  H10      1.0000 0.21540  0.88620  0.37450  Biso   1.000  H
  H11      1.0000 0.71540  0.61380  0.87450  Biso   1.000  H
  H12      1.0000 0.78460  0.11380  0.62550  Biso   1.000  H
  C13      1.0000 0.26650  0.44900  0.28810  Biso   1.000  C
  C14      1.0000 0.23350  0.94900  0.21190  Biso   1.000  C
  C15      1.0000 0.73350  0.55100  0.71190  Biso   1.000  C
  C16      1.0000 0.76650  0.05100  0.78810  Biso   1.000  C
  C17      1.0000 0.40720  0.46230  0.36290  Biso   1.000  C
  C18      1.0000 0.09280  0.96230  0.13710  Biso   1.000  C
  C19      1.0000 0.59280  0.53770  0.63710  Biso   1.000  C
  C20      1.0000 0.90720  0.03770  0.86290  Biso   1.000  C
  H13      1.0000 0.49080  0.44700  0.33310  Biso   1.000  H
  H14      1.0000 0.00920  0.94700  0.16690  Biso   1.000  H
  H15      1.0000 0.50920  0.55300  0.66690  Biso   1.000  H
  H16      1.0000 0.99080  0.05300  0.83310  Biso   1.000  H
  C21      1.0000 0.15150  0.87530  0.61310  Biso   1.000  C
  C22      1.0000 0.34850  0.37530  0.88690  Biso   1.000  C
  C23      1.0000 0.84850  0.12470  0.38690  Biso   1.000  C
  C24      1.0000 0.65150  0.62470  0.11310  Biso   1.000  C
  C25      1.0000 0.14980  0.16390  0.61640  Biso   1.000  C
  C26      1.0000 0.35020  0.66390  0.88360  Biso   1.000  C
  C27      1.0000 0.85020  0.83610  0.38360  Biso   1.000  C
  C28      1.0000 0.64980  0.33610  0.11640  Biso   1.000  C
