data_image0
_cell_length_a       3.84
_cell_length_b       12.229
_cell_length_c       15.724
_cell_angle_alpha    90
_cell_angle_beta     90
_cell_angle_gamma    90

_symmetry_space_group_name_H-M    "P 1"
_symmetry_int_tables_number       1

loop_
  _symmetry_equiv_pos_as_xyz
  'x, y, z'

loop_
  _atom_site_label
  _atom_site_occupancy
  _atom_site_fract_x
  _atom_site_fract_y
  _atom_site_fract_z
  _atom_site_thermal_displace_type
  _atom_site_B_iso_or_equiv
  _atom_site_type_symbol
  Cu1      1.0000 0.00000  0.50000  0.68940  Biso   1.000  Cu
  Cu2      1.0000 0.00000  0.00000  0.68940  Biso   1.000  Cu
  Cu3      1.0000 0.50000  0.00000  0.18940  Biso   1.000  Cu
  Cu4      1.0000 0.50000  0.50000  0.18940  Biso   1.000  Cu
  Cl1      1.0000 0.50000  0.50000  0.60080  Biso   1.000  Cl
  Cl2      1.0000 0.50000  0.00000  0.60080  Biso   1.000  Cl
  Cl3      1.0000 0.00000  0.00000  0.10080  Biso   1.000  Cl
  Cl4      1.0000 0.00000  0.50000  0.10080  Biso   1.000  Cl
  S1       1.0000 0.13780  0.75000  0.68410  Biso   1.000  S
  S2       1.0000 0.86220  0.25000  0.68410  Biso   1.000  S
  S3       1.0000 0.63780  0.25000  0.18410  Biso   1.000  S
  S4       1.0000 0.36220  0.75000  0.18410  Biso   1.000  S
  N1       1.0000 0.01500  0.64880  0.74460  Biso   1.000  N
  N2       1.0000 0.98500  0.35120  0.74460  Biso   1.000  N
  N3       1.0000 0.98500  0.14880  0.74460  Biso   1.000  N
  N4       1.0000 0.01500  0.85120  0.74460  Biso   1.000  N
  N5       1.0000 0.51500  0.14880  0.24460  Biso   1.000  N
  N6       1.0000 0.48500  0.85120  0.24460  Biso   1.000  N
  N7       1.0000 0.48500  0.64880  0.24460  Biso   1.000  N
  N8       1.0000 0.51500  0.35120  0.24460  Biso   1.000  N
  C1       1.0000 0.87410  0.69140  0.81580  Biso   1.000  C
  C2       1.0000 0.12590  0.30860  0.81580  Biso   1.000  C
  C3       1.0000 0.12590  0.19140  0.81580  Biso   1.000  C
  C4       1.0000 0.87410  0.80860  0.81580  Biso   1.000  C
  C5       1.0000 0.37410  0.19140  0.31580  Biso   1.000  C
  C6       1.0000 0.62590  0.80860  0.31580  Biso   1.000  C
  C7       1.0000 0.62590  0.69140  0.31580  Biso   1.000  C
  C8       1.0000 0.37410  0.30860  0.31580  Biso   1.000  C
  C9       1.0000 0.73830  0.63410  0.88650  Biso   1.000  C
  C10      1.0000 0.26170  0.36590  0.88650  Biso   1.000  C
  C11      1.0000 0.26170  0.13410  0.88650  Biso   1.000  C
  C12      1.0000 0.73830  0.86590  0.88650  Biso   1.000  C
  C13      1.0000 0.23830  0.13410  0.38650  Biso   1.000  C
  C14      1.0000 0.76170  0.86590  0.38650  Biso   1.000  C
  C15      1.0000 0.76170  0.63410  0.38650  Biso   1.000  C
  C16      1.0000 0.23830  0.36590  0.38650  Biso   1.000  C
  C17      1.0000 0.60730  0.69260  0.95220  Biso   1.000  C
  C18      1.0000 0.39270  0.30740  0.95220  Biso   1.000  C
  C19      1.0000 0.39270  0.19260  0.95220  Biso   1.000  C
  C20      1.0000 0.60730  0.80740  0.95220  Biso   1.000  C
  C21      1.0000 0.10730  0.19260  0.45220  Biso   1.000  C
  C22      1.0000 0.89270  0.80740  0.45220  Biso   1.000  C
  C23      1.0000 0.89270  0.69260  0.45220  Biso   1.000  C
  C24      1.0000 0.10730  0.30740  0.45220  Biso   1.000  C
  H1       1.0000 0.76200  0.55100  0.88550  Biso   1.000  H
  H2       1.0000 0.23800  0.44900  0.88550  Biso   1.000  H
  H3       1.0000 0.23800  0.05100  0.88550  Biso   1.000  H
  H4       1.0000 0.76200  0.94900  0.88550  Biso   1.000  H
  H5       1.0000 0.26200  0.05100  0.38550  Biso   1.000  H
  H6       1.0000 0.73800  0.94900  0.38550  Biso   1.000  H
  H7       1.0000 0.73800  0.55100  0.38550  Biso   1.000  H
  H8       1.0000 0.26200  0.44900  0.38550  Biso   1.000  H
  H9       1.0000 0.51800  0.66120  0.99740  Biso   1.000  H
  H10      1.0000 0.48200  0.33880  0.99740  Biso   1.000  H
  H11      1.0000 0.48200  0.16120  0.99740  Biso   1.000  H
  H12      1.0000 0.51800  0.83880  0.99740  Biso   1.000  H
  H13      1.0000 0.01800  0.16120  0.49740  Biso   1.000  H
  H14      1.0000 0.98200  0.83880  0.49740  Biso   1.000  H
  H15      1.0000 0.98200  0.66120  0.49740  Biso   1.000  H
  H16      1.0000 0.01800  0.33880  0.49740  Biso   1.000  H
