data_image0
_cell_length_a       9.6339
_cell_length_b       14.4436
_cell_length_c       10.0795
_cell_angle_alpha    90
_cell_angle_beta     101.732
_cell_angle_gamma    90

_symmetry_space_group_name_H-M    "P 1"
_symmetry_int_tables_number       1

loop_
  _symmetry_equiv_pos_as_xyz
  'x, y, z'

loop_
  _atom_site_label
  _atom_site_occupancy
  _atom_site_fract_x
  _atom_site_fract_y
  _atom_site_fract_z
  _atom_site_thermal_displace_type
  _atom_site_B_iso_or_equiv
  _atom_site_type_symbol
  Cu1      1.0000 0.70955  0.10595  0.68077  Biso   1.000  Cu
  Cu2      1.0000 0.79045  0.60595  0.81923  Biso   1.000  Cu
  Cu3      1.0000 0.29045  0.89405  0.31923  Biso   1.000  Cu
  Cu4      1.0000 0.20955  0.39405  0.18077  Biso   1.000  Cu
  C1       1.0000 0.84500  0.95768  0.87420  Biso   1.000  C
  C2       1.0000 0.65500  0.45768  0.62580  Biso   1.000  C
  C3       1.0000 0.15500  0.04232  0.12580  Biso   1.000  C
  C4       1.0000 0.34500  0.54232  0.37420  Biso   1.000  C
  H1       1.0000 0.76610  0.96910  0.91170  Biso   1.000  H
  H2       1.0000 0.73390  0.46910  0.58830  Biso   1.000  H
  H3       1.0000 0.23390  0.03090  0.08830  Biso   1.000  H
  H4       1.0000 0.26610  0.53090  0.41170  Biso   1.000  H
  C5       1.0000 0.93470  0.88733  0.92710  Biso   1.000  C
  C6       1.0000 0.56530  0.38733  0.57290  Biso   1.000  C
  C7       1.0000 0.06530  0.11267  0.07290  Biso   1.000  C
  C8       1.0000 0.43470  0.61267  0.42710  Biso   1.000  C
  H5       1.0000 0.91660  0.85250  0.99930  Biso   1.000  H
  H6       1.0000 0.58340  0.35250  0.50070  Biso   1.000  H
  H7       1.0000 0.08340  0.14750  0.00070  Biso   1.000  H
  H8       1.0000 0.41660  0.64750  0.49930  Biso   1.000  H
  C9       1.0000 0.05200  0.86832  0.87270  Biso   1.000  C
  C10      1.0000 0.44800  0.36832  0.62730  Biso   1.000  C
  C11      1.0000 0.94800  0.13168  0.12730  Biso   1.000  C
  C12      1.0000 0.55200  0.63168  0.37270  Biso   1.000  C
  H9       1.0000 0.11340  0.82040  0.90680  Biso   1.000  H
  H10      1.0000 0.38660  0.32040  0.59320  Biso   1.000  H
  H11      1.0000 0.88660  0.17960  0.09320  Biso   1.000  H
  H12      1.0000 0.61340  0.67960  0.40680  Biso   1.000  H
  C13      1.0000 0.07570  0.92252  0.76620  Biso   1.000  C
  C14      1.0000 0.42430  0.42252  0.73380  Biso   1.000  C
  C15      1.0000 0.92430  0.07748  0.23380  Biso   1.000  C
  C16      1.0000 0.57570  0.57748  0.26620  Biso   1.000  C
  C17      1.0000 0.98120  0.99329  0.71990  Biso   1.000  C
  C18      1.0000 0.51880  0.49329  0.78010  Biso   1.000  C
  C19      1.0000 0.01880  0.00671  0.28010  Biso   1.000  C
  C20      1.0000 0.48120  0.50671  0.21990  Biso   1.000  C
  H13      1.0000 0.99880  0.03050  0.64990  Biso   1.000  H
  H14      1.0000 0.50120  0.53050  0.85010  Biso   1.000  H
  H15      1.0000 0.00120  0.96950  0.35010  Biso   1.000  H
  H16      1.0000 0.49880  0.46950  0.14990  Biso   1.000  H
  C21      1.0000 0.58830  0.76004  0.71320  Biso   1.000  C
  C22      1.0000 0.91170  0.26004  0.78680  Biso   1.000  C
  C23      1.0000 0.41170  0.23996  0.28680  Biso   1.000  C
  C24      1.0000 0.08830  0.73996  0.21320  Biso   1.000  C
  H17      1.0000 0.53310  0.73070  0.76630  Biso   1.000  H
  H18      1.0000 0.96690  0.23070  0.73370  Biso   1.000  H
  H19      1.0000 0.46690  0.26930  0.23370  Biso   1.000  H
  H20      1.0000 0.03310  0.76930  0.26630  Biso   1.000  H
  C25      1.0000 0.53110  0.83520  0.63520  Biso   1.000  C
  C26      1.0000 0.96890  0.33520  0.86480  Biso   1.000  C
  C27      1.0000 0.46890  0.16480  0.36480  Biso   1.000  C
  C28      1.0000 0.03110  0.66480  0.13520  Biso   1.000  C
  C29      1.0000 0.61340  0.87894  0.55590  Biso   1.000  C
  C30      1.0000 0.88660  0.37894  0.94410  Biso   1.000  C
  C31      1.0000 0.38660  0.12106  0.44410  Biso   1.000  C
  C32      1.0000 0.11340  0.62106  0.05590  Biso   1.000  C
  H21      1.0000 0.57870  0.92990  0.50320  Biso   1.000  H
  H22      1.0000 0.92130  0.42990  0.99680  Biso   1.000  H
  H23      1.0000 0.42130  0.07010  0.49680  Biso   1.000  H
  H24      1.0000 0.07870  0.57010  0.00320  Biso   1.000  H
  C33      1.0000 0.74790  0.84545  0.55660  Biso   1.000  C
  C34      1.0000 0.75210  0.34545  0.94340  Biso   1.000  C
  C35      1.0000 0.25210  0.15455  0.44340  Biso   1.000  C
  C36      1.0000 0.24790  0.65455  0.05660  Biso   1.000  C
  H25      1.0000 0.80450  0.87280  0.50300  Biso   1.000  H
  H26      1.0000 0.69550  0.37280  0.99700  Biso   1.000  H
  H27      1.0000 0.19550  0.12720  0.49700  Biso   1.000  H
  H28      1.0000 0.30450  0.62720  0.00300  Biso   1.000  H
  C37      1.0000 0.79660  0.77095  0.63790  Biso   1.000  C
  C38      1.0000 0.70340  0.27095  0.86210  Biso   1.000  C
  C39      1.0000 0.20340  0.22905  0.36210  Biso   1.000  C
  C40      1.0000 0.29660  0.72905  0.13790  Biso   1.000  C
  H29      1.0000 0.88780  0.74950  0.63900  Biso   1.000  H
  H30      1.0000 0.61220  0.24950  0.86100  Biso   1.000  H
  H31      1.0000 0.11220  0.25050  0.36100  Biso   1.000  H
  H32      1.0000 0.38780  0.75050  0.13900  Biso   1.000  H
  C41      1.0000 0.18690  0.90408  0.68980  Biso   1.000  C
  C42      1.0000 0.31310  0.40408  0.81020  Biso   1.000  C
  C43      1.0000 0.81310  0.09592  0.31020  Biso   1.000  C
  C44      1.0000 0.68690  0.59592  0.18980  Biso   1.000  C
  C45      1.0000 0.38510  0.86605  0.63060  Biso   1.000  C
  C46      1.0000 0.11490  0.36605  0.86940  Biso   1.000  C
  C47      1.0000 0.61490  0.13395  0.36940  Biso   1.000  C
  C48      1.0000 0.88510  0.63395  0.13060  Biso   1.000  C
  C49      1.0000 0.44010  0.10318  0.79280  Biso   1.000  C
  C50      1.0000 0.05990  0.60318  0.70720  Biso   1.000  C
  C51      1.0000 0.55990  0.89682  0.20720  Biso   1.000  C
  C52      1.0000 0.94010  0.39682  0.29280  Biso   1.000  C
  H33      1.0000 0.40300  0.82000  0.89500  Biso   1.000  H
  H34      1.0000 0.09700  0.32000  0.60500  Biso   1.000  H
  H35      1.0000 0.59700  0.18000  0.10500  Biso   1.000  H
  H36      1.0000 0.90300  0.68000  0.39500  Biso   1.000  H
  H37      1.0000 0.44600  0.90100  0.90400  Biso   1.000  H
  H38      1.0000 0.05400  0.40100  0.59600  Biso   1.000  H
  H39      1.0000 0.55400  0.09900  0.09600  Biso   1.000  H
  H40      1.0000 0.94600  0.59900  0.40400  Biso   1.000  H
  N1       1.0000 0.86570  0.01090  0.77069  Biso   1.000  N
  N2       1.0000 0.63430  0.51090  0.72931  Biso   1.000  N
  N3       1.0000 0.13430  0.98910  0.22931  Biso   1.000  N
  N4       1.0000 0.36570  0.48910  0.27069  Biso   1.000  N
  N5       1.0000 0.71920  0.72764  0.71560  Biso   1.000  N
  N6       1.0000 0.78080  0.22764  0.78440  Biso   1.000  N
  N7       1.0000 0.28080  0.27236  0.28440  Biso   1.000  N
  N8       1.0000 0.21920  0.77236  0.21560  Biso   1.000  N
  N9       1.0000 0.29260  0.88860  0.52000  Biso   1.000  N
  N10      1.0000 0.20740  0.38860  0.98000  Biso   1.000  N
  N11      1.0000 0.70740  0.11140  0.48000  Biso   1.000  N
  N12      1.0000 0.79260  0.61140  0.02000  Biso   1.000  N
  N13      1.0000 0.16650  0.91248  0.55760  Biso   1.000  N
  N14      1.0000 0.33350  0.41248  0.94240  Biso   1.000  N
  N15      1.0000 0.83350  0.08752  0.44240  Biso   1.000  N
  N16      1.0000 0.66650  0.58752  0.05760  Biso   1.000  N
  N17      1.0000 0.32210  0.87507  0.73954  Biso   1.000  N
  N18      1.0000 0.17790  0.37507  0.76046  Biso   1.000  N
  N19      1.0000 0.67790  0.12493  0.26046  Biso   1.000  N
  N20      1.0000 0.82210  0.62493  0.23954  Biso   1.000  N
  N21      1.0000 0.38370  0.86980  0.87830  Biso   1.000  N
  N22      1.0000 0.11630  0.36980  0.62170  Biso   1.000  N
  N23      1.0000 0.61630  0.13020  0.12170  Biso   1.000  N
  N24      1.0000 0.88370  0.63020  0.37830  Biso   1.000  N
  N25      1.0000 0.53590  0.07357  0.75650  Biso   1.000  N
  N26      1.0000 0.96410  0.57357  0.74350  Biso   1.000  N
  N27      1.0000 0.46410  0.92643  0.24350  Biso   1.000  N
  N28      1.0000 0.03590  0.42643  0.25650  Biso   1.000  N
  S1       1.0000 0.30775  0.14356  0.85120  Biso   1.000  S
  S2       1.0000 0.19225  0.64356  0.64880  Biso   1.000  S
  S3       1.0000 0.69225  0.85644  0.14880  Biso   1.000  S
  S4       1.0000 0.80775  0.35644  0.35120  Biso   1.000  S
