data_image0
_cell_length_a       8.453
_cell_length_b       14.656
_cell_length_c       15.651
_cell_angle_alpha    95.895
_cell_angle_beta     102.855
_cell_angle_gamma    90.786

_symmetry_space_group_name_H-M    "P 1"
_symmetry_int_tables_number       1

loop_
  _symmetry_equiv_pos_as_xyz
  'x, y, z'

loop_
  _atom_site_label
  _atom_site_occupancy
  _atom_site_fract_x
  _atom_site_fract_y
  _atom_site_fract_z
  _atom_site_thermal_displace_type
  _atom_site_B_iso_or_equiv
  _atom_site_type_symbol
  Cu1      1.0000 0.36893  0.13812  0.29576  Biso   1.000  Cu
  Cu2      1.0000 0.63107  0.86188  0.70424  Biso   1.000  Cu
  Cu3      1.0000 0.94571  0.09216  0.20342  Biso   1.000  Cu
  Cu4      1.0000 0.05429  0.90784  0.79658  Biso   1.000  Cu
  Cu5      1.0000 0.66310  0.63070  0.13896  Biso   1.000  Cu
  Cu6      1.0000 0.33690  0.36930  0.86104  Biso   1.000  Cu
  Cu7      1.0000 0.80702  0.28913  0.56962  Biso   1.000  Cu
  Cu8      1.0000 0.19298  0.71087  0.43038  Biso   1.000  Cu
  Cu9      1.0000 0.95638  0.56323  0.91672  Biso   1.000  Cu
  Cu10     1.0000 0.04362  0.43677  0.08328  Biso   1.000  Cu
  C1       1.0000 0.65300  0.78650  0.03100  Biso   1.000  C
  C2       1.0000 0.34700  0.21350  0.96900  Biso   1.000  C
  C3       1.0000 0.70060  0.86220  0.99740  Biso   1.000  C
  C4       1.0000 0.29940  0.13780  0.00260  Biso   1.000  C
  C5       1.0000 0.84990  0.90280  0.03400  Biso   1.000  C
  C6       1.0000 0.15010  0.09720  0.96600  Biso   1.000  C
  C7       1.0000 0.94900  0.86640  0.10350  Biso   1.000  C
  C8       1.0000 0.05100  0.13360  0.89650  Biso   1.000  C
  C9       1.0000 0.89190  0.79020  0.13310  Biso   1.000  C
  C10      1.0000 0.10810  0.20980  0.86690  Biso   1.000  C
  C11      1.0000 0.10420  0.91370  0.14940  Biso   1.000  C
  C12      1.0000 0.89580  0.08630  0.85060  Biso   1.000  C
  C13      1.0000 0.35990  0.94530  0.20900  Biso   1.000  C
  C14      1.0000 0.64010  0.05470  0.79100  Biso   1.000  C
  C15      1.0000 0.53670  0.93850  0.24250  Biso   1.000  C
  C16      1.0000 0.46330  0.06150  0.75750  Biso   1.000  C
  C17      1.0000 0.60180  0.88000  0.30290  Biso   1.000  C
  C18      1.0000 0.39820  0.12000  0.69710  Biso   1.000  C
  C19      1.0000 0.76720  0.88760  0.33860  Biso   1.000  C
  C20      1.0000 0.23280  0.11240  0.66140  Biso   1.000  C
  C21      1.0000 0.85880  0.95170  0.31210  Biso   1.000  C
  C22      1.0000 0.14120  0.04830  0.68790  Biso   1.000  C
  C23      1.0000 0.63790  0.99960  0.21730  Biso   1.000  C
  C24      1.0000 0.36210  0.00040  0.78270  Biso   1.000  C
  C25      1.0000 0.67520  0.43370  0.45680  Biso   1.000  C
  C26      1.0000 0.32480  0.56630  0.54320  Biso   1.000  C
  C27      1.0000 0.57100  0.48010  0.39880  Biso   1.000  C
  C28      1.0000 0.42900  0.51990  0.60120  Biso   1.000  C
  C29      1.0000 0.41410  0.44360  0.36460  Biso   1.000  C
  C30      1.0000 0.58590  0.55640  0.63540  Biso   1.000  C
  C31      1.0000 0.37070  0.36190  0.39150  Biso   1.000  C
  C32      1.0000 0.62930  0.63810  0.60850  Biso   1.000  C
  C33      1.0000 0.48360  0.32150  0.45260  Biso   1.000  C
  C34      1.0000 0.51640  0.67850  0.54740  Biso   1.000  C
  C35      1.0000 0.21410  0.31460  0.34940  Biso   1.000  C
  C36      1.0000 0.78590  0.68540  0.65060  Biso   1.000  C
  C37      1.0000 0.95620  0.28650  0.29000  Biso   1.000  C
  C38      1.0000 0.04380  0.71350  0.71000  Biso   1.000  C
  C39      1.0000 0.77980  0.29730  0.25880  Biso   1.000  C
  C40      1.0000 0.22020  0.70270  0.74120  Biso   1.000  C
  C41      1.0000 0.71580  0.36550  0.20750  Biso   1.000  C
  C42      1.0000 0.28420  0.63450  0.79250  Biso   1.000  C
  C43      1.0000 0.55020  0.36390  0.17510  Biso   1.000  C
  C44      1.0000 0.44980  0.63610  0.82490  Biso   1.000  C
  C45      1.0000 0.45480  0.29550  0.19330  Biso   1.000  C
  C46      1.0000 0.54520  0.70450  0.80670  Biso   1.000  C
  C47      1.0000 0.67600  0.23250  0.27660  Biso   1.000  C
  C48      1.0000 0.32400  0.76750  0.72340  Biso   1.000  C
  C49      1.0000 0.62690  0.11290  0.46390  Biso   1.000  C
  C50      1.0000 0.37310  0.88710  0.53610  Biso   1.000  C
  C51      1.0000 0.84280  0.63950  0.33200  Biso   1.000  C
  C52      1.0000 0.15720  0.36050  0.66800  Biso   1.000  C
  C53      1.0000 0.81360  0.41200  0.76880  Biso   1.000  C
  C54      1.0000 0.18640  0.58800  0.23120  Biso   1.000  C
  C55      1.0000 0.34180  0.54400  0.03470  Biso   1.000  C
  C56      1.0000 0.65820  0.45600  0.96530  Biso   1.000  C
  C57      1.0000 0.90520  0.24200  0.07600  Biso   1.000  C
  C58      1.0000 0.09480  0.75800  0.92400  Biso   1.000  C
  N1       1.0000 0.11830  0.00180  0.17990  Biso   1.000  N
  N2       1.0000 0.88170  0.99820  0.82010  Biso   1.000  N
  N3       1.0000 0.28150  0.02170  0.21810  Biso   1.000  N
  N4       1.0000 0.71850  0.97830  0.78190  Biso   1.000  N
  N5       1.0000 0.25320  0.87670  0.16640  Biso   1.000  N
  N6       1.0000 0.74680  0.12330  0.83360  Biso   1.000  N
  N7       1.0000 0.30060  0.78920  0.13540  Biso   1.000  N
  N8       1.0000 0.69940  0.21080  0.86460  Biso   1.000  N
  N9       1.0000 0.79810  0.00730  0.25050  Biso   1.000  N
  N10      1.0000 0.20190  0.99270  0.74950  Biso   1.000  N
  N11      1.0000 0.74490  0.74910  0.09730  Biso   1.000  N
  N12      1.0000 0.25510  0.25090  0.90270  Biso   1.000  N
  N13      1.0000 0.03100  0.20850  0.28180  Biso   1.000  N
  N14      1.0000 0.96900  0.79150  0.71820  Biso   1.000  N
  N15      1.0000 0.19440  0.22660  0.31970  Biso   1.000  N
  N16      1.0000 0.80560  0.77340  0.68030  Biso   1.000  N
  N17      1.0000 0.06730  0.35410  0.33110  Biso   1.000  N
  N18      1.0000 0.93270  0.64590  0.66890  Biso   1.000  N
  N19      1.0000 0.03370  0.44690  0.35950  Biso   1.000  N
  N20      1.0000 0.96630  0.55310  0.64050  Biso   1.000  N
  N21      1.0000 0.63610  0.35480  0.48400  Biso   1.000  N
  N22      1.0000 0.36390  0.64520  0.51600  Biso   1.000  N
  N23      1.0000 0.51350  0.22920  0.24490  Biso   1.000  N
  N24      1.0000 0.48650  0.77080  0.75510  Biso   1.000  N
  N25      1.0000 0.52640  0.10520  0.40130  Biso   1.000  N
  N26      1.0000 0.47360  0.89480  0.59870  Biso   1.000  N
  N27      1.0000 0.77640  0.62540  0.25980  Biso   1.000  N
  N28      1.0000 0.22360  0.37460  0.74020  Biso   1.000  N
  N29      1.0000 0.86880  0.47770  0.81420  Biso   1.000  N
  N30      1.0000 0.13120  0.52230  0.18580  Biso   1.000  N
  N31      1.0000 0.44650  0.59150  0.07660  Biso   1.000  N
  N32      1.0000 0.55350  0.40850  0.92340  Biso   1.000  N
  N33      1.0000 0.97470  0.31130  0.07750  Biso   1.000  N
  N34      1.0000 0.02530  0.68870  0.92250  Biso   1.000  N
  S1       1.0000 0.77000  0.13004  0.55557  Biso   1.000  S
  S2       1.0000 0.23000  0.86996  0.44443  Biso   1.000  S
  S3       1.0000 0.93380  0.65944  0.43802  Biso   1.000  S
  S4       1.0000 0.06620  0.34056  0.56198  Biso   1.000  S
  S5       1.0000 0.72920  0.32190  0.70340  Biso   1.000  S
  S6       1.0000 0.27080  0.67810  0.29660  Biso   1.000  S
  S7       1.0000 0.19543  0.47142  0.97440  Biso   1.000  S
  S8       1.0000 0.80457  0.52858  0.02560  Biso   1.000  S
  S9       1.0000 0.80370  0.14344  0.07025  Biso   1.000  S
  S10      1.0000 0.19630  0.85656  0.92975  Biso   1.000  S
  H1       1.0000 0.54000  0.84100  0.31800  Biso   1.000  H
  H2       1.0000 0.46000  0.15900  0.68200  Biso   1.000  H
  H3       1.0000 0.60500  0.04000  0.17800  Biso   1.000  H
  H4       1.0000 0.39500  0.96000  0.82200  Biso   1.000  H
  H5       1.0000 0.97200  0.96000  0.33400  Biso   1.000  H
  H6       1.0000 0.02800  0.04000  0.66600  Biso   1.000  H
  H7       1.0000 0.81900  0.85300  0.37900  Biso   1.000  H
  H8       1.0000 0.18100  0.14700  0.62100  Biso   1.000  H
  H9       1.0000 0.60300  0.53400  0.38800  Biso   1.000  H
  H10      1.0000 0.39700  0.46600  0.61200  Biso   1.000  H
  H11      1.0000 0.77700  0.46100  0.48900  Biso   1.000  H
  H12      1.0000 0.22300  0.53900  0.51100  Biso   1.000  H
  H13      1.0000 0.45400  0.27000  0.47300  Biso   1.000  H
  H14      1.0000 0.54600  0.73000  0.52700  Biso   1.000  H
  H15      1.0000 0.34200  0.29500  0.17200  Biso   1.000  H
  H16      1.0000 0.65800  0.70500  0.82800  Biso   1.000  H
  H17      1.0000 0.71700  0.18800  0.31000  Biso   1.000  H
  H18      1.0000 0.28300  0.81200  0.69000  Biso   1.000  H
  H19      1.0000 0.50000  0.40500  0.13600  Biso   1.000  H
  H20      1.0000 0.50000  0.59500  0.86400  Biso   1.000  H
  H21      1.0000 0.62400  0.88400  0.95300  Biso   1.000  H
  H22      1.0000 0.37600  0.11600  0.04700  Biso   1.000  H
  H23      1.0000 0.56700  0.75300  0.00400  Biso   1.000  H
  H24      1.0000 0.43300  0.24700  0.99600  Biso   1.000  H
  H25      1.0000 0.87900  0.95200  0.01100  Biso   1.000  H
  H26      1.0000 0.12100  0.04800  0.98900  Biso   1.000  H
  H27      1.0000 0.95300  0.76200  0.17600  Biso   1.000  H
  H28      1.0000 0.04700  0.23800  0.82400  Biso   1.000  H
  H29      1.0000 0.35900  0.46800  0.32100  Biso   1.000  H
  H30      1.0000 0.64100  0.53200  0.67900  Biso   1.000  H
  H31      1.0000 0.78000  0.40700  0.19300  Biso   1.000  H
  H32      1.0000 0.22000  0.59300  0.80700  Biso   1.000  H
  H33      1.0000 0.27500  0.78300  0.08900  Biso   1.000  H
  H34      1.0000 0.72500  0.21700  0.91100  Biso   1.000  H
  H35      1.0000 0.28900  0.74600  0.16600  Biso   1.000  H
  H36      1.0000 0.71100  0.25400  0.83400  Biso   1.000  H
  H37      1.0000 0.00700  0.46900  0.40200  Biso   1.000  H
  H38      1.0000 0.99300  0.53100  0.59800  Biso   1.000  H
  H39      1.0000 0.02900  0.47600  0.31900  Biso   1.000  H
  H40      1.0000 0.97100  0.52400  0.68100  Biso   1.000  H
