data_image0
_cell_length_a       8.7767
_cell_length_b       9.0022
_cell_length_c       9.3592
_cell_angle_alpha    80.617
_cell_angle_beta     88.527
_cell_angle_gamma    84.051

_symmetry_space_group_name_H-M    "P 1"
_symmetry_int_tables_number       1

loop_
  _symmetry_equiv_pos_as_xyz
  'x, y, z'

loop_
  _atom_site_label
  _atom_site_occupancy
  _atom_site_fract_x
  _atom_site_fract_y
  _atom_site_fract_z
  _atom_site_thermal_displace_type
  _atom_site_B_iso_or_equiv
  _atom_site_type_symbol
  Cu1      1.0000 0.35365  0.31355  0.68301  Biso   1.000  Cu
  Cu2      1.0000 0.64635  0.68645  0.31699  Biso   1.000  Cu
  Cu3      1.0000 0.95528  0.63173  0.71873  Biso   1.000  Cu
  Cu4      1.0000 0.04472  0.36827  0.28127  Biso   1.000  Cu
  S1       1.0000 0.11672  0.39091  0.78338  Biso   1.000  S
  S2       1.0000 0.88328  0.60909  0.21662  Biso   1.000  S
  S3       1.0000 0.24492  0.38537  0.43859  Biso   1.000  S
  S4       1.0000 0.75508  0.61463  0.56141  Biso   1.000  S
  C1       1.0000 0.58260  0.03590  0.71370  Biso   1.000  C
  C2       1.0000 0.41740  0.96410  0.28630  Biso   1.000  C
  C3       1.0000 0.48090  0.86210  0.87100  Biso   1.000  C
  C4       1.0000 0.51910  0.13790  0.12900  Biso   1.000  C
  C5       1.0000 0.44540  0.73390  0.96510  Biso   1.000  C
  C6       1.0000 0.55460  0.26610  0.03490  Biso   1.000  C
  H1       1.0000 0.51830  0.65230  0.99260  Biso   1.000  H
  H2       1.0000 0.48170  0.34770  0.00740  Biso   1.000  H
  C7       1.0000 0.29650  0.73410  0.01530  Biso   1.000  C
  C8       1.0000 0.70350  0.26590  0.98470  Biso   1.000  C
  H3       1.0000 0.26770  0.65050  0.07830  Biso   1.000  H
  H4       1.0000 0.73230  0.34950  0.92170  Biso   1.000  H
  C9       1.0000 0.18780  0.85700  0.97360  Biso   1.000  C
  C10      1.0000 0.81220  0.14300  0.02640  Biso   1.000  C
  H5       1.0000 0.08840  0.85300  0.00990  Biso   1.000  H
  H6       1.0000 0.91160  0.14700  0.99010  Biso   1.000  H
  C11      1.0000 0.22270  0.98400  0.88070  Biso   1.000  C
  C12      1.0000 0.77730  0.01600  0.11930  Biso   1.000  C
  H7       1.0000 0.14940  0.06560  0.85440  Biso   1.000  H
  H8       1.0000 0.85060  0.93440  0.14560  Biso   1.000  H
  C13      1.0000 0.37280  0.98510  0.82750  Biso   1.000  C
  C14      1.0000 0.62720  0.01490  0.17250  Biso   1.000  C
  C15      1.0000 0.69530  0.10600  0.61350  Biso   1.000  C
  C16      1.0000 0.30470  0.89400  0.38650  Biso   1.000  C
  C17      1.0000 0.64940  0.18900  0.48080  Biso   1.000  C
  C18      1.0000 0.35060  0.81100  0.51920  Biso   1.000  C
  H9       1.0000 0.54690  0.19990  0.45470  Biso   1.000  H
  H10      1.0000 0.45310  0.80010  0.54530  Biso   1.000  H
  C19      1.0000 0.75620  0.25510  0.38790  Biso   1.000  C
  C20      1.0000 0.24380  0.74490  0.61210  Biso   1.000  C
  H11      1.0000 0.72280  0.31060  0.29970  Biso   1.000  H
  H12      1.0000 0.27720  0.68940  0.70030  Biso   1.000  H
  C21      1.0000 0.95030  0.16290  0.54650  Biso   1.000  C
  C22      1.0000 0.04970  0.83710  0.45350  Biso   1.000  C
  H13      1.0000 0.05350  0.15390  0.57010  Biso   1.000  H
  H14      1.0000 0.94650  0.84610  0.42990  Biso   1.000  H
  C23      1.0000 0.85080  0.09250  0.64540  Biso   1.000  C
  C24      1.0000 0.14920  0.90750  0.35460  Biso   1.000  C
  H15      1.0000 0.88720  0.03670  0.73240  Biso   1.000  H
  H16      1.0000 0.11280  0.96330  0.26760  Biso   1.000  H
  C25      1.0000 0.12180  0.36210  0.96230  Biso   1.000  C
  C26      1.0000 0.87820  0.63790  0.03770  Biso   1.000  C
  C27      1.0000 0.38310  0.48430  0.36150  Biso   1.000  C
  C28      1.0000 0.61690  0.51570  0.63850  Biso   1.000  C
  N1       1.0000 0.43900  0.09330  0.73000  Biso   1.000  N
  N2       1.0000 0.56100  0.90670  0.27000  Biso   1.000  N
  N3       1.0000 0.61300  0.89880  0.79690  Biso   1.000  N
  N4       1.0000 0.38700  0.10120  0.20310  Biso   1.000  N
  H17      1.0000 0.69960  0.84400  0.80250  Biso   1.000  H
  H18      1.0000 0.30040  0.15600  0.19750  Biso   1.000  H
  N5       1.0000 0.90640  0.24360  0.41830  Biso   1.000  N
  N6       1.0000 0.09360  0.75640  0.58170  Biso   1.000  N
  N7       1.0000 0.12010  0.34000  0.08750  Biso   1.000  N
  N8       1.0000 0.87990  0.66000  0.91250  Biso   1.000  N
  N9       1.0000 0.48270  0.55130  0.31540  Biso   1.000  N
  N10      1.0000 0.51730  0.44870  0.68460  Biso   1.000  N
