data_image0
_cell_length_a       5.891
_cell_length_b       14.382
_cell_length_c       8.6385
_cell_angle_alpha    90
_cell_angle_beta     95.156
_cell_angle_gamma    90

_symmetry_space_group_name_H-M    "P 1"
_symmetry_int_tables_number       1

loop_
  _symmetry_equiv_pos_as_xyz
  'x, y, z'

loop_
  _atom_site_label
  _atom_site_occupancy
  _atom_site_fract_x
  _atom_site_fract_y
  _atom_site_fract_z
  _atom_site_thermal_displace_type
  _atom_site_B_iso_or_equiv
  _atom_site_type_symbol
  Cu1      1.0000 0.68772  0.83509  0.07359  Biso   1.000  Cu
  Cu2      1.0000 0.31228  0.33509  0.92641  Biso   1.000  Cu
  Cu3      1.0000 0.02602  0.59675  0.11831  Biso   1.000  Cu
  Cu4      1.0000 0.97398  0.09675  0.88169  Biso   1.000  Cu
  S1       1.0000 0.93619  0.73817  0.93431  Biso   1.000  S
  S2       1.0000 0.06381  0.23817  0.06569  Biso   1.000  S
  S3       1.0000 0.73050  0.00074  0.01354  Biso   1.000  S
  S4       1.0000 0.26950  0.50074  0.98646  Biso   1.000  S
  C1       1.0000 0.98810  0.87610  0.35730  Biso   1.000  C
  C2       1.0000 0.01190  0.37610  0.64270  Biso   1.000  C
  C3       1.0000 0.14310  0.92540  0.27490  Biso   1.000  C
  C4       1.0000 0.85690  0.42540  0.72510  Biso   1.000  C
  H1       1.0000 0.12380  0.92980  0.16710  Biso   1.000  H
  H2       1.0000 0.87620  0.42980  0.83290  Biso   1.000  H
  C5       1.0000 0.32430  0.96710  0.35840  Biso   1.000  C
  C6       1.0000 0.67570  0.46710  0.64160  Biso   1.000  C
  H3       1.0000 0.43050  0.99960  0.30600  Biso   1.000  H
  H4       1.0000 0.56950  0.49960  0.69400  Biso   1.000  H
  C7       1.0000 0.35320  0.96180  0.52210  Biso   1.000  C
  C8       1.0000 0.64680  0.46180  0.47790  Biso   1.000  C
  H5       1.0000 0.47590  0.99220  0.57520  Biso   1.000  H
  H6       1.0000 0.52410  0.49220  0.42480  Biso   1.000  H
  C9       1.0000 0.20530  0.91310  0.60490  Biso   1.000  C
  C10      1.0000 0.79470  0.41310  0.39510  Biso   1.000  C
  H7       1.0000 0.22570  0.90860  0.71270  Biso   1.000  H
  H8       1.0000 0.77430  0.40860  0.28730  Biso   1.000  H
  C11      1.0000 0.02190  0.87060  0.51830  Biso   1.000  C
  C12      1.0000 0.97810  0.37060  0.48170  Biso   1.000  C
  C13      1.0000 0.71650  0.79020  0.43170  Biso   1.000  C
  C14      1.0000 0.28350  0.29020  0.56830  Biso   1.000  C
  C15      1.0000 0.51630  0.73000  0.44310  Biso   1.000  C
  C16      1.0000 0.48370  0.23000  0.55690  Biso   1.000  C
  C17      1.0000 0.39290  0.69590  0.30960  Biso   1.000  C
  C18      1.0000 0.60710  0.19590  0.69040  Biso   1.000  C
  H9       1.0000 0.44460  0.70950  0.21350  Biso   1.000  H
  H10      1.0000 0.55540  0.20950  0.78650  Biso   1.000  H
  C19      1.0000 0.13410  0.62330  0.45260  Biso   1.000  C
  C20      1.0000 0.86590  0.12330  0.54740  Biso   1.000  C
  H11      1.0000 0.00160  0.58860  0.45660  Biso   1.000  H
  H12      1.0000 0.99840  0.08860  0.54340  Biso   1.000  H
  C21      1.0000 0.25080  0.65060  0.58960  Biso   1.000  C
  C22      1.0000 0.74920  0.15060  0.41040  Biso   1.000  C
  H13      1.0000 0.20200  0.63180  0.68410  Biso   1.000  H
  H14      1.0000 0.79800  0.13180  0.31590  Biso   1.000  H
  C23      1.0000 0.44230  0.70660  0.58620  Biso   1.000  C
  C24      1.0000 0.55770  0.20660  0.41380  Biso   1.000  C
  H15      1.0000 0.51940  0.72800  0.67790  Biso   1.000  H
  H16      1.0000 0.48060  0.22800  0.32210  Biso   1.000  H
  C25      1.0000 0.20170  0.77780  0.95640  Biso   1.000  C
  C26      1.0000 0.79830  0.27780  0.04360  Biso   1.000  C
  C27      1.0000 0.46850  0.03150  0.95050  Biso   1.000  C
  C28      1.0000 0.53150  0.53150  0.04950  Biso   1.000  C
  N1       1.0000 0.79540  0.82510  0.30460  Biso   1.000  N
  N2       1.0000 0.20460  0.32510  0.69540  Biso   1.000  N
  N3       1.0000 0.84720  0.81740  0.56230  Biso   1.000  N
  N4       1.0000 0.15280  0.31740  0.43770  Biso   1.000  N
  H17      1.0000 0.82340  0.80350  0.65630  Biso   1.000  H
  H18      1.0000 0.17660  0.30350  0.34370  Biso   1.000  H
  N5       1.0000 0.20330  0.64460  0.31320  Biso   1.000  N
  N6       1.0000 0.79670  0.14460  0.68680  Biso   1.000  N
  N7       1.0000 0.38600  0.80330  0.97570  Biso   1.000  N
  N8       1.0000 0.61400  0.30330  0.02430  Biso   1.000  N
  N9       1.0000 0.28200  0.05350  0.90940  Biso   1.000  N
  N10      1.0000 0.71800  0.55350  0.09060  Biso   1.000  N
