data_image0
_cell_length_a       5.7243
_cell_length_b       17.842
_cell_length_c       9.1778
_cell_angle_alpha    90
_cell_angle_beta     99.999
_cell_angle_gamma    90

_symmetry_space_group_name_H-M    "P 1"
_symmetry_int_tables_number       1

loop_
  _symmetry_equiv_pos_as_xyz
  'x, y, z'

loop_
  _atom_site_label
  _atom_site_occupancy
  _atom_site_fract_x
  _atom_site_fract_y
  _atom_site_fract_z
  _atom_site_thermal_displace_type
  _atom_site_B_iso_or_equiv
  _atom_site_type_symbol
  Cu1      1.0000 0.15939  0.02795  0.85093  Biso   1.000  Cu
  Cu2      1.0000 0.84061  0.52795  0.64907  Biso   1.000  Cu
  Cu3      1.0000 0.84061  0.97205  0.14907  Biso   1.000  Cu
  Cu4      1.0000 0.15939  0.47205  0.35093  Biso   1.000  Cu
  S1       1.0000 0.84930  0.05353  0.64001  Biso   1.000  S
  S2       1.0000 0.15070  0.55353  0.85999  Biso   1.000  S
  S3       1.0000 0.15070  0.94647  0.35999  Biso   1.000  S
  S4       1.0000 0.84930  0.44647  0.14001  Biso   1.000  S
  N1       1.0000 0.07480  0.92174  0.90960  Biso   1.000  N
  N2       1.0000 0.92520  0.42174  0.59040  Biso   1.000  N
  N3       1.0000 0.92520  0.07826  0.09040  Biso   1.000  N
  N4       1.0000 0.07480  0.57826  0.40960  Biso   1.000  N
  N5       1.0000 0.91880  0.89784  0.99300  Biso   1.000  N
  N6       1.0000 0.08120  0.39784  0.50700  Biso   1.000  N
  N7       1.0000 0.08120  0.10216  0.00700  Biso   1.000  N
  N8       1.0000 0.91880  0.60216  0.49300  Biso   1.000  N
  N9       1.0000 0.04860  0.80104  0.88000  Biso   1.000  N
  N10      1.0000 0.95140  0.30104  0.62000  Biso   1.000  N
  N11      1.0000 0.95140  0.19896  0.12000  Biso   1.000  N
  N12      1.0000 0.04860  0.69896  0.38000  Biso   1.000  N
  N13      1.0000 0.14860  0.86400  0.84310  Biso   1.000  N
  N14      1.0000 0.85140  0.36400  0.65690  Biso   1.000  N
  N15      1.0000 0.85140  0.13600  0.15690  Biso   1.000  N
  N16      1.0000 0.14860  0.63600  0.34310  Biso   1.000  N
  H1       1.0000 0.24870  0.86630  0.78340  Biso   1.000  H
  H2       1.0000 0.75130  0.36630  0.71660  Biso   1.000  H
  H3       1.0000 0.75130  0.13370  0.21660  Biso   1.000  H
  H4       1.0000 0.24870  0.63370  0.28340  Biso   1.000  H
  N17      1.0000 0.48090  0.67190  0.16030  Biso   1.000  N
  N18      1.0000 0.51910  0.17190  0.33970  Biso   1.000  N
  N19      1.0000 0.51910  0.32810  0.83970  Biso   1.000  N
  N20      1.0000 0.48090  0.82810  0.66030  Biso   1.000  N
  N21      1.0000 0.45300  0.02690  0.77310  Biso   1.000  N
  N22      1.0000 0.54700  0.52690  0.72690  Biso   1.000  N
  N23      1.0000 0.54700  0.97310  0.22690  Biso   1.000  N
  N24      1.0000 0.45300  0.47310  0.27310  Biso   1.000  N
  C1       1.0000 0.90750  0.82330  0.97270  Biso   1.000  C
  C2       1.0000 0.09250  0.32330  0.52730  Biso   1.000  C
  C3       1.0000 0.09250  0.17670  0.02730  Biso   1.000  C
  C4       1.0000 0.90750  0.67670  0.47270  Biso   1.000  C
  C5       1.0000 0.75810  0.77140  0.03750  Biso   1.000  C
  C6       1.0000 0.24190  0.27140  0.46250  Biso   1.000  C
  C7       1.0000 0.24190  0.22860  0.96250  Biso   1.000  C
  C8       1.0000 0.75810  0.72860  0.53750  Biso   1.000  C
  C9       1.0000 0.78090  0.69480  0.01970  Biso   1.000  C
  C10      1.0000 0.21910  0.19480  0.48030  Biso   1.000  C
  C11      1.0000 0.21910  0.30520  0.98030  Biso   1.000  C
  C12      1.0000 0.78090  0.80520  0.51970  Biso   1.000  C
  H5       1.0000 0.89130  0.67640  0.96540  Biso   1.000  H
  H6       1.0000 0.10870  0.17640  0.53460  Biso   1.000  H
  H7       1.0000 0.10870  0.32360  0.03460  Biso   1.000  H
  H8       1.0000 0.89130  0.82360  0.46540  Biso   1.000  H
  C13      1.0000 0.64020  0.64580  0.08240  Biso   1.000  C
  C14      1.0000 0.35980  0.14580  0.41760  Biso   1.000  C
  C15      1.0000 0.35980  0.35420  0.91760  Biso   1.000  C
  C16      1.0000 0.64020  0.85420  0.58240  Biso   1.000  C
  H9       1.0000 0.65630  0.59440  0.07030  Biso   1.000  H
  H10      1.0000 0.34370  0.09440  0.42970  Biso   1.000  H
  H11      1.0000 0.34370  0.40560  0.92970  Biso   1.000  H
  H12      1.0000 0.65630  0.90560  0.57030  Biso   1.000  H
  C17      1.0000 0.45200  0.74530  0.17720  Biso   1.000  C
  C18      1.0000 0.54800  0.24530  0.32280  Biso   1.000  C
  C19      1.0000 0.54800  0.25470  0.82280  Biso   1.000  C
  C20      1.0000 0.45200  0.75470  0.67720  Biso   1.000  C
  H13      1.0000 0.33910  0.76200  0.23130  Biso   1.000  H
  H14      1.0000 0.66090  0.26200  0.26870  Biso   1.000  H
  H15      1.0000 0.66090  0.23800  0.76870  Biso   1.000  H
  H16      1.0000 0.33910  0.73800  0.73130  Biso   1.000  H
  C21      1.0000 0.58610  0.79680  0.11600  Biso   1.000  C
  C22      1.0000 0.41390  0.29680  0.38400  Biso   1.000  C
  C23      1.0000 0.41390  0.20320  0.88400  Biso   1.000  C
  C24      1.0000 0.58610  0.70320  0.61600  Biso   1.000  C
  H17      1.0000 0.56210  0.84790  0.12700  Biso   1.000  H
  H18      1.0000 0.43790  0.34790  0.37300  Biso   1.000  H
  H19      1.0000 0.43790  0.15210  0.87300  Biso   1.000  H
  H20      1.0000 0.56210  0.65210  0.62700  Biso   1.000  H
  C25      1.0000 0.61800  0.03850  0.71860  Biso   1.000  C
  C26      1.0000 0.38200  0.53850  0.78140  Biso   1.000  C
  C27      1.0000 0.38200  0.96150  0.28140  Biso   1.000  C
  C28      1.0000 0.61800  0.46150  0.21860  Biso   1.000  C
