data_image0
_cell_length_a       10.9975
_cell_length_b       16.951
_cell_length_c       8.7615
_cell_angle_alpha    90
_cell_angle_beta     90
_cell_angle_gamma    90

_symmetry_space_group_name_H-M    "P 1"
_symmetry_int_tables_number       1

loop_
  _symmetry_equiv_pos_as_xyz
  'x, y, z'

loop_
  _atom_site_label
  _atom_site_occupancy
  _atom_site_fract_x
  _atom_site_fract_y
  _atom_site_fract_z
  _atom_site_thermal_displace_type
  _atom_site_B_iso_or_equiv
  _atom_site_type_symbol
  Cu1      1.0000 0.00253  0.07723  0.16134  Biso   1.000  Cu
  Cu2      1.0000 0.49747  0.92277  0.66134  Biso   1.000  Cu
  Cu3      1.0000 0.50253  0.42277  0.83866  Biso   1.000  Cu
  Cu4      1.0000 0.99747  0.57723  0.33866  Biso   1.000  Cu
  O1       1.0000 0.44320  0.82900  0.08240  Biso   1.000  O
  O2       1.0000 0.05680  0.17100  0.58240  Biso   1.000  O
  O3       1.0000 0.94320  0.67100  0.91760  Biso   1.000  O
  O4       1.0000 0.55680  0.32900  0.41760  Biso   1.000  O
  O5       1.0000 0.63500  0.81790  0.12830  Biso   1.000  O
  O6       1.0000 0.86500  0.18210  0.62830  Biso   1.000  O
  O7       1.0000 0.13500  0.68210  0.87170  Biso   1.000  O
  O8       1.0000 0.36500  0.31790  0.37170  Biso   1.000  O
  O9       1.0000 0.50800  0.79410  0.30400  Biso   1.000  O
  O10      1.0000 0.99200  0.20590  0.80400  Biso   1.000  O
  O11      1.0000 0.00800  0.70590  0.69600  Biso   1.000  O
  O12      1.0000 0.49200  0.29410  0.19600  Biso   1.000  O
  O13      1.0000 0.28600  0.17500  0.51900  Biso   1.000  O
  O14      1.0000 0.21400  0.82500  0.01900  Biso   1.000  O
  O15      1.0000 0.78600  0.32500  0.48100  Biso   1.000  O
  O16      1.0000 0.71400  0.67500  0.98100  Biso   1.000  O
  N1       1.0000 0.52740  0.81360  0.17140  Biso   1.000  N
  N2       1.0000 0.97260  0.18640  0.67140  Biso   1.000  N
  N3       1.0000 0.02740  0.68640  0.82860  Biso   1.000  N
  N4       1.0000 0.47260  0.31360  0.32860  Biso   1.000  N
  N5       1.0000 0.12280  0.17190  0.11140  Biso   1.000  N
  N6       1.0000 0.37720  0.82810  0.61140  Biso   1.000  N
  N7       1.0000 0.62280  0.32810  0.88860  Biso   1.000  N
  N8       1.0000 0.87720  0.67190  0.38860  Biso   1.000  N
  N9       1.0000 0.41950  0.99610  0.82290  Biso   1.000  N
  N10      1.0000 0.08050  0.00390  0.32290  Biso   1.000  N
  N11      1.0000 0.91950  0.50390  0.17710  Biso   1.000  N
  N12      1.0000 0.58050  0.49610  0.67710  Biso   1.000  N
  N13      1.0000 0.88620  0.16560  0.25140  Biso   1.000  N
  N14      1.0000 0.61380  0.83440  0.75140  Biso   1.000  N
  N15      1.0000 0.38620  0.33440  0.74860  Biso   1.000  N
  N16      1.0000 0.11380  0.66560  0.24860  Biso   1.000  N
  N17      1.0000 0.56950  0.99480  0.50230  Biso   1.000  N
  N18      1.0000 0.93050  0.00520  0.00230  Biso   1.000  N
  N19      1.0000 0.06950  0.50520  0.49770  Biso   1.000  N
  N20      1.0000 0.43050  0.49480  0.99770  Biso   1.000  N
  C1       1.0000 0.07780  0.23720  0.20800  Biso   1.000  C
  C2       1.0000 0.42220  0.76280  0.70800  Biso   1.000  C
  C3       1.0000 0.57780  0.26280  0.79200  Biso   1.000  C
  C4       1.0000 0.92220  0.73720  0.29200  Biso   1.000  C
  C5       1.0000 0.94070  0.23900  0.19700  Biso   1.000  C
  C6       1.0000 0.55930  0.76100  0.69700  Biso   1.000  C
  C7       1.0000 0.44070  0.26100  0.80300  Biso   1.000  C
  C8       1.0000 0.05930  0.73900  0.30300  Biso   1.000  C
  C9       1.0000 0.25270  0.15950  0.13520  Biso   1.000  C
  C10      1.0000 0.24730  0.84050  0.63520  Biso   1.000  C
  C11      1.0000 0.75270  0.34050  0.86480  Biso   1.000  C
  C12      1.0000 0.74730  0.65950  0.36480  Biso   1.000  C
  C13      1.0000 0.30840  0.10210  0.02500  Biso   1.000  C
  C14      1.0000 0.19160  0.89790  0.52500  Biso   1.000  C
  C15      1.0000 0.80840  0.39790  0.97500  Biso   1.000  C
  C16      1.0000 0.69160  0.60210  0.47500  Biso   1.000  C
  C17      1.0000 0.25740  0.08430  0.88460  Biso   1.000  C
  C18      1.0000 0.24260  0.91570  0.38460  Biso   1.000  C
  C19      1.0000 0.75740  0.41570  0.11540  Biso   1.000  C
  C20      1.0000 0.74260  0.58430  0.61540  Biso   1.000  C
  C21      1.0000 0.31480  0.03160  0.78960  Biso   1.000  C
  C22      1.0000 0.18520  0.96840  0.28960  Biso   1.000  C
  C23      1.0000 0.81480  0.46840  0.21040  Biso   1.000  C
  C24      1.0000 0.68520  0.53160  0.71040  Biso   1.000  C
  C25      1.0000 0.47090  0.01190  0.95770  Biso   1.000  C
  C26      1.0000 0.02910  0.98810  0.45770  Biso   1.000  C
  C27      1.0000 0.97090  0.48810  0.04230  Biso   1.000  C
  C28      1.0000 0.52910  0.51190  0.54230  Biso   1.000  C
  C29      1.0000 0.41920  0.06440  0.05910  Biso   1.000  C
  C30      1.0000 0.08080  0.93560  0.55910  Biso   1.000  C
  C31      1.0000 0.91920  0.43560  0.94090  Biso   1.000  C
  C32      1.0000 0.58080  0.56440  0.44090  Biso   1.000  C
  C33      1.0000 0.75540  0.16290  0.21780  Biso   1.000  C
  C34      1.0000 0.74460  0.83710  0.71780  Biso   1.000  C
  C35      1.0000 0.25540  0.33710  0.78220  Biso   1.000  C
  C36      1.0000 0.24460  0.66290  0.28220  Biso   1.000  C
  C37      1.0000 0.69010  0.10300  0.31230  Biso   1.000  C
  C38      1.0000 0.80990  0.89700  0.81230  Biso   1.000  C
  C39      1.0000 0.19010  0.39700  0.68770  Biso   1.000  C
  C40      1.0000 0.30990  0.60300  0.18770  Biso   1.000  C
  C41      1.0000 0.61660  0.12800  0.42940  Biso   1.000  C
  C42      1.0000 0.88340  0.87200  0.92940  Biso   1.000  C
  C43      1.0000 0.11660  0.37200  0.57060  Biso   1.000  C
  C44      1.0000 0.38340  0.62800  0.07060  Biso   1.000  C
  C45      1.0000 0.55800  0.07430  0.51960  Biso   1.000  C
  C46      1.0000 0.94200  0.92570  0.01960  Biso   1.000  C
  C47      1.0000 0.05800  0.42570  0.48040  Biso   1.000  C
  C48      1.0000 0.44200  0.57430  0.98040  Biso   1.000  C
  C49      1.0000 0.64100  0.97090  0.38650  Biso   1.000  C
  C50      1.0000 0.85900  0.02910  0.88650  Biso   1.000  C
  C51      1.0000 0.14100  0.52910  0.61350  Biso   1.000  C
  C52      1.0000 0.35900  0.47090  0.11350  Biso   1.000  C
  C53      1.0000 0.70130  0.02310  0.29270  Biso   1.000  C
  C54      1.0000 0.79870  0.97690  0.79270  Biso   1.000  C
  C55      1.0000 0.20130  0.47690  0.70730  Biso   1.000  C
  C56      1.0000 0.29870  0.52310  0.20730  Biso   1.000  C
  H1       1.0000 0.11060  0.18710  0.00720  Biso   1.000  H
  H2       1.0000 0.38940  0.81290  0.50720  Biso   1.000  H
  H3       1.0000 0.61060  0.31290  0.99280  Biso   1.000  H
  H4       1.0000 0.88940  0.68710  0.49280  Biso   1.000  H
  H5       1.0000 0.89410  0.16450  0.36060  Biso   1.000  H
  H6       1.0000 0.60590  0.83550  0.86060  Biso   1.000  H
  H7       1.0000 0.39410  0.33550  0.63940  Biso   1.000  H
  H8       1.0000 0.10590  0.66450  0.13940  Biso   1.000  H
  H9       1.0000 0.10300  0.22930  0.31020  Biso   1.000  H
  H10      1.0000 0.39700  0.77070  0.81020  Biso   1.000  H
  H11      1.0000 0.60300  0.27070  0.68980  Biso   1.000  H
  H12      1.0000 0.89700  0.72930  0.18980  Biso   1.000  H
  H13      1.0000 0.11020  0.28630  0.17190  Biso   1.000  H
  H14      1.0000 0.38980  0.71370  0.67190  Biso   1.000  H
  H15      1.0000 0.61020  0.21370  0.82810  Biso   1.000  H
  H16      1.0000 0.88980  0.78630  0.32810  Biso   1.000  H
  H17      1.0000 0.91800  0.24650  0.09440  Biso   1.000  H
  H18      1.0000 0.58200  0.75350  0.59440  Biso   1.000  H
  H19      1.0000 0.41800  0.25350  0.90560  Biso   1.000  H
  H20      1.0000 0.08200  0.74650  0.40560  Biso   1.000  H
  H21      1.0000 0.91140  0.28130  0.25790  Biso   1.000  H
  H22      1.0000 0.58860  0.71870  0.75790  Biso   1.000  H
  H23      1.0000 0.41140  0.21870  0.74210  Biso   1.000  H
  H24      1.0000 0.08860  0.78130  0.24210  Biso   1.000  H
  H25      1.0000 0.29250  0.20980  0.12370  Biso   1.000  H
  H26      1.0000 0.20750  0.79020  0.62370  Biso   1.000  H
  H27      1.0000 0.79250  0.29020  0.87630  Biso   1.000  H
  H28      1.0000 0.70750  0.70980  0.37630  Biso   1.000  H
  H29      1.0000 0.26410  0.14170  0.23640  Biso   1.000  H
  H30      1.0000 0.23590  0.85830  0.73640  Biso   1.000  H
  H31      1.0000 0.76410  0.35830  0.76360  Biso   1.000  H
  H32      1.0000 0.73590  0.64170  0.26360  Biso   1.000  H
  H33      1.0000 0.72320  0.21500  0.23570  Biso   1.000  H
  H34      1.0000 0.77680  0.78500  0.73570  Biso   1.000  H
  H35      1.0000 0.22320  0.28500  0.76430  Biso   1.000  H
  H36      1.0000 0.27680  0.71500  0.26430  Biso   1.000  H
  H37      1.0000 0.74680  0.15170  0.11130  Biso   1.000  H
  H38      1.0000 0.75320  0.84830  0.61130  Biso   1.000  H
  H39      1.0000 0.24680  0.34830  0.88870  Biso   1.000  H
  H40      1.0000 0.25320  0.65170  0.38870  Biso   1.000  H
  H41      1.0000 0.18250  0.10740  0.85500  Biso   1.000  H
  H42      1.0000 0.31750  0.89260  0.35500  Biso   1.000  H
  H43      1.0000 0.68250  0.39260  0.14500  Biso   1.000  H
  H44      1.0000 0.81750  0.60740  0.64500  Biso   1.000  H
  H45      1.0000 0.27720  0.01970  0.69450  Biso   1.000  H
  H46      1.0000 0.22280  0.98030  0.19450  Biso   1.000  H
  H47      1.0000 0.77720  0.48030  0.30550  Biso   1.000  H
  H48      1.0000 0.72280  0.51970  0.80550  Biso   1.000  H
  H49      1.0000 0.54490  0.98590  0.98410  Biso   1.000  H
  H50      1.0000 0.95510  0.01410  0.48410  Biso   1.000  H
  H51      1.0000 0.04490  0.51410  0.01590  Biso   1.000  H
  H52      1.0000 0.45510  0.48590  0.51590  Biso   1.000  H
  H53      1.0000 0.45780  0.07450  0.15370  Biso   1.000  H
  H54      1.0000 0.04220  0.92550  0.65370  Biso   1.000  H
  H55      1.0000 0.95780  0.42550  0.84630  Biso   1.000  H
  H56      1.0000 0.54220  0.57450  0.34630  Biso   1.000  H
  H57      1.0000 0.60580  0.18310  0.44690  Biso   1.000  H
  H58      1.0000 0.89420  0.81690  0.94690  Biso   1.000  H
  H59      1.0000 0.10580  0.31690  0.55310  Biso   1.000  H
  H60      1.0000 0.39420  0.68310  0.05310  Biso   1.000  H
  H61      1.0000 0.50650  0.09330  0.59860  Biso   1.000  H
  H62      1.0000 0.99350  0.90670  0.09860  Biso   1.000  H
  H63      1.0000 0.00650  0.40670  0.40140  Biso   1.000  H
  H64      1.0000 0.49350  0.59330  0.90140  Biso   1.000  H
  H65      1.0000 0.65020  0.91620  0.36870  Biso   1.000  H
  H66      1.0000 0.84980  0.08380  0.86870  Biso   1.000  H
  H67      1.0000 0.15020  0.58380  0.63130  Biso   1.000  H
  H68      1.0000 0.34980  0.41620  0.13130  Biso   1.000  H
  H69      1.0000 0.75150  0.00330  0.21290  Biso   1.000  H
  H70      1.0000 0.74850  0.99670  0.71290  Biso   1.000  H
  H71      1.0000 0.25150  0.49670  0.78710  Biso   1.000  H
  H72      1.0000 0.24850  0.50330  0.28710  Biso   1.000  H
