data_image0
_cell_length_a       9.3258
_cell_length_b       20.632
_cell_length_c       9.953
_cell_angle_alpha    90
_cell_angle_beta     113.937
_cell_angle_gamma    90

_symmetry_space_group_name_H-M    "P 1"
_symmetry_int_tables_number       1

loop_
  _symmetry_equiv_pos_as_xyz
  'x, y, z'

loop_
  _atom_site_label
  _atom_site_occupancy
  _atom_site_fract_x
  _atom_site_fract_y
  _atom_site_fract_z
  _atom_site_thermal_displace_type
  _atom_site_B_iso_or_equiv
  _atom_site_type_symbol
  Cu1      1.0000 0.89334  0.10654  0.06776  Biso   1.000  Cu
  Cu2      1.0000 0.39334  0.39346  0.06776  Biso   1.000  Cu
  Cu3      1.0000 0.10666  0.89346  0.93224  Biso   1.000  Cu
  Cu4      1.0000 0.60666  0.60654  0.93224  Biso   1.000  Cu
  O1       1.0000 0.18980  0.13210  0.58970  Biso   1.000  O
  O2       1.0000 0.68980  0.36790  0.58970  Biso   1.000  O
  O3       1.0000 0.81020  0.86790  0.41030  Biso   1.000  O
  O4       1.0000 0.31020  0.63210  0.41030  Biso   1.000  O
  O5       1.0000 0.43150  0.16700  0.67520  Biso   1.000  O
  O6       1.0000 0.93150  0.33300  0.67520  Biso   1.000  O
  O7       1.0000 0.56850  0.83300  0.32480  Biso   1.000  O
  O8       1.0000 0.06850  0.66700  0.32480  Biso   1.000  O
  O9       1.0000 0.28370  0.18730  0.78870  Biso   1.000  O
  O10      1.0000 0.78370  0.31270  0.78870  Biso   1.000  O
  O11      1.0000 0.71630  0.81270  0.21130  Biso   1.000  O
  O12      1.0000 0.21630  0.68730  0.21130  Biso   1.000  O
  N1       1.0000 0.12200  0.09220  0.23000  Biso   1.000  N
  N2       1.0000 0.62200  0.40780  0.23000  Biso   1.000  N
  N3       1.0000 0.87800  0.90780  0.77000  Biso   1.000  N
  N4       1.0000 0.37800  0.59220  0.77000  Biso   1.000  N
  N5       1.0000 0.32810  0.31150  0.14520  Biso   1.000  N
  N6       1.0000 0.82810  0.18850  0.14520  Biso   1.000  N
  N7       1.0000 0.67190  0.68850  0.85480  Biso   1.000  N
  N8       1.0000 0.17190  0.81150  0.85480  Biso   1.000  N
  N9       1.0000 0.84250  0.02080  0.14160  Biso   1.000  N
  N10      1.0000 0.34250  0.47920  0.14160  Biso   1.000  N
  N11      1.0000 0.15750  0.97920  0.85840  Biso   1.000  N
  N12      1.0000 0.65750  0.52080  0.85840  Biso   1.000  N
  N13      1.0000 0.39030  0.94760  0.65890  Biso   1.000  N
  N14      1.0000 0.89030  0.55240  0.65890  Biso   1.000  N
  N15      1.0000 0.60970  0.05240  0.34110  Biso   1.000  N
  N16      1.0000 0.10970  0.44760  0.34110  Biso   1.000  N
  N17      1.0000 0.86420  0.12580  0.86800  Biso   1.000  N
  N18      1.0000 0.36420  0.37420  0.86800  Biso   1.000  N
  N19      1.0000 0.13580  0.87420  0.13200  Biso   1.000  N
  N20      1.0000 0.63580  0.62580  0.13200  Biso   1.000  N
  N21      1.0000 0.29700  0.16400  0.68430  Biso   1.000  N
  N22      1.0000 0.79700  0.33600  0.68430  Biso   1.000  N
  N23      1.0000 0.70300  0.83600  0.31570  Biso   1.000  N
  N24      1.0000 0.20300  0.66400  0.31570  Biso   1.000  N
  C1       1.0000 0.12180  0.02890  0.29800  Biso   1.000  C
  C2       1.0000 0.62180  0.47110  0.29800  Biso   1.000  C
  C3       1.0000 0.87820  0.97110  0.70200  Biso   1.000  C
  C4       1.0000 0.37820  0.52890  0.70200  Biso   1.000  C
  C5       1.0000 0.95980  0.01560  0.29300  Biso   1.000  C
  C6       1.0000 0.45980  0.48440  0.29300  Biso   1.000  C
  C7       1.0000 0.04020  0.98440  0.70700  Biso   1.000  C
  C8       1.0000 0.54020  0.51560  0.70700  Biso   1.000  C
  C9       1.0000 0.24030  0.12860  0.29610  Biso   1.000  C
  C10      1.0000 0.74030  0.37140  0.29610  Biso   1.000  C
  C11      1.0000 0.75970  0.87140  0.70390  Biso   1.000  C
  C12      1.0000 0.25970  0.62860  0.70390  Biso   1.000  C
  C13      1.0000 0.26280  0.19260  0.24110  Biso   1.000  C
  C14      1.0000 0.76280  0.30740  0.24110  Biso   1.000  C
  C15      1.0000 0.73720  0.80740  0.75890  Biso   1.000  C
  C16      1.0000 0.23720  0.69260  0.75890  Biso   1.000  C
  C17      1.0000 0.18280  0.21310  0.09590  Biso   1.000  C
  C18      1.0000 0.68280  0.28690  0.09590  Biso   1.000  C
  C19      1.0000 0.81720  0.78690  0.90410  Biso   1.000  C
  C20      1.0000 0.31720  0.71310  0.90410  Biso   1.000  C
  C21      1.0000 0.21800  0.27130  0.05300  Biso   1.000  C
  C22      1.0000 0.71800  0.22870  0.05300  Biso   1.000  C
  C23      1.0000 0.78200  0.72870  0.94700  Biso   1.000  C
  C24      1.0000 0.28200  0.77130  0.94700  Biso   1.000  C
  C25      1.0000 0.40280  0.29210  0.28380  Biso   1.000  C
  C26      1.0000 0.90280  0.20790  0.28380  Biso   1.000  C
  C27      1.0000 0.59720  0.70790  0.71620  Biso   1.000  C
  C28      1.0000 0.09720  0.79210  0.71620  Biso   1.000  C
  C29      1.0000 0.37470  0.23380  0.33580  Biso   1.000  C
  C30      1.0000 0.87470  0.26620  0.33580  Biso   1.000  C
  C31      1.0000 0.62530  0.76620  0.66420  Biso   1.000  C
  C32      1.0000 0.12530  0.73380  0.66420  Biso   1.000  C
  C33      1.0000 0.75160  0.97220  0.09180  Biso   1.000  C
  C34      1.0000 0.25160  0.52780  0.09180  Biso   1.000  C
  C35      1.0000 0.24840  0.02780  0.90820  Biso   1.000  C
  C36      1.0000 0.74840  0.47220  0.90820  Biso   1.000  C
  C37      1.0000 0.62700  0.96670  0.94300  Biso   1.000  C
  C38      1.0000 0.12700  0.53330  0.94300  Biso   1.000  C
  C39      1.0000 0.37300  0.03330  0.05700  Biso   1.000  C
  C40      1.0000 0.87300  0.46670  0.05700  Biso   1.000  C
  C41      1.0000 0.54730  0.90830  0.90160  Biso   1.000  C
  C42      1.0000 0.04730  0.59170  0.90160  Biso   1.000  C
  C43      1.0000 0.45270  0.09170  0.09840  Biso   1.000  C
  C44      1.0000 0.95270  0.40830  0.09840  Biso   1.000  C
  C45      1.0000 0.43190  0.90150  0.76010  Biso   1.000  C
  C46      1.0000 0.93190  0.59850  0.76010  Biso   1.000  C
  C47      1.0000 0.56810  0.09850  0.23990  Biso   1.000  C
  C48      1.0000 0.06810  0.40150  0.23990  Biso   1.000  C
  C49      1.0000 0.46540  0.00420  0.70070  Biso   1.000  C
  C50      1.0000 0.96540  0.49580  0.70070  Biso   1.000  C
  C51      1.0000 0.53460  0.99580  0.29930  Biso   1.000  C
  C52      1.0000 0.03460  0.50420  0.29930  Biso   1.000  C
  C53      1.0000 0.58150  0.01610  0.83880  Biso   1.000  C
  C54      1.0000 0.08150  0.48390  0.83880  Biso   1.000  C
  C55      1.0000 0.41850  0.98390  0.16120  Biso   1.000  C
  C56      1.0000 0.91850  0.51610  0.16120  Biso   1.000  C
  C57      1.0000 0.84730  0.14430  0.75560  Biso   1.000  C
  C58      1.0000 0.34730  0.35570  0.75560  Biso   1.000  C
  C59      1.0000 0.15270  0.85570  0.24440  Biso   1.000  C
  C60      1.0000 0.65270  0.64430  0.24440  Biso   1.000  C
  C61      1.0000 0.83150  0.16630  0.60930  Biso   1.000  C
  C62      1.0000 0.33150  0.33370  0.60930  Biso   1.000  C
  C63      1.0000 0.16850  0.83370  0.39070  Biso   1.000  C
  C64      1.0000 0.66850  0.66630  0.39070  Biso   1.000  C
  H1       1.0000 0.14830  0.99570  0.24490  Biso   1.000  H
  H2       1.0000 0.64830  0.50430  0.24490  Biso   1.000  H
  H3       1.0000 0.85170  0.00430  0.75510  Biso   1.000  H
  H4       1.0000 0.35170  0.49570  0.75510  Biso   1.000  H
  H5       1.0000 0.19700  0.02880  0.39700  Biso   1.000  H
  H6       1.0000 0.69700  0.47120  0.39700  Biso   1.000  H
  H7       1.0000 0.80300  0.97120  0.60300  Biso   1.000  H
  H8       1.0000 0.30300  0.52880  0.60300  Biso   1.000  H
  H9       1.0000 0.93710  0.04610  0.35350  Biso   1.000  H
  H10      1.0000 0.43710  0.45390  0.35350  Biso   1.000  H
  H11      1.0000 0.06290  0.95390  0.64650  Biso   1.000  H
  H12      1.0000 0.56290  0.54610  0.64650  Biso   1.000  H
  H13      1.0000 0.95660  0.97290  0.32910  Biso   1.000  H
  H14      1.0000 0.45660  0.52710  0.32910  Biso   1.000  H
  H15      1.0000 0.04340  0.02710  0.67090  Biso   1.000  H
  H16      1.0000 0.54340  0.47290  0.67090  Biso   1.000  H
  H17      1.0000 0.31940  0.11390  0.38650  Biso   1.000  H
  H18      1.0000 0.81940  0.38610  0.38650  Biso   1.000  H
  H19      1.0000 0.68060  0.88610  0.61350  Biso   1.000  H
  H20      1.0000 0.18060  0.61390  0.61350  Biso   1.000  H
  H21      1.0000 0.10350  0.18600  0.02640  Biso   1.000  H
  H22      1.0000 0.60350  0.31400  0.02640  Biso   1.000  H
  H23      1.0000 0.89650  0.81400  0.97360  Biso   1.000  H
  H24      1.0000 0.39650  0.68600  0.97360  Biso   1.000  H
  H25      1.0000 0.16160  0.28480  0.95260  Biso   1.000  H
  H26      1.0000 0.66160  0.21520  0.95260  Biso   1.000  H
  H27      1.0000 0.83840  0.71520  0.04740  Biso   1.000  H
  H28      1.0000 0.33840  0.78480  0.04740  Biso   1.000  H
  H29      1.0000 0.48050  0.32030  0.34990  Biso   1.000  H
  H30      1.0000 0.98050  0.17970  0.34990  Biso   1.000  H
  H31      1.0000 0.51950  0.67970  0.65010  Biso   1.000  H
  H32      1.0000 0.01950  0.82030  0.65010  Biso   1.000  H
  H33      1.0000 0.43280  0.22170  0.43660  Biso   1.000  H
  H34      1.0000 0.93280  0.27830  0.43660  Biso   1.000  H
  H35      1.0000 0.56720  0.77830  0.56340  Biso   1.000  H
  H36      1.0000 0.06720  0.72170  0.56340  Biso   1.000  H
  H37      1.0000 0.76620  0.93650  0.15700  Biso   1.000  H
  H38      1.0000 0.26620  0.56350  0.15700  Biso   1.000  H
  H39      1.0000 0.23380  0.06350  0.84300  Biso   1.000  H
  H40      1.0000 0.73380  0.43650  0.84300  Biso   1.000  H
  H41      1.0000 0.57260  0.87270  0.96920  Biso   1.000  H
  H42      1.0000 0.07260  0.62730  0.96920  Biso   1.000  H
  H43      1.0000 0.42740  0.12730  0.03080  Biso   1.000  H
  H44      1.0000 0.92740  0.37270  0.03080  Biso   1.000  H
  H45      1.0000 0.37680  0.86080  0.73490  Biso   1.000  H
  H46      1.0000 0.87680  0.63920  0.73490  Biso   1.000  H
  H47      1.0000 0.62320  0.13920  0.26510  Biso   1.000  H
  H48      1.0000 0.12320  0.36080  0.26510  Biso   1.000  H
  H49      1.0000 0.43630  0.03860  0.62890  Biso   1.000  H
  H50      1.0000 0.93630  0.46140  0.62890  Biso   1.000  H
  H51      1.0000 0.56370  0.96140  0.37110  Biso   1.000  H
  H52      1.0000 0.06370  0.53860  0.37110  Biso   1.000  H
  H53      1.0000 0.63110  0.05880  0.86330  Biso   1.000  H
  H54      1.0000 0.13110  0.44120  0.86330  Biso   1.000  H
  H55      1.0000 0.36890  0.94120  0.13670  Biso   1.000  H
  H56      1.0000 0.86890  0.55880  0.13670  Biso   1.000  H
  H57      1.0000 0.91450  0.19570  0.61920  Biso   1.000  H
  H58      1.0000 0.41450  0.30430  0.61920  Biso   1.000  H
  H59      1.0000 0.08550  0.80430  0.38080  Biso   1.000  H
  H60      1.0000 0.58550  0.69570  0.38080  Biso   1.000  H
  H61      1.0000 0.83770  0.13010  0.55130  Biso   1.000  H
  H62      1.0000 0.33770  0.36990  0.55130  Biso   1.000  H
  H63      1.0000 0.16230  0.86990  0.44870  Biso   1.000  H
  H64      1.0000 0.66230  0.63010  0.44870  Biso   1.000  H
  H65      1.0000 0.73380  0.18760  0.55830  Biso   1.000  H
  H66      1.0000 0.23380  0.31240  0.55830  Biso   1.000  H
  H67      1.0000 0.26620  0.81240  0.44170  Biso   1.000  H
  H68      1.0000 0.76620  0.68760  0.44170  Biso   1.000  H
