data_image0
_cell_length_a       11.09
_cell_length_b       21.27
_cell_length_c       12.78
_cell_angle_alpha    90
_cell_angle_beta     98.35
_cell_angle_gamma    90

_symmetry_space_group_name_H-M    "P 1"
_symmetry_int_tables_number       1

loop_
  _symmetry_equiv_pos_as_xyz
  'x, y, z'

loop_
  _atom_site_label
  _atom_site_occupancy
  _atom_site_fract_x
  _atom_site_fract_y
  _atom_site_fract_z
  _atom_site_thermal_displace_type
  _atom_site_B_iso_or_equiv
  _atom_site_type_symbol
  Cl1      1.0000 0.54380  0.17540  0.49170  Biso   1.000  Cl
  Cl2      1.0000 0.95620  0.67540  0.00830  Biso   1.000  Cl
  Cl3      1.0000 0.45620  0.82460  0.50830  Biso   1.000  Cl
  Cl4      1.0000 0.04380  0.32460  0.99170  Biso   1.000  Cl
  Cl5      1.0000 0.43990  0.06230  0.39280  Biso   1.000  Cl
  Cl6      1.0000 0.06010  0.56230  0.10720  Biso   1.000  Cl
  Cl7      1.0000 0.56010  0.93770  0.60720  Biso   1.000  Cl
  Cl8      1.0000 0.93990  0.43770  0.89280  Biso   1.000  Cl
  F1       1.0000 0.85370  0.07689  0.15520  Biso   1.000  F
  F2       1.0000 0.64630  0.57689  0.34480  Biso   1.000  F
  F3       1.0000 0.14630  0.92311  0.84480  Biso   1.000  F
  F4       1.0000 0.35370  0.42311  0.65520  Biso   1.000  F
  B1       1.0000 0.83560  0.11990  0.23310  Biso   1.000  B
  B2       1.0000 0.66440  0.61990  0.26690  Biso   1.000  B
  B3       1.0000 0.16440  0.88010  0.76690  Biso   1.000  B
  B4       1.0000 0.33560  0.38010  0.73310  Biso   1.000  B
  Cu1      1.0000 0.81361  0.99965  0.99559  Biso   1.000  Cu
  Cu2      1.0000 0.68639  0.49965  0.50441  Biso   1.000  Cu
  Cu3      1.0000 0.18639  0.00035  0.00441  Biso   1.000  Cu
  Cu4      1.0000 0.31361  0.50035  0.49559  Biso   1.000  Cu
  P1       1.0000 0.85134  0.08202  0.89824  Biso   1.000  P
  P2       1.0000 0.64866  0.58202  0.60176  Biso   1.000  P
  P3       1.0000 0.14866  0.91798  0.10176  Biso   1.000  P
  P4       1.0000 0.35134  0.41798  0.39824  Biso   1.000  P
  P5       1.0000 0.13030  0.09761  0.95494  Biso   1.000  P
  P6       1.0000 0.36970  0.59761  0.54506  Biso   1.000  P
  P7       1.0000 0.86970  0.90239  0.04506  Biso   1.000  P
  P8       1.0000 0.63030  0.40239  0.45494  Biso   1.000  P
  C1       1.0000 0.97850  0.13160  0.95460  Biso   1.000  C
  C2       1.0000 0.52150  0.63160  0.54540  Biso   1.000  C
  C3       1.0000 0.02150  0.86840  0.04540  Biso   1.000  C
  C4       1.0000 0.47850  0.36840  0.45460  Biso   1.000  C
  H1       1.0000 0.96860  0.14160  0.02690  Biso   1.000  H
  H2       1.0000 0.53140  0.64160  0.47310  Biso   1.000  H
  H3       1.0000 0.03140  0.85840  0.97310  Biso   1.000  H
  H4       1.0000 0.46860  0.35840  0.52690  Biso   1.000  H
  H5       1.0000 0.97430  0.17070  0.91530  Biso   1.000  H
  H6       1.0000 0.52570  0.67070  0.58470  Biso   1.000  H
  H7       1.0000 0.02570  0.82930  0.08470  Biso   1.000  H
  H8       1.0000 0.47430  0.32930  0.41530  Biso   1.000  H
  C5       1.0000 0.72370  0.13670  0.87990  Biso   1.000  C
  C6       1.0000 0.77630  0.63670  0.62010  Biso   1.000  C
  C7       1.0000 0.27630  0.86330  0.12010  Biso   1.000  C
  C8       1.0000 0.22370  0.36330  0.37990  Biso   1.000  C
  C9       1.0000 0.71700  0.18950  0.93990  Biso   1.000  C
  C10      1.0000 0.78300  0.68950  0.56010  Biso   1.000  C
  C11      1.0000 0.28300  0.81050  0.06010  Biso   1.000  C
  C12      1.0000 0.21700  0.31050  0.43990  Biso   1.000  C
  H9       1.0000 0.78000  0.19880  0.99400  Biso   1.000  H
  H10      1.0000 0.72000  0.69880  0.50600  Biso   1.000  H
  H11      1.0000 0.22000  0.80120  0.00600  Biso   1.000  H
  H12      1.0000 0.28000  0.30120  0.49400  Biso   1.000  H
  C13      1.0000 0.61760  0.22910  0.92080  Biso   1.000  C
  C14      1.0000 0.88240  0.72910  0.57920  Biso   1.000  C
  C15      1.0000 0.38240  0.77090  0.07920  Biso   1.000  C
  C16      1.0000 0.11760  0.27090  0.42080  Biso   1.000  C
  H13      1.0000 0.61460  0.26480  0.96230  Biso   1.000  H
  H14      1.0000 0.88540  0.76480  0.53770  Biso   1.000  H
  H15      1.0000 0.38540  0.73520  0.03770  Biso   1.000  H
  H16      1.0000 0.11460  0.23520  0.46230  Biso   1.000  H
  C17      1.0000 0.52390  0.21660  0.84230  Biso   1.000  C
  C18      1.0000 0.97610  0.71660  0.65770  Biso   1.000  C
  C19      1.0000 0.47610  0.78340  0.15770  Biso   1.000  C
  C20      1.0000 0.02390  0.28340  0.34230  Biso   1.000  C
  H17      1.0000 0.45880  0.24440  0.82830  Biso   1.000  H
  H18      1.0000 0.04120  0.74440  0.67170  Biso   1.000  H
  H19      1.0000 0.54120  0.75560  0.17170  Biso   1.000  H
  H20      1.0000 0.95880  0.25560  0.32830  Biso   1.000  H
  C21      1.0000 0.52690  0.16340  0.78520  Biso   1.000  C
  C22      1.0000 0.97310  0.66340  0.71480  Biso   1.000  C
  C23      1.0000 0.47310  0.83660  0.21480  Biso   1.000  C
  C24      1.0000 0.02690  0.33660  0.28520  Biso   1.000  C
  H21      1.0000 0.46200  0.15360  0.73320  Biso   1.000  H
  H22      1.0000 0.03800  0.65360  0.76680  Biso   1.000  H
  H23      1.0000 0.53800  0.84640  0.26680  Biso   1.000  H
  H24      1.0000 0.96200  0.34640  0.23320  Biso   1.000  H
  C25      1.0000 0.62580  0.12350  0.80350  Biso   1.000  C
  C26      1.0000 0.87420  0.62350  0.69650  Biso   1.000  C
  C27      1.0000 0.37420  0.87650  0.19650  Biso   1.000  C
  C28      1.0000 0.12580  0.37650  0.30350  Biso   1.000  C
  H25      1.0000 0.62650  0.08700  0.76350  Biso   1.000  H
  H26      1.0000 0.87350  0.58700  0.73650  Biso   1.000  H
  H27      1.0000 0.37350  0.91300  0.23650  Biso   1.000  H
  H28      1.0000 0.12650  0.41300  0.26350  Biso   1.000  H
  C29      1.0000 0.87220  0.06750  0.76310  Biso   1.000  C
  C30      1.0000 0.62780  0.56750  0.73690  Biso   1.000  C
  C31      1.0000 0.12780  0.93250  0.23690  Biso   1.000  C
  C32      1.0000 0.37220  0.43250  0.26310  Biso   1.000  C
  C33      1.0000 0.87560  0.11580  0.69220  Biso   1.000  C
  C34      1.0000 0.62440  0.61580  0.80780  Biso   1.000  C
  C35      1.0000 0.12440  0.88420  0.30780  Biso   1.000  C
  C36      1.0000 0.37560  0.38420  0.19220  Biso   1.000  C
  H29      1.0000 0.87200  0.15720  0.71530  Biso   1.000  H
  H30      1.0000 0.62800  0.65720  0.78470  Biso   1.000  H
  H31      1.0000 0.12800  0.84280  0.28470  Biso   1.000  H
  H32      1.0000 0.37200  0.34280  0.21530  Biso   1.000  H
  C37      1.0000 0.88400  0.10410  0.58880  Biso   1.000  C
  C38      1.0000 0.61600  0.60410  0.91120  Biso   1.000  C
  C39      1.0000 0.11600  0.89590  0.41120  Biso   1.000  C
  C40      1.0000 0.38400  0.39590  0.08880  Biso   1.000  C
  H33      1.0000 0.88560  0.13750  0.54190  Biso   1.000  H
  H34      1.0000 0.61440  0.63750  0.95810  Biso   1.000  H
  H35      1.0000 0.11440  0.86250  0.45810  Biso   1.000  H
  H36      1.0000 0.38560  0.36250  0.04190  Biso   1.000  H
  C41      1.0000 0.89000  0.04510  0.55430  Biso   1.000  C
  C42      1.0000 0.61000  0.54510  0.94570  Biso   1.000  C
  C43      1.0000 0.11000  0.95490  0.44570  Biso   1.000  C
  C44      1.0000 0.39000  0.45490  0.05430  Biso   1.000  C
  H37      1.0000 0.89580  0.03760  0.48350  Biso   1.000  H
  H38      1.0000 0.60420  0.53760  0.01650  Biso   1.000  H
  H39      1.0000 0.10420  0.96240  0.51650  Biso   1.000  H
  H40      1.0000 0.39580  0.46240  0.98350  Biso   1.000  H
  C45      1.0000 0.88780  0.99540  0.62260  Biso   1.000  C
  C46      1.0000 0.61220  0.49540  0.87740  Biso   1.000  C
  C47      1.0000 0.11220  0.00460  0.37740  Biso   1.000  C
  C48      1.0000 0.38780  0.50460  0.12260  Biso   1.000  C
  H41      1.0000 0.89190  0.95440  0.59820  Biso   1.000  H
  H42      1.0000 0.60810  0.45440  0.90180  Biso   1.000  H
  H43      1.0000 0.10810  0.04560  0.40180  Biso   1.000  H
  H44      1.0000 0.39190  0.54560  0.09820  Biso   1.000  H
  C49      1.0000 0.87920  0.00680  0.72880  Biso   1.000  C
  C50      1.0000 0.62080  0.50680  0.77120  Biso   1.000  C
  C51      1.0000 0.12080  0.99320  0.27120  Biso   1.000  C
  C52      1.0000 0.37920  0.49320  0.22880  Biso   1.000  C
  H45      1.0000 0.87830  0.97350  0.77580  Biso   1.000  H
  H46      1.0000 0.62170  0.47350  0.72420  Biso   1.000  H
  H47      1.0000 0.12170  0.02650  0.22420  Biso   1.000  H
  H48      1.0000 0.37830  0.52650  0.27580  Biso   1.000  H
  C53      1.0000 0.19220  0.15950  0.14740  Biso   1.000  C
  C54      1.0000 0.30780  0.65950  0.35260  Biso   1.000  C
  C55      1.0000 0.80780  0.84050  0.85260  Biso   1.000  C
  C56      1.0000 0.69220  0.34050  0.64740  Biso   1.000  C
  H49      1.0000 0.11530  0.14790  0.16140  Biso   1.000  H
  H50      1.0000 0.38470  0.64790  0.33860  Biso   1.000  H
  H51      1.0000 0.88470  0.85210  0.83860  Biso   1.000  H
  H52      1.0000 0.61530  0.35210  0.66140  Biso   1.000  H
  C57      1.0000 0.27030  0.18880  0.22350  Biso   1.000  C
  C58      1.0000 0.22970  0.68880  0.27650  Biso   1.000  C
  C59      1.0000 0.72970  0.81120  0.77650  Biso   1.000  C
  C60      1.0000 0.77030  0.31120  0.72350  Biso   1.000  C
  H53      1.0000 0.24610  0.19790  0.28860  Biso   1.000  H
  H54      1.0000 0.25390  0.69790  0.21140  Biso   1.000  H
  H55      1.0000 0.75390  0.80210  0.71140  Biso   1.000  H
  H56      1.0000 0.74610  0.30210  0.78860  Biso   1.000  H
  C61      1.0000 0.38430  0.20510  0.20490  Biso   1.000  C
  C62      1.0000 0.11570  0.70510  0.29510  Biso   1.000  C
  C63      1.0000 0.61570  0.79490  0.79510  Biso   1.000  C
  C64      1.0000 0.88430  0.29490  0.70490  Biso   1.000  C
  H57      1.0000 0.43780  0.22450  0.25780  Biso   1.000  H
  H58      1.0000 0.06220  0.72450  0.24220  Biso   1.000  H
  H59      1.0000 0.56220  0.77550  0.74220  Biso   1.000  H
  H60      1.0000 0.93780  0.27550  0.75780  Biso   1.000  H
  C65      1.0000 0.41940  0.19330  0.11170  Biso   1.000  C
  C66      1.0000 0.08060  0.69330  0.38830  Biso   1.000  C
  C67      1.0000 0.58060  0.80670  0.88830  Biso   1.000  C
  C68      1.0000 0.91940  0.30670  0.61170  Biso   1.000  C
  H61      1.0000 0.49700  0.20480  0.09930  Biso   1.000  H
  H62      1.0000 0.00300  0.70480  0.40070  Biso   1.000  H
  H63      1.0000 0.50300  0.79520  0.90070  Biso   1.000  H
  H64      1.0000 0.99700  0.29520  0.59930  Biso   1.000  H
  C69      1.0000 0.34030  0.16410  0.03350  Biso   1.000  C
  C70      1.0000 0.15970  0.66410  0.46650  Biso   1.000  C
  C71      1.0000 0.65970  0.83590  0.96650  Biso   1.000  C
  C72      1.0000 0.84030  0.33590  0.53350  Biso   1.000  C
  H65      1.0000 0.36560  0.15610  0.96850  Biso   1.000  H
  H66      1.0000 0.13440  0.65610  0.53150  Biso   1.000  H
  H67      1.0000 0.63440  0.84390  0.03150  Biso   1.000  H
  H68      1.0000 0.86560  0.34390  0.46850  Biso   1.000  H
  C73      1.0000 0.22510  0.14660  0.04930  Biso   1.000  C
  C74      1.0000 0.27490  0.64660  0.45070  Biso   1.000  C
  C75      1.0000 0.77490  0.85340  0.95070  Biso   1.000  C
  C76      1.0000 0.72510  0.35340  0.54930  Biso   1.000  C
  C77      1.0000 0.16960  0.11910  0.82730  Biso   1.000  C
  C78      1.0000 0.33040  0.61910  0.67270  Biso   1.000  C
  C79      1.0000 0.83040  0.88090  0.17270  Biso   1.000  C
  C80      1.0000 0.66960  0.38090  0.32730  Biso   1.000  C
  C81      1.0000 0.17660  0.18090  0.79480  Biso   1.000  C
  C82      1.0000 0.32340  0.68090  0.70520  Biso   1.000  C
  C83      1.0000 0.82340  0.81910  0.20520  Biso   1.000  C
  C84      1.0000 0.67660  0.31910  0.29480  Biso   1.000  C
  H69      1.0000 0.16180  0.21330  0.84020  Biso   1.000  H
  H70      1.0000 0.33820  0.71330  0.65980  Biso   1.000  H
  H71      1.0000 0.83820  0.78670  0.15980  Biso   1.000  H
  H72      1.0000 0.66180  0.28670  0.34020  Biso   1.000  H
  C85      1.0000 0.20500  0.19510  0.69750  Biso   1.000  C
  C86      1.0000 0.29500  0.69510  0.80250  Biso   1.000  C
  C87      1.0000 0.79500  0.80490  0.30250  Biso   1.000  C
  C88      1.0000 0.70500  0.30490  0.19750  Biso   1.000  C
  H73      1.0000 0.20970  0.23680  0.67670  Biso   1.000  H
  H74      1.0000 0.29030  0.73680  0.82330  Biso   1.000  H
  H75      1.0000 0.79030  0.76320  0.32330  Biso   1.000  H
  H76      1.0000 0.70970  0.26320  0.17670  Biso   1.000  H
  C89      1.0000 0.22640  0.14760  0.63070  Biso   1.000  C
  C90      1.0000 0.27360  0.64760  0.86930  Biso   1.000  C
  C91      1.0000 0.77360  0.85240  0.36930  Biso   1.000  C
  C92      1.0000 0.72640  0.35240  0.13070  Biso   1.000  C
  H77      1.0000 0.24520  0.15720  0.56390  Biso   1.000  H
  H78      1.0000 0.25480  0.65720  0.93610  Biso   1.000  H
  H79      1.0000 0.75480  0.84280  0.43610  Biso   1.000  H
  H80      1.0000 0.74520  0.34280  0.06390  Biso   1.000  H
  C93      1.0000 0.22060  0.08610  0.66100  Biso   1.000  C
  C94      1.0000 0.27940  0.58610  0.83900  Biso   1.000  C
  C95      1.0000 0.77940  0.91390  0.33900  Biso   1.000  C
  C96      1.0000 0.72060  0.41390  0.16100  Biso   1.000  C
  H81      1.0000 0.23610  0.05420  0.61510  Biso   1.000  H
  H82      1.0000 0.26390  0.55420  0.88490  Biso   1.000  H
  H83      1.0000 0.76390  0.94580  0.38490  Biso   1.000  H
  H84      1.0000 0.73610  0.44580  0.11510  Biso   1.000  H
  C97      1.0000 0.19180  0.07140  0.75920  Biso   1.000  C
  C98      1.0000 0.30820  0.57140  0.74080  Biso   1.000  C
  C99      1.0000 0.80820  0.92860  0.24080  Biso   1.000  C
  C100     1.0000 0.69180  0.42860  0.25920  Biso   1.000  C
  H85      1.0000 0.18730  0.02960  0.77970  Biso   1.000  H
  H86      1.0000 0.31270  0.52960  0.72030  Biso   1.000  H
  H87      1.0000 0.81270  0.97040  0.22030  Biso   1.000  H
  H88      1.0000 0.68730  0.47040  0.27970  Biso   1.000  H
  C101     1.0000 0.55020  0.97700  0.92280  Biso   1.000  C
  C102     1.0000 0.94980  0.47700  0.57720  Biso   1.000  C
  C103     1.0000 0.44980  0.02300  0.07720  Biso   1.000  C
  C104     1.0000 0.05020  0.52300  0.42280  Biso   1.000  C
  H89      1.0000 0.58240  0.95980  0.86590  Biso   1.000  H
  H90      1.0000 0.91760  0.45980  0.63410  Biso   1.000  H
  H91      1.0000 0.41760  0.04020  0.13410  Biso   1.000  H
  H92      1.0000 0.08240  0.54020  0.36590  Biso   1.000  H
  C105     1.0000 0.42490  0.97600  0.91990  Biso   1.000  C
  C106     1.0000 0.07510  0.47600  0.58010  Biso   1.000  C
  C107     1.0000 0.57510  0.02400  0.08010  Biso   1.000  C
  C108     1.0000 0.92490  0.52400  0.41990  Biso   1.000  C
  H93      1.0000 0.37600  0.95870  0.86160  Biso   1.000  H
  H94      1.0000 0.12400  0.45870  0.63840  Biso   1.000  H
  H95      1.0000 0.62400  0.04130  0.13840  Biso   1.000  H
  H96      1.0000 0.87600  0.54130  0.36160  Biso   1.000  H
  F5       1.0000 0.75800  0.16050  0.20800  Biso   1.000  F
  F6       1.0000 0.74200  0.66050  0.29200  Biso   1.000  F
  F7       1.0000 0.24200  0.83950  0.79200  Biso   1.000  F
  F8       1.0000 0.25800  0.33950  0.70800  Biso   1.000  F
  F9       1.0000 0.78060  0.07470  0.29920  Biso   1.000  F
  F10      1.0000 0.71940  0.57470  0.20080  Biso   1.000  F
  F11      1.0000 0.21940  0.92530  0.70080  Biso   1.000  F
  F12      1.0000 0.28060  0.42530  0.79920  Biso   1.000  F
  N1       1.0000 0.62620  0.00073  0.00140  Biso   1.000  N
  N2       1.0000 0.87380  0.50073  0.49860  Biso   1.000  N
  N3       1.0000 0.37380  0.99927  0.99860  Biso   1.000  N
  N4       1.0000 0.12620  0.49927  0.50140  Biso   1.000  N
  C109     1.0000 0.57050  0.10520  0.43050  Biso   1.000  C
  C110     1.0000 0.92950  0.60520  0.06950  Biso   1.000  C
  C111     1.0000 0.42950  0.89480  0.56950  Biso   1.000  C
  C112     1.0000 0.07050  0.39480  0.93050  Biso   1.000  C
  H97      1.0000 0.60880  0.11410  0.36850  Biso   1.000  H
  H98      1.0000 0.89120  0.61410  0.13150  Biso   1.000  H
  H99      1.0000 0.39120  0.88590  0.63150  Biso   1.000  H
  H100     1.0000 0.10880  0.38590  0.86850  Biso   1.000  H
  H101     1.0000 0.62690  0.08010  0.47850  Biso   1.000  H
  H102     1.0000 0.87310  0.58010  0.02150  Biso   1.000  H
  H103     1.0000 0.37310  0.91990  0.52150  Biso   1.000  H
  H104     1.0000 0.12690  0.41990  0.97850  Biso   1.000  H
  F13      1.0000 0.94360  0.13050  0.29400  Biso   1.000  F
  F14      1.0000 0.55640  0.63050  0.20600  Biso   1.000  F
  F15      1.0000 0.05640  0.86950  0.70600  Biso   1.000  F
  F16      1.0000 0.44360  0.36950  0.79400  Biso   1.000  F
  F17      1.0000 0.88900  0.11450  0.32340  Biso   1.000  F
  F18      1.0000 0.61100  0.61450  0.17660  Biso   1.000  F
  F19      1.0000 0.11100  0.88550  0.67660  Biso   1.000  F
  F20      1.0000 0.38900  0.38550  0.82340  Biso   1.000  F
  F21      1.0000 0.88720  0.17420  0.18550  Biso   1.000  F
  F22      1.0000 0.61280  0.67420  0.31450  Biso   1.000  F
  F23      1.0000 0.11280  0.82580  0.81450  Biso   1.000  F
  F24      1.0000 0.38720  0.32580  0.68550  Biso   1.000  F
  F25      1.0000 0.71730  0.13710  0.22130  Biso   1.000  F
  F26      1.0000 0.78270  0.63710  0.27870  Biso   1.000  F
  F27      1.0000 0.28270  0.86290  0.77870  Biso   1.000  F
  F28      1.0000 0.21730  0.36290  0.72130  Biso   1.000  F
