data_image0
_cell_length_a       13.1231
_cell_length_b       13.776
_cell_length_c       23.114
_cell_angle_alpha    99.3
_cell_angle_beta     99.74
_cell_angle_gamma    111.164

_symmetry_space_group_name_H-M    "P 1"
_symmetry_int_tables_number       1

loop_
  _symmetry_equiv_pos_as_xyz
  'x, y, z'

loop_
  _atom_site_label
  _atom_site_occupancy
  _atom_site_fract_x
  _atom_site_fract_y
  _atom_site_fract_z
  _atom_site_thermal_displace_type
  _atom_site_B_iso_or_equiv
  _atom_site_type_symbol
  Cu1      1.0000 0.19201  0.92803  0.23119  Biso   1.000  Cu
  Cu2      1.0000 0.80799  0.07197  0.76881  Biso   1.000  Cu
  Cu3      1.0000 0.10201  0.39975  0.25826  Biso   1.000  Cu
  Cu4      1.0000 0.89799  0.60025  0.74174  Biso   1.000  Cu
  Cl1      1.0000 0.00000  0.50000  0.00000  Biso   1.000  Cl
  Cl2      1.0000 0.50000  0.50000  0.00000  Biso   1.000  Cl
  Cl3      1.0000 0.78840  0.80190  0.51050  Biso   1.000  Cl
  Cl4      1.0000 0.21160  0.19810  0.48950  Biso   1.000  Cl
  Cl5      1.0000 0.26890  0.68860  0.45230  Biso   1.000  Cl
  Cl6      1.0000 0.73110  0.31140  0.54770  Biso   1.000  Cl
  Cl7      1.0000 0.20970  0.86710  0.47300  Biso   1.000  Cl
  Cl8      1.0000 0.79030  0.13290  0.52700  Biso   1.000  Cl
  N1       1.0000 0.07160  0.90710  0.28580  Biso   1.000  N
  N2       1.0000 0.92840  0.09290  0.71420  Biso   1.000  N
  N3       1.0000 0.04360  0.84730  0.16250  Biso   1.000  N
  N4       1.0000 0.95640  0.15270  0.83750  Biso   1.000  N
  N5       1.0000 0.22100  0.44110  0.20880  Biso   1.000  N
  N6       1.0000 0.77900  0.55890  0.79120  Biso   1.000  N
  N7       1.0000 0.24920  0.44200  0.32610  Biso   1.000  N
  N8       1.0000 0.75080  0.55800  0.67390  Biso   1.000  N
  O1       1.0000 0.01900  0.58300  0.05080  Biso   1.000  O
  O2       1.0000 0.98100  0.41700  0.94920  Biso   1.000  O
  O3       1.0000 0.10700  0.50000  0.99710  Biso   1.000  O
  O4       1.0000 0.89300  0.50000  0.00290  Biso   1.000  O
  O5       1.0000 0.93600  0.40200  0.01200  Biso   1.000  O
  O6       1.0000 0.06400  0.59800  0.98800  Biso   1.000  O
  O7       1.0000 0.94800  0.51700  0.94800  Biso   1.000  O
  O8       1.0000 0.05200  0.48300  0.05200  Biso   1.000  O
  O9       1.0000 0.50800  0.59700  0.03290  Biso   1.000  O
  O10      1.0000 0.49200  0.40300  0.96710  Biso   1.000  O
  O11      1.0000 0.43900  0.41500  0.02230  Biso   1.000  O
  O12      1.0000 0.56100  0.58500  0.97770  Biso   1.000  O
  O13      1.0000 0.60900  0.50200  0.00290  Biso   1.000  O
  O14      1.0000 0.39100  0.49800  0.99710  Biso   1.000  O
  O15      1.0000 0.44700  0.48300  0.93890  Biso   1.000  O
  O16      1.0000 0.55300  0.51700  0.06110  Biso   1.000  O
  O17      1.0000 0.71300  0.70500  0.47160  Biso   1.000  O
  O18      1.0000 0.28700  0.29500  0.52840  Biso   1.000  O
  O19      1.0000 0.73300  0.86800  0.52790  Biso   1.000  O
  O20      1.0000 0.26700  0.13200  0.47210  Biso   1.000  O
  O21      1.0000 0.87200  0.85500  0.48280  Biso   1.000  O
  O22      1.0000 0.12800  0.14500  0.51720  Biso   1.000  O
  O23      1.0000 0.83800  0.78200  0.56330  Biso   1.000  O
  O24      1.0000 0.16200  0.21800  0.43670  Biso   1.000  O
  P1       1.0000 0.27930  0.81370  0.24220  Biso   1.000  P
  P2       1.0000 0.72070  0.18630  0.75780  Biso   1.000  P
  P3       1.0000 0.01880  0.51590  0.27070  Biso   1.000  P
  P4       1.0000 0.98120  0.48410  0.72930  Biso   1.000  P
  P5       1.0000 0.27420  0.09510  0.22370  Biso   1.000  P
  P6       1.0000 0.72580  0.90490  0.77630  Biso   1.000  P
  P7       1.0000 0.00310  0.22440  0.23470  Biso   1.000  P
  P8       1.0000 0.99690  0.77560  0.76530  Biso   1.000  P
  C1       1.0000 0.18980  0.67400  0.23610  Biso   1.000  C
  C2       1.0000 0.81020  0.32600  0.76390  Biso   1.000  C
  H1       1.0000 0.15020  0.64040  0.19400  Biso   1.000  H
  H2       1.0000 0.84980  0.35960  0.80600  Biso   1.000  H
  H3       1.0000 0.23770  0.63740  0.24810  Biso   1.000  H
  H4       1.0000 0.76230  0.36260  0.75190  Biso   1.000  H
  C3       1.0000 0.10130  0.65710  0.27480  Biso   1.000  C
  C4       1.0000 0.89870  0.34290  0.72520  Biso   1.000  C
  H5       1.0000 0.05030  0.68980  0.26130  Biso   1.000  H
  H6       1.0000 0.94970  0.31020  0.73870  Biso   1.000  H
  H7       1.0000 0.14020  0.69380  0.31670  Biso   1.000  H
  H8       1.0000 0.85980  0.30620  0.68330  Biso   1.000  H
  C5       1.0000 0.35740  0.80040  0.18390  Biso   1.000  C
  C6       1.0000 0.64260  0.19960  0.81610  Biso   1.000  C
  C7       1.0000 0.30100  0.73870  0.12520  Biso   1.000  C
  C8       1.0000 0.69900  0.26130  0.87480  Biso   1.000  C
  H9       1.0000 0.22310  0.69960  0.11520  Biso   1.000  H
  H10      1.0000 0.77690  0.30040  0.88480  Biso   1.000  H
  C9       1.0000 0.36100  0.73660  0.08200  Biso   1.000  C
  C10      1.0000 0.63900  0.26340  0.91800  Biso   1.000  C
  H11      1.0000 0.32260  0.69980  0.04230  Biso   1.000  H
  H12      1.0000 0.67740  0.30020  0.95770  Biso   1.000  H
  C11      1.0000 0.47000  0.78350  0.09460  Biso   1.000  C
  C12      1.0000 0.53000  0.21650  0.90540  Biso   1.000  C
  H13      1.0000 0.50760  0.77620  0.06460  Biso   1.000  H
  H14      1.0000 0.49240  0.22380  0.93540  Biso   1.000  H
  C13      1.0000 0.53200  0.84620  0.15380  Biso   1.000  C
  C14      1.0000 0.46800  0.15380  0.84620  Biso   1.000  C
  H15      1.0000 0.60970  0.88350  0.16200  Biso   1.000  H
  H16      1.0000 0.39030  0.11650  0.83800  Biso   1.000  H
  C15      1.0000 0.47510  0.85160  0.19990  Biso   1.000  C
  C16      1.0000 0.52490  0.14840  0.80010  Biso   1.000  C
  H17      1.0000 0.51450  0.88800  0.23960  Biso   1.000  H
  H18      1.0000 0.48550  0.11200  0.76040  Biso   1.000  H
  C17      1.0000 0.38130  0.84640  0.31510  Biso   1.000  C
  C18      1.0000 0.61870  0.15360  0.68490  Biso   1.000  C
  C19      1.0000 0.40110  0.94070  0.35610  Biso   1.000  C
  C20      1.0000 0.59890  0.05930  0.64390  Biso   1.000  C
  H19      1.0000 0.36310  0.98400  0.34720  Biso   1.000  H
  H20      1.0000 0.63690  0.01600  0.65280  Biso   1.000  H
  C21      1.0000 0.48000  0.96800  0.41120  Biso   1.000  C
  C22      1.0000 0.52000  0.03200  0.58880  Biso   1.000  C
  H21      1.0000 0.49240  0.03090  0.43890  Biso   1.000  H
  H22      1.0000 0.50760  0.96910  0.56110  Biso   1.000  H
  C23      1.0000 0.54200  0.91000  0.42780  Biso   1.000  C
  C24      1.0000 0.45800  0.09000  0.57220  Biso   1.000  C
  H23      1.0000 0.59650  0.93260  0.46390  Biso   1.000  H
  H24      1.0000 0.40350  0.06740  0.53610  Biso   1.000  H
  C25      1.0000 0.51300  0.81000  0.38360  Biso   1.000  C
  C26      1.0000 0.48700  0.19000  0.61640  Biso   1.000  C
  H25      1.0000 0.54560  0.76260  0.39280  Biso   1.000  H
  H26      1.0000 0.45440  0.23740  0.60720  Biso   1.000  H
  C27      1.0000 0.43810  0.78400  0.32860  Biso   1.000  C
  C28      1.0000 0.56190  0.21600  0.67140  Biso   1.000  C
  H27      1.0000 0.42580  0.72270  0.29990  Biso   1.000  H
  H28      1.0000 0.57420  0.27730  0.70010  Biso   1.000  H
  C29      1.0000 0.88830  0.48380  0.21350  Biso   1.000  C
  C30      1.0000 0.11170  0.51620  0.78650  Biso   1.000  C
  C31      1.0000 0.79000  0.41080  0.22060  Biso   1.000  C
  C32      1.0000 0.21000  0.58920  0.77940  Biso   1.000  C
  H29      1.0000 0.78790  0.38230  0.25440  Biso   1.000  H
  H30      1.0000 0.21210  0.61770  0.74560  Biso   1.000  H
  C33      1.0000 0.68700  0.38000  0.17060  Biso   1.000  C
  C34      1.0000 0.31300  0.62000  0.82940  Biso   1.000  C
  H31      1.0000 0.61730  0.33490  0.17460  Biso   1.000  H
  H32      1.0000 0.38270  0.66510  0.82540  Biso   1.000  H
  C35      1.0000 0.69300  0.41400  0.12230  Biso   1.000  C
  C36      1.0000 0.30700  0.58600  0.87770  Biso   1.000  C
  H33      1.0000 0.62690  0.39390  0.09250  Biso   1.000  H
  H34      1.0000 0.37310  0.60610  0.90750  Biso   1.000  H
  C37      1.0000 0.78300  0.47300  0.11350  Biso   1.000  C
  C38      1.0000 0.21700  0.52700  0.88650  Biso   1.000  C
  H35      1.0000 0.78490  0.49290  0.07690  Biso   1.000  H
  H36      1.0000 0.21510  0.50710  0.92310  Biso   1.000  H
  C39      1.0000 0.88500  0.51150  0.16110  Biso   1.000  C
  C40      1.0000 0.11500  0.48850  0.83890  Biso   1.000  C
  H37      1.0000 0.95190  0.55770  0.15470  Biso   1.000  H
  H38      1.0000 0.04810  0.44230  0.84530  Biso   1.000  H
  C41      1.0000 0.96530  0.52560  0.33840  Biso   1.000  C
  C42      1.0000 0.03470  0.47440  0.66160  Biso   1.000  C
  C43      1.0000 0.93300  0.61000  0.36090  Biso   1.000  C
  C44      1.0000 0.06700  0.39000  0.63910  Biso   1.000  C
  H39      1.0000 0.94440  0.66700  0.34250  Biso   1.000  H
  H40      1.0000 0.05560  0.33300  0.65750  Biso   1.000  H
  C45      1.0000 0.88700  0.60800  0.40790  Biso   1.000  C
  C46      1.0000 0.11300  0.39200  0.59210  Biso   1.000  C
  H41      1.0000 0.85940  0.66030  0.41800  Biso   1.000  H
  H42      1.0000 0.14060  0.33970  0.58200  Biso   1.000  H
  C47      1.0000 0.87700  0.53600  0.44170  Biso   1.000  C
  C48      1.0000 0.12300  0.46400  0.55830  Biso   1.000  C
  H43      1.0000 0.84690  0.54060  0.47520  Biso   1.000  H
  H44      1.0000 0.15310  0.45940  0.52480  Biso   1.000  H
  C49      1.0000 0.91600  0.45200  0.42380  Biso   1.000  C
  C50      1.0000 0.08400  0.54800  0.57620  Biso   1.000  C
  H45      1.0000 0.91140  0.40000  0.44570  Biso   1.000  H
  H46      1.0000 0.08860  0.60000  0.55430  Biso   1.000  H
  C51      1.0000 0.96010  0.45100  0.37120  Biso   1.000  C
  C52      1.0000 0.03990  0.54900  0.62880  Biso   1.000  C
  H47      1.0000 0.98610  0.39810  0.35920  Biso   1.000  H
  H48      1.0000 0.01390  0.60190  0.64080  Biso   1.000  H
  C53      1.0000 0.18090  0.16780  0.21060  Biso   1.000  C
  C54      1.0000 0.81910  0.83220  0.78940  Biso   1.000  C
  H49      1.0000 0.22700  0.24420  0.22120  Biso   1.000  H
  H50      1.0000 0.77300  0.75580  0.77880  Biso   1.000  H
  H51      1.0000 0.14400  0.14750  0.16780  Biso   1.000  H
  H52      1.0000 0.85600  0.85250  0.83220  Biso   1.000  H
  C55      1.0000 0.09190  0.14650  0.24590  Biso   1.000  C
  C56      1.0000 0.90810  0.85350  0.75410  Biso   1.000  C
  H53      1.0000 0.12830  0.16400  0.28860  Biso   1.000  H
  H54      1.0000 0.87170  0.83600  0.71140  Biso   1.000  H
  H55      1.0000 0.04350  0.07060  0.23400  Biso   1.000  H
  H56      1.0000 0.95650  0.92940  0.76600  Biso   1.000  H
  C57      1.0000 0.33730  0.11170  0.15950  Biso   1.000  C
  C58      1.0000 0.66270  0.88830  0.84050  Biso   1.000  C
  C59      1.0000 0.33910  0.19360  0.12890  Biso   1.000  C
  C60      1.0000 0.66090  0.80640  0.87110  Biso   1.000  C
  H57      1.0000 0.30660  0.24070  0.14120  Biso   1.000  H
  H58      1.0000 0.69340  0.75930  0.85880  Biso   1.000  H
  C61      1.0000 0.39100  0.20400  0.07940  Biso   1.000  C
  C62      1.0000 0.60900  0.79600  0.92060  Biso   1.000  C
  H59      1.0000 0.38370  0.25020  0.05530  Biso   1.000  H
  H60      1.0000 0.61630  0.74980  0.94470  Biso   1.000  H
  C63      1.0000 0.44800  0.14600  0.06920  Biso   1.000  C
  C64      1.0000 0.55200  0.85400  0.93080  Biso   1.000  C
  H61      1.0000 0.48800  0.15630  0.03940  Biso   1.000  H
  H62      1.0000 0.51200  0.84370  0.96060  Biso   1.000  H
  C65      1.0000 0.45400  0.07000  0.09970  Biso   1.000  C
  C66      1.0000 0.54600  0.93000  0.90030  Biso   1.000  C
  H63      1.0000 0.49810  0.03230  0.09160  Biso   1.000  H
  H64      1.0000 0.50190  0.96770  0.90840  Biso   1.000  H
  C67      1.0000 0.39280  0.05080  0.14280  Biso   1.000  C
  C68      1.0000 0.60720  0.94920  0.85720  Biso   1.000  C
  H65      1.0000 0.38990  0.99440  0.16070  Biso   1.000  H
  H66      1.0000 0.61010  0.00560  0.83930  Biso   1.000  H
  C69      1.0000 0.39010  0.18410  0.28750  Biso   1.000  C
  C70      1.0000 0.60990  0.81590  0.71250  Biso   1.000  C
  C71      1.0000 0.49260  0.25440  0.28220  Biso   1.000  C
  C72      1.0000 0.50740  0.74560  0.71780  Biso   1.000  C
  H67      1.0000 0.50180  0.26480  0.24430  Biso   1.000  H
  H68      1.0000 0.49820  0.73520  0.75570  Biso   1.000  H
  C73      1.0000 0.58200  0.30960  0.33330  Biso   1.000  C
  C74      1.0000 0.41800  0.69040  0.66670  Biso   1.000  C
  H69      1.0000 0.65420  0.34370  0.32810  Biso   1.000  H
  H70      1.0000 0.34580  0.65630  0.67190  Biso   1.000  H
  C75      1.0000 0.56700  0.31520  0.39140  Biso   1.000  C
  C76      1.0000 0.43300  0.68480  0.60860  Biso   1.000  C
  H71      1.0000 0.62610  0.35680  0.42500  Biso   1.000  H
  H72      1.0000 0.37390  0.64320  0.57500  Biso   1.000  H
  C77      1.0000 0.46000  0.25680  0.39800  Biso   1.000  C
  C78      1.0000 0.54000  0.74320  0.60200  Biso   1.000  C
  H73      1.0000 0.44530  0.25990  0.43610  Biso   1.000  H
  H74      1.0000 0.55470  0.74010  0.56390  Biso   1.000  H
  C79      1.0000 0.37600  0.19350  0.34620  Biso   1.000  C
  C80      1.0000 0.62400  0.80650  0.65380  Biso   1.000  C
  H75      1.0000 0.30500  0.15450  0.35110  Biso   1.000  H
  H76      1.0000 0.69500  0.84550  0.64890  Biso   1.000  H
  C81      1.0000 0.89900  0.16990  0.27690  Biso   1.000  C
  C82      1.0000 0.10100  0.83010  0.72310  Biso   1.000  C
  C83      1.0000 0.93300  0.15480  0.33330  Biso   1.000  C
  C84      1.0000 0.06700  0.84520  0.66670  Biso   1.000  C
  H77      1.0000 0.00910  0.16980  0.34860  Biso   1.000  H
  H78      1.0000 0.99090  0.83020  0.65140  Biso   1.000  H
  C85      1.0000 0.85700  0.11800  0.36770  Biso   1.000  C
  C86      1.0000 0.14300  0.88200  0.63230  Biso   1.000  C
  H79      1.0000 0.87950  0.10490  0.40500  Biso   1.000  H
  H80      1.0000 0.12050  0.89510  0.59500  Biso   1.000  H
  C87      1.0000 0.74600  0.10000  0.34470  Biso   1.000  C
  C88      1.0000 0.25400  0.90000  0.65530  Biso   1.000  C
  H81      1.0000 0.69400  0.07610  0.36760  Biso   1.000  H
  H82      1.0000 0.30600  0.92390  0.63240  Biso   1.000  H
  C89      1.0000 0.70800  0.11600  0.28860  Biso   1.000  C
  C90      1.0000 0.29200  0.88400  0.71140  Biso   1.000  C
  H83      1.0000 0.63430  0.10880  0.27510  Biso   1.000  H
  H84      1.0000 0.36570  0.89120  0.72490  Biso   1.000  H
  C91      1.0000 0.78600  0.14400  0.25330  Biso   1.000  C
  C92      1.0000 0.21400  0.85600  0.74670  Biso   1.000  C
  H85      1.0000 0.76080  0.14500  0.21340  Biso   1.000  H
  H86      1.0000 0.23920  0.85500  0.78660  Biso   1.000  H
  C93      1.0000 0.92500  0.16000  0.15270  Biso   1.000  C
  C94      1.0000 0.07500  0.84000  0.84730  Biso   1.000  C
  C95      1.0000 0.87600  0.05000  0.13030  Biso   1.000  C
  C96      1.0000 0.12400  0.95000  0.86970  Biso   1.000  C
  H87      1.0000 0.88420  0.00280  0.15350  Biso   1.000  H
  H88      1.0000 0.11580  0.99720  0.84650  Biso   1.000  H
  C97      1.0000 0.81400  0.01500  0.07030  Biso   1.000  C
  C98      1.0000 0.18600  0.98500  0.92970  Biso   1.000  C
  H89      1.0000 0.78060  0.94200  0.05300  Biso   1.000  H
  H90      1.0000 0.21940  0.05800  0.94700  Biso   1.000  H
  C99      1.0000 0.79900  0.08400  0.03470  Biso   1.000  C
  C100     1.0000 0.20100  0.91600  0.96530  Biso   1.000  C
  H91      1.0000 0.75770  0.05600  0.99460  Biso   1.000  H
  H92      1.0000 0.24230  0.94400  0.00540  Biso   1.000  H
  C101     1.0000 0.84600  0.19400  0.05920  Biso   1.000  C
  C102     1.0000 0.15400  0.80600  0.94080  Biso   1.000  C
  H93      1.0000 0.83890  0.24160  0.03600  Biso   1.000  H
  H94      1.0000 0.16110  0.75840  0.96400  Biso   1.000  H
  C103     1.0000 0.90500  0.23000  0.11960  Biso   1.000  C
  C104     1.0000 0.09500  0.77000  0.88040  Biso   1.000  C
  H95      1.0000 0.93120  0.30290  0.13840  Biso   1.000  H
  H96      1.0000 0.06880  0.69710  0.86160  Biso   1.000  H
  C105     1.0000 0.08400  0.93720  0.34250  Biso   1.000  C
  C106     1.0000 0.91600  0.06280  0.65750  Biso   1.000  C
  H97      1.0000 0.15710  0.97490  0.36600  Biso   1.000  H
  H98      1.0000 0.84290  0.02510  0.63400  Biso   1.000  H
  C107     1.0000 0.99500  0.91910  0.37400  Biso   1.000  C
  C108     1.0000 0.00500  0.08090  0.62600  Biso   1.000  C
  H99      1.0000 0.00770  0.94120  0.41570  Biso   1.000  H
  H100     1.0000 0.99230  0.05880  0.58430  Biso   1.000  H
  C109     1.0000 0.89900  0.87040  0.33870  Biso   1.000  C
  C110     1.0000 0.10100  0.12960  0.66130  Biso   1.000  C
  H101     1.0000 0.83990  0.85780  0.35730  Biso   1.000  H
  H102     1.0000 0.16010  0.14220  0.64270  Biso   1.000  H
  C111     1.0000 0.86700  0.83050  0.27430  Biso   1.000  C
  C112     1.0000 0.13300  0.16950  0.72570  Biso   1.000  C
  C113     1.0000 0.96600  0.85030  0.24470  Biso   1.000  C
  C114     1.0000 0.03400  0.14970  0.75530  Biso   1.000  C
  C115     1.0000 0.94700  0.82570  0.18200  Biso   1.000  C
  C116     1.0000 0.05300  0.17430  0.81800  Biso   1.000  C
  C117     1.0000 0.84000  0.76620  0.14500  Biso   1.000  C
  C118     1.0000 0.16000  0.23380  0.85500  Biso   1.000  C
  C119     1.0000 0.83300  0.74600  0.08910  Biso   1.000  C
  C120     1.0000 0.16700  0.25400  0.91090  Biso   1.000  C
  H103     1.0000 0.76160  0.71740  0.06340  Biso   1.000  H
  H104     1.0000 0.23840  0.28260  0.93660  Biso   1.000  H
  C121     1.0000 0.92300  0.76080  0.06250  Biso   1.000  C
  C122     1.0000 0.07700  0.23920  0.93750  Biso   1.000  C
  H105     1.0000 0.91120  0.73730  0.02100  Biso   1.000  H
  H106     1.0000 0.08880  0.26270  0.97900  Biso   1.000  H
  C123     1.0000 0.03100  0.81290  0.10060  Biso   1.000  C
  C124     1.0000 0.96900  0.18710  0.89940  Biso   1.000  C
  H107     1.0000 0.09370  0.82480  0.08480  Biso   1.000  H
  H108     1.0000 0.90630  0.17520  0.91520  Biso   1.000  H
  C125     1.0000 0.76200  0.78200  0.23820  Biso   1.000  C
  C126     1.0000 0.23800  0.21800  0.76180  Biso   1.000  C
  H109     1.0000 0.70120  0.77240  0.25520  Biso   1.000  H
  H110     1.0000 0.29880  0.22760  0.74480  Biso   1.000  H
  C127     1.0000 0.74200  0.74440  0.17450  Biso   1.000  C
  C128     1.0000 0.25800  0.25560  0.82550  Biso   1.000  C
  H111     1.0000 0.66850  0.70650  0.15100  Biso   1.000  H
  H112     1.0000 0.33150  0.29350  0.84900  Biso   1.000  H
  C129     1.0000 0.21000  0.43830  0.14830  Biso   1.000  C
  C130     1.0000 0.79000  0.56170  0.85170  Biso   1.000  C
  H113     1.0000 0.13890  0.41290  0.12210  Biso   1.000  H
  H114     1.0000 0.86110  0.58710  0.87790  Biso   1.000  H
  C131     1.0000 0.30800  0.47450  0.12630  Biso   1.000  C
  C132     1.0000 0.69200  0.52550  0.87370  Biso   1.000  C
  H115     1.0000 0.30080  0.47640  0.08580  Biso   1.000  H
  H116     1.0000 0.69920  0.52360  0.91420  Biso   1.000  H
  C133     1.0000 0.40600  0.50500  0.16190  Biso   1.000  C
  C134     1.0000 0.59400  0.49500  0.83810  Biso   1.000  C
  H117     1.0000 0.46730  0.52160  0.14420  Biso   1.000  H
  H118     1.0000 0.53270  0.47840  0.85580  Biso   1.000  H
  C135     1.0000 0.43200  0.51600  0.22740  Biso   1.000  C
  C136     1.0000 0.56800  0.48400  0.77260  Biso   1.000  C
  C137     1.0000 0.32500  0.47010  0.24300  Biso   1.000  C
  C138     1.0000 0.67500  0.52990  0.75700  Biso   1.000  C
  C139     1.0000 0.34400  0.47700  0.30450  Biso   1.000  C
  C140     1.0000 0.65600  0.52300  0.69550  Biso   1.000  C
  C141     1.0000 0.45100  0.51810  0.34290  Biso   1.000  C
  C142     1.0000 0.54900  0.48190  0.65710  Biso   1.000  C
  C143     1.0000 0.46300  0.52100  0.40370  Biso   1.000  C
  C144     1.0000 0.53700  0.47900  0.59630  Biso   1.000  C
  H119     1.0000 0.53380  0.54990  0.43020  Biso   1.000  H
  H120     1.0000 0.46620  0.45010  0.56980  Biso   1.000  H
  C145     1.0000 0.36800  0.47900  0.42480  Biso   1.000  C
  C146     1.0000 0.63200  0.52100  0.57520  Biso   1.000  C
  H121     1.0000 0.37510  0.47190  0.46440  Biso   1.000  H
  H122     1.0000 0.62490  0.52810  0.53560  Biso   1.000  H
  C147     1.0000 0.26100  0.44750  0.38740  Biso   1.000  C
  C148     1.0000 0.73900  0.55250  0.61260  Biso   1.000  C
  H123     1.0000 0.19790  0.43020  0.40330  Biso   1.000  H
  H124     1.0000 0.80210  0.56980  0.59670  Biso   1.000  H
  C149     1.0000 0.53300  0.55000  0.26060  Biso   1.000  C
  C150     1.0000 0.46700  0.45000  0.73940  Biso   1.000  C
  H125     1.0000 0.59400  0.57290  0.24340  Biso   1.000  H
  H126     1.0000 0.40600  0.42710  0.75660  Biso   1.000  H
  C151     1.0000 0.55100  0.55100  0.31890  Biso   1.000  C
  C152     1.0000 0.44900  0.44900  0.68110  Biso   1.000  C
  H127     1.0000 0.62330  0.57240  0.34320  Biso   1.000  H
  H128     1.0000 0.37670  0.42760  0.65680  Biso   1.000  H
  C153     1.0000 0.17600  0.73700  0.47700  Biso   1.000  C
  C154     1.0000 0.82400  0.26300  0.52300  Biso   1.000  C
  H129     1.0000 0.10030  0.69270  0.45240  Biso   1.000  H
  H130     1.0000 0.89970  0.30730  0.54760  Biso   1.000  H
  H131     1.0000 0.17720  0.73190  0.51850  Biso   1.000  H
  H132     1.0000 0.82280  0.26810  0.48150  Biso   1.000  H
