data_image0
_cell_length_a       10.665
_cell_length_b       10.7472
_cell_length_c       12.2189
_cell_angle_alpha    89.77
_cell_angle_beta     71.843
_cell_angle_gamma    72.06

_symmetry_space_group_name_H-M    "P 1"
_symmetry_int_tables_number       1

loop_
  _symmetry_equiv_pos_as_xyz
  'x, y, z'

loop_
  _atom_site_label
  _atom_site_occupancy
  _atom_site_fract_x
  _atom_site_fract_y
  _atom_site_fract_z
  _atom_site_thermal_displace_type
  _atom_site_B_iso_or_equiv
  _atom_site_type_symbol
  Cu1      1.0000 0.76050  0.81803  0.55977  Biso   1.000  Cu
  Cu2      1.0000 0.23950  0.18197  0.44023  Biso   1.000  Cu
  Cu3      1.0000 0.82125  0.65719  0.35461  Biso   1.000  Cu
  Cu4      1.0000 0.17875  0.34281  0.64539  Biso   1.000  Cu
  Cu5      1.0000 0.75545  0.51160  0.69296  Biso   1.000  Cu
  Cu6      1.0000 0.24455  0.48840  0.30704  Biso   1.000  Cu
  Cu7      1.0000 0.32746  0.03095  0.74252  Biso   1.000  Cu
  Cu8      1.0000 0.67254  0.96905  0.25748  Biso   1.000  Cu
  Cl1      1.0000 0.95975  0.74800  0.61171  Biso   1.000  Cl
  Cl2      1.0000 0.04025  0.25200  0.38829  Biso   1.000  Cl
  Cl3      1.0000 0.68305  0.70303  0.23471  Biso   1.000  Cl
  Cl4      1.0000 0.31695  0.29697  0.76529  Biso   1.000  Cl
  Cl5      1.0000 0.56604  0.48635  0.82875  Biso   1.000  Cl
  Cl6      1.0000 0.43396  0.51365  0.17125  Biso   1.000  Cl
  Cl7      1.0000 0.18686  0.99606  0.91731  Biso   1.000  Cl
  Cl8      1.0000 0.81314  0.00394  0.08269  Biso   1.000  Cl
  S1       1.0000 0.55772  0.92793  0.70838  Biso   1.000  S
  S2       1.0000 0.44228  0.07207  0.29162  Biso   1.000  S
  S3       1.0000 0.71737  0.59903  0.53300  Biso   1.000  S
  S4       1.0000 0.28263  0.40097  0.46700  Biso   1.000  S
  S5       1.0000 0.05003  0.55976  0.25940  Biso   1.000  S
  S6       1.0000 0.94997  0.44024  0.74060  Biso   1.000  S
  S7       1.0000 0.78690  0.91576  0.38994  Biso   1.000  S
  S8       1.0000 0.21310  0.08424  0.61006  Biso   1.000  S
  N1       1.0000 0.70270  0.78660  0.83770  Biso   1.000  N
  N2       1.0000 0.29730  0.21340  0.16230  Biso   1.000  N
  H1       1.0000 0.77920  0.76270  0.78030  Biso   1.000  H
  H2       1.0000 0.22080  0.23730  0.21970  Biso   1.000  H
  N3       1.0000 0.48320  0.87070  0.93010  Biso   1.000  N
  N4       1.0000 0.51680  0.12930  0.06990  Biso   1.000  N
  H3       1.0000 0.39790  0.91900  0.94410  Biso   1.000  H
  H4       1.0000 0.60210  0.08100  0.05590  Biso   1.000  H
  N5       1.0000 0.44730  0.62710  0.64590  Biso   1.000  N
  N6       1.0000 0.55270  0.37290  0.35410  Biso   1.000  N
  H5       1.0000 0.46780  0.58330  0.70050  Biso   1.000  H
  H6       1.0000 0.53220  0.41670  0.29950  Biso   1.000  H
  N7       1.0000 0.47910  0.71390  0.48560  Biso   1.000  N
  N8       1.0000 0.52090  0.28610  0.51440  Biso   1.000  N
  H7       1.0000 0.52150  0.74470  0.42530  Biso   1.000  H
  H8       1.0000 0.47850  0.25530  0.57470  Biso   1.000  H
  N9       1.0000 0.99300  0.65040  0.06890  Biso   1.000  N
  N10      1.0000 0.00700  0.34960  0.93110  Biso   1.000  N
  H9       1.0000 0.90630  0.65820  0.09980  Biso   1.000  H
  H10      1.0000 0.09370  0.34180  0.90020  Biso   1.000  H
  N11      1.0000 0.20920  0.60200  0.05150  Biso   1.000  N
  N12      1.0000 0.79080  0.39800  0.94850  Biso   1.000  N
  H11      1.0000 0.28310  0.57950  0.07130  Biso   1.000  H
  H12      1.0000 0.71690  0.42050  0.92870  Biso   1.000  H
  N13      1.0000 0.05050  0.87560  0.38430  Biso   1.000  N
  N14      1.0000 0.94950  0.12440  0.61570  Biso   1.000  N
  H13      1.0000 0.03170  0.85660  0.45480  Biso   1.000  H
  H14      1.0000 0.96830  0.14340  0.54520  Biso   1.000  H
  N15      1.0000 0.01550  0.93660  0.22570  Biso   1.000  N
  N16      1.0000 0.98450  0.06340  0.77430  Biso   1.000  N
  H15      1.0000 0.97090  0.96110  0.17750  Biso   1.000  H
  H16      1.0000 0.02910  0.03890  0.82250  Biso   1.000  H
  C1       1.0000 0.58180  0.85770  0.82980  Biso   1.000  C
  C2       1.0000 0.41820  0.14230  0.17020  Biso   1.000  C
  C3       1.0000 0.69210  0.75290  0.95510  Biso   1.000  C
  C4       1.0000 0.30790  0.24710  0.04490  Biso   1.000  C
  H17      1.0000 0.73430  0.80140  0.99120  Biso   1.000  H
  H18      1.0000 0.26570  0.19860  0.00880  Biso   1.000  H
  H19      1.0000 0.73570  0.65940  0.95600  Biso   1.000  H
  H20      1.0000 0.26430  0.34060  0.04400  Biso   1.000  H
  C5       1.0000 0.53520  0.79380  0.01460  Biso   1.000  C
  C6       1.0000 0.46480  0.20620  0.98540  Biso   1.000  C
  H21      1.0000 0.50340  0.71800  0.02800  Biso   1.000  H
  H22      1.0000 0.49660  0.28200  0.97200  Biso   1.000  H
  H23      1.0000 0.50710  0.84670  0.08760  Biso   1.000  H
  H24      1.0000 0.49290  0.15330  0.91240  Biso   1.000  H
  C7       1.0000 0.53930  0.64920  0.55580  Biso   1.000  C
  C8       1.0000 0.46070  0.35080  0.44420  Biso   1.000  C
  C9       1.0000 0.30580  0.68510  0.64330  Biso   1.000  C
  C10      1.0000 0.69420  0.31490  0.35670  Biso   1.000  C
  H25      1.0000 0.25320  0.75950  0.70160  Biso   1.000  H
  H26      1.0000 0.74680  0.24050  0.29840  Biso   1.000  H
  H27      1.0000 0.25690  0.62100  0.65460  Biso   1.000  H
  H28      1.0000 0.74310  0.37900  0.34540  Biso   1.000  H
  C11      1.0000 0.33120  0.72800  0.52160  Biso   1.000  C
  C12      1.0000 0.66880  0.27200  0.47840  Biso   1.000  C
  H29      1.0000 0.31220  0.67150  0.47150  Biso   1.000  H
  H30      1.0000 0.68780  0.32850  0.52850  Biso   1.000  H
  H31      1.0000 0.27480  0.81840  0.52240  Biso   1.000  H
  H32      1.0000 0.72520  0.18160  0.47760  Biso   1.000  H
  C13      1.0000 0.08610  0.60840  0.12090  Biso   1.000  C
  C14      1.0000 0.91390  0.39160  0.87910  Biso   1.000  C
  C15      1.0000 0.05370  0.68240  0.95230  Biso   1.000  C
  C16      1.0000 0.94630  0.31760  0.04770  Biso   1.000  C
  H33      1.0000 0.03400  0.63540  0.89550  Biso   1.000  H
  H34      1.0000 0.96600  0.36460  0.10450  Biso   1.000  H
  H35      1.0000 0.01920  0.77600  0.94660  Biso   1.000  H
  H36      1.0000 0.98080  0.22400  0.05340  Biso   1.000  H
  C17      1.0000 0.20760  0.63710  0.93660  Biso   1.000  C
  C18      1.0000 0.79240  0.36290  0.06340  Biso   1.000  C
  H37      1.0000 0.24720  0.70710  0.91440  Biso   1.000  H
  H38      1.0000 0.75280  0.29290  0.08560  Biso   1.000  H
  H39      1.0000 0.25810  0.56180  0.87890  Biso   1.000  H
  H40      1.0000 0.74190  0.43820  0.12110  Biso   1.000  H
  C19      1.0000 0.95970  0.90870  0.33020  Biso   1.000  C
  C20      1.0000 0.04030  0.09130  0.66980  Biso   1.000  C
  C21      1.0000 0.18790  0.87450  0.31110  Biso   1.000  C
  C22      1.0000 0.81210  0.12550  0.68890  Biso   1.000  C
  H41      1.0000 0.25520  0.78680  0.29700  Biso   1.000  H
  H42      1.0000 0.74480  0.21320  0.70300  Biso   1.000  H
  H43      1.0000 0.22110  0.93380  0.34550  Biso   1.000  H
  H44      1.0000 0.77890  0.06620  0.65450  Biso   1.000  H
  C23      1.0000 0.16190  0.92120  0.20110  Biso   1.000  C
  C24      1.0000 0.83810  0.07880  0.79890  Biso   1.000  C
  H45      1.0000 0.17940  0.00400  0.18590  Biso   1.000  H
  H46      1.0000 0.82060  0.99600  0.81410  Biso   1.000  H
  H47      1.0000 0.21980  0.85660  0.13520  Biso   1.000  H
  H48      1.0000 0.78020  0.14340  0.86480  Biso   1.000  H
