data_image0
_cell_length_a       7.4696
_cell_length_b       11.7963
_cell_length_c       11.9918
_cell_angle_alpha    67.043
_cell_angle_beta     75.666
_cell_angle_gamma    87.738

_symmetry_space_group_name_H-M    "P 1"
_symmetry_int_tables_number       1

loop_
  _symmetry_equiv_pos_as_xyz
  'x, y, z'

loop_
  _atom_site_label
  _atom_site_occupancy
  _atom_site_fract_x
  _atom_site_fract_y
  _atom_site_fract_z
  _atom_site_thermal_displace_type
  _atom_site_B_iso_or_equiv
  _atom_site_type_symbol
  Cu1      1.0000 0.05380  0.00924  0.09819  Biso   1.000  Cu
  Cu2      1.0000 0.94620  0.99076  0.90181  Biso   1.000  Cu
  Cu3      1.0000 0.86234  0.78738  0.27329  Biso   1.000  Cu
  Cu4      1.0000 0.13766  0.21262  0.72671  Biso   1.000  Cu
  Cu5      1.0000 0.04241  0.38586  0.95732  Biso   1.000  Cu
  Cu6      1.0000 0.95759  0.61414  0.04268  Biso   1.000  Cu
  Cl1      1.0000 0.16957  0.85513  0.24670  Biso   1.000  Cl
  Cl2      1.0000 0.83043  0.14487  0.75330  Biso   1.000  Cl
  Cl3      1.0000 0.67528  0.79841  0.45586  Biso   1.000  Cl
  Cl4      1.0000 0.32472  0.20159  0.54414  Biso   1.000  Cl
  Cl5      1.0000 0.77469  0.50623  0.97520  Biso   1.000  Cl
  Cl6      1.0000 0.22531  0.49377  0.02480  Biso   1.000  Cl
  S1       1.0000 0.96821  0.19225  0.10765  Biso   1.000  S
  S2       1.0000 0.03179  0.80775  0.89235  Biso   1.000  S
  S3       1.0000 0.84839  0.60466  0.24213  Biso   1.000  S
  S4       1.0000 0.15161  0.39534  0.75787  Biso   1.000  S
  S5       1.0000 0.75055  0.91469  0.10043  Biso   1.000  S
  S6       1.0000 0.24945  0.08531  0.89957  Biso   1.000  S
  N1       1.0000 0.87850  0.08580  0.35989  Biso   1.000  N
  N2       1.0000 0.12150  0.91420  0.64011  Biso   1.000  N
  H1       1.0000 0.83500  0.01610  0.35140  Biso   1.000  H
  H2       1.0000 0.16500  0.98390  0.64860  Biso   1.000  H
  N3       1.0000 0.90860  0.28710  0.28320  Biso   1.000  N
  N4       1.0000 0.09140  0.71290  0.71680  Biso   1.000  N
  H3       1.0000 0.96410  0.36330  0.22590  Biso   1.000  H
  H4       1.0000 0.03590  0.63670  0.77410  Biso   1.000  H
  N5       1.0000 0.49110  0.60510  0.36280  Biso   1.000  N
  N6       1.0000 0.50890  0.39490  0.63720  Biso   1.000  N
  H5       1.0000 0.52220  0.64930  0.40070  Biso   1.000  H
  H6       1.0000 0.47780  0.35070  0.59930  Biso   1.000  H
  N7       1.0000 0.52690  0.50710  0.23950  Biso   1.000  N
  N8       1.0000 0.47310  0.49290  0.76050  Biso   1.000  N
  H7       1.0000 0.58400  0.48580  0.18040  Biso   1.000  H
  H8       1.0000 0.41600  0.51420  0.81960  Biso   1.000  H
  N9       1.0000 0.58340  0.12904  0.03140  Biso   1.000  N
  N10      1.0000 0.41660  0.87096  0.96860  Biso   1.000  N
  H9       1.0000 0.62890  0.14040  0.95240  Biso   1.000  H
  H10      1.0000 0.37110  0.85960  0.04760  Biso   1.000  H
  N11      1.0000 0.54120  0.03373  0.23340  Biso   1.000  N
  N12      1.0000 0.45880  0.96627  0.76660  Biso   1.000  N
  H11      1.0000 0.54550  0.96530  0.29800  Biso   1.000  H
  H12      1.0000 0.45450  0.03470  0.70200  Biso   1.000  H
  C1       1.0000 0.91770  0.18880  0.25550  Biso   1.000  C
  C2       1.0000 0.08230  0.81120  0.74450  Biso   1.000  C
  C3       1.0000 0.81020  0.11570  0.47040  Biso   1.000  C
  C4       1.0000 0.18980  0.88430  0.52960  Biso   1.000  C
  H13      1.0000 0.67380  0.09880  0.49750  Biso   1.000  H
  H14      1.0000 0.32620  0.90120  0.50250  Biso   1.000  H
  H15      1.0000 0.87100  0.06060  0.53740  Biso   1.000  H
  H16      1.0000 0.12900  0.93940  0.46260  Biso   1.000  H
  C5       1.0000 0.86910  0.25310  0.41930  Biso   1.000  C
  C6       1.0000 0.13090  0.74690  0.58070  Biso   1.000  C
  H17      1.0000 0.99060  0.27420  0.42370  Biso   1.000  H
  H18      1.0000 0.00940  0.72580  0.57630  Biso   1.000  H
  H19      1.0000 0.77080  0.29740  0.43740  Biso   1.000  H
  H20      1.0000 0.22920  0.70260  0.56260  Biso   1.000  H
  C7       1.0000 0.61180  0.57170  0.28150  Biso   1.000  C
  C8       1.0000 0.38820  0.42830  0.71850  Biso   1.000  C
  C9       1.0000 0.30390  0.55280  0.38750  Biso   1.000  C
  C10      1.0000 0.69610  0.44720  0.61250  Biso   1.000  C
  H21      1.0000 0.21920  0.61340  0.38470  Biso   1.000  H
  H22      1.0000 0.78080  0.38660  0.61530  Biso   1.000  H
  H23      1.0000 0.26950  0.49270  0.46320  Biso   1.000  H
  H24      1.0000 0.73050  0.50730  0.53680  Biso   1.000  H
  C11      1.0000 0.32500  0.50610  0.28300  Biso   1.000  C
  C12      1.0000 0.67500  0.49390  0.71700  Biso   1.000  C
  H25      1.0000 0.27350  0.43090  0.29610  Biso   1.000  H
  H26      1.0000 0.72650  0.56910  0.70390  Biso   1.000  H
  H27      1.0000 0.27770  0.56470  0.21270  Biso   1.000  H
  H28      1.0000 0.72230  0.43530  0.78730  Biso   1.000  H
  C13      1.0000 0.61960  0.03140  0.12250  Biso   1.000  C
  C14      1.0000 0.38040  0.96860  0.87750  Biso   1.000  C
  C15      1.0000 0.47930  0.21520  0.07930  Biso   1.000  C
  C16      1.0000 0.52070  0.78480  0.92070  Biso   1.000  C
  H29      1.0000 0.54890  0.28660  0.06190  Biso   1.000  H
  H30      1.0000 0.45110  0.71340  0.93810  Biso   1.000  H
  H31      1.0000 0.38140  0.24030  0.04230  Biso   1.000  H
  H32      1.0000 0.61860  0.75970  0.95770  Biso   1.000  H
  C17      1.0000 0.42340  0.13830  0.22080  Biso   1.000  C
  C18      1.0000 0.57660  0.86170  0.77920  Biso   1.000  C
  H33      1.0000 0.46510  0.18320  0.26460  Biso   1.000  H
  H34      1.0000 0.53490  0.81680  0.73540  Biso   1.000  H
  H35      1.0000 0.29640  0.11020  0.24990  Biso   1.000  H
  H36      1.0000 0.70360  0.88980  0.75010  Biso   1.000  H
