data_image0
_cell_length_a       9.2669
_cell_length_b       15.6365
_cell_length_c       17.3257
_cell_angle_alpha    90
_cell_angle_beta     90
_cell_angle_gamma    90

_symmetry_space_group_name_H-M    "P 1"
_symmetry_int_tables_number       1

loop_
  _symmetry_equiv_pos_as_xyz
  'x, y, z'

loop_
  _atom_site_label
  _atom_site_occupancy
  _atom_site_fract_x
  _atom_site_fract_y
  _atom_site_fract_z
  _atom_site_thermal_displace_type
  _atom_site_B_iso_or_equiv
  _atom_site_type_symbol
  Cu1      1.0000 0.09480  0.92222  0.00459  Biso   1.000  Cu
  Cu2      1.0000 0.40520  0.57778  0.50459  Biso   1.000  Cu
  Cu3      1.0000 0.90520  0.92222  0.49541  Biso   1.000  Cu
  Cu4      1.0000 0.59480  0.57778  0.99541  Biso   1.000  Cu
  Cu5      1.0000 0.90520  0.07778  0.99541  Biso   1.000  Cu
  Cu6      1.0000 0.59480  0.42222  0.49541  Biso   1.000  Cu
  Cu7      1.0000 0.09480  0.07778  0.50459  Biso   1.000  Cu
  Cu8      1.0000 0.40520  0.42222  0.00459  Biso   1.000  Cu
  Cl1      1.0000 0.94355  0.98452  0.10402  Biso   1.000  Cl
  Cl2      1.0000 0.55645  0.51548  0.60402  Biso   1.000  Cl
  Cl3      1.0000 0.05645  0.98452  0.39598  Biso   1.000  Cl
  Cl4      1.0000 0.44355  0.51548  0.89598  Biso   1.000  Cl
  Cl5      1.0000 0.05645  0.01548  0.89598  Biso   1.000  Cl
  Cl6      1.0000 0.44355  0.48452  0.39598  Biso   1.000  Cl
  Cl7      1.0000 0.94355  0.01548  0.60402  Biso   1.000  Cl
  Cl8      1.0000 0.55645  0.48452  0.10402  Biso   1.000  Cl
  S1       1.0000 0.03893  0.78796  0.96919  Biso   1.000  S
  S2       1.0000 0.46107  0.71204  0.46919  Biso   1.000  S
  S3       1.0000 0.96107  0.78796  0.53081  Biso   1.000  S
  S4       1.0000 0.53893  0.71204  0.03081  Biso   1.000  S
  S5       1.0000 0.96107  0.21204  0.03081  Biso   1.000  S
  S6       1.0000 0.53893  0.28796  0.53081  Biso   1.000  S
  S7       1.0000 0.03893  0.21204  0.46919  Biso   1.000  S
  S8       1.0000 0.46107  0.28796  0.96919  Biso   1.000  S
  N1       1.0000 0.91034  0.77822  0.10537  Biso   1.000  N
  N2       1.0000 0.58966  0.72178  0.60537  Biso   1.000  N
  N3       1.0000 0.08966  0.77822  0.39463  Biso   1.000  N
  N4       1.0000 0.41034  0.72178  0.89463  Biso   1.000  N
  N5       1.0000 0.08966  0.22178  0.89463  Biso   1.000  N
  N6       1.0000 0.41034  0.27822  0.39463  Biso   1.000  N
  N7       1.0000 0.91034  0.22178  0.60537  Biso   1.000  N
  N8       1.0000 0.58966  0.27822  0.10537  Biso   1.000  N
  N9       1.0000 0.89712  0.65554  0.03187  Biso   1.000  N
  N10      1.0000 0.60288  0.84446  0.53187  Biso   1.000  N
  N11      1.0000 0.10288  0.65554  0.46813  Biso   1.000  N
  N12      1.0000 0.39712  0.84446  0.96813  Biso   1.000  N
  N13      1.0000 0.10288  0.34446  0.96813  Biso   1.000  N
  N14      1.0000 0.39712  0.15554  0.46813  Biso   1.000  N
  N15      1.0000 0.89712  0.34446  0.53187  Biso   1.000  N
  N16      1.0000 0.60288  0.15554  0.03187  Biso   1.000  N
  N17      1.0000 0.77845  0.67131  0.16974  Biso   1.000  N
  N18      1.0000 0.72155  0.82869  0.66974  Biso   1.000  N
  N19      1.0000 0.22155  0.67131  0.33026  Biso   1.000  N
  N20      1.0000 0.27845  0.82869  0.83026  Biso   1.000  N
  N21      1.0000 0.22155  0.32869  0.83026  Biso   1.000  N
  N22      1.0000 0.27845  0.17131  0.33026  Biso   1.000  N
  N23      1.0000 0.77845  0.32869  0.66974  Biso   1.000  N
  N24      1.0000 0.72155  0.17131  0.16974  Biso   1.000  N
  N25      1.0000 0.79743  0.55511  0.95036  Biso   1.000  N
  N26      1.0000 0.70257  0.94489  0.45036  Biso   1.000  N
  N27      1.0000 0.20257  0.55511  0.54964  Biso   1.000  N
  N28      1.0000 0.29743  0.94489  0.04964  Biso   1.000  N
  N29      1.0000 0.20257  0.44489  0.04964  Biso   1.000  N
  N30      1.0000 0.29743  0.05511  0.54964  Biso   1.000  N
  N31      1.0000 0.79743  0.44489  0.45036  Biso   1.000  N
  N32      1.0000 0.70257  0.05511  0.95036  Biso   1.000  N
  C1       1.0000 0.94410  0.73673  0.03883  Biso   1.000  C
  C2       1.0000 0.55590  0.76327  0.53883  Biso   1.000  C
  C3       1.0000 0.05590  0.73673  0.46117  Biso   1.000  C
  C4       1.0000 0.44410  0.76327  0.96117  Biso   1.000  C
  C5       1.0000 0.05590  0.26327  0.96117  Biso   1.000  C
  C6       1.0000 0.44410  0.23673  0.46117  Biso   1.000  C
  C7       1.0000 0.94410  0.26327  0.53883  Biso   1.000  C
  C8       1.0000 0.55590  0.23673  0.03883  Biso   1.000  C
  C9       1.0000 0.83172  0.75054  0.16990  Biso   1.000  C
  C10      1.0000 0.66828  0.74946  0.66990  Biso   1.000  C
  C11      1.0000 0.16828  0.75054  0.33010  Biso   1.000  C
  C12      1.0000 0.33172  0.74946  0.83010  Biso   1.000  C
  C13      1.0000 0.16828  0.24946  0.83010  Biso   1.000  C
  C14      1.0000 0.33172  0.25054  0.33010  Biso   1.000  C
  C15      1.0000 0.83172  0.24946  0.66990  Biso   1.000  C
  C16      1.0000 0.66828  0.25054  0.16990  Biso   1.000  C
  C17      1.0000 0.70145  0.64643  0.23207  Biso   1.000  C
  C18      1.0000 0.79855  0.85357  0.73207  Biso   1.000  C
  C19      1.0000 0.29855  0.64643  0.26793  Biso   1.000  C
  C20      1.0000 0.20145  0.85357  0.76793  Biso   1.000  C
  C21      1.0000 0.29855  0.35357  0.76793  Biso   1.000  C
  C22      1.0000 0.20145  0.14643  0.26793  Biso   1.000  C
  C23      1.0000 0.70145  0.35357  0.73207  Biso   1.000  C
  C24      1.0000 0.79855  0.14643  0.23207  Biso   1.000  C
  C25      1.0000 0.67770  0.69789  0.29505  Biso   1.000  C
  C26      1.0000 0.82230  0.80211  0.79505  Biso   1.000  C
  C27      1.0000 0.32230  0.69789  0.20495  Biso   1.000  C
  C28      1.0000 0.17770  0.80211  0.70495  Biso   1.000  C
  C29      1.0000 0.32230  0.30211  0.70495  Biso   1.000  C
  C30      1.0000 0.17770  0.19789  0.20495  Biso   1.000  C
  C31      1.0000 0.67770  0.30211  0.79505  Biso   1.000  C
  C32      1.0000 0.82230  0.19789  0.29505  Biso   1.000  C
  C33      1.0000 0.73580  0.78017  0.29454  Biso   1.000  C
  C34      1.0000 0.76420  0.71983  0.79454  Biso   1.000  C
  C35      1.0000 0.26420  0.78017  0.20546  Biso   1.000  C
  C36      1.0000 0.23580  0.71983  0.70546  Biso   1.000  C
  C37      1.0000 0.26420  0.21983  0.70546  Biso   1.000  C
  C38      1.0000 0.23580  0.28017  0.20546  Biso   1.000  C
  C39      1.0000 0.73580  0.21983  0.79454  Biso   1.000  C
  C40      1.0000 0.76420  0.28017  0.29454  Biso   1.000  C
  C41      1.0000 0.81330  0.80776  0.23112  Biso   1.000  C
  C42      1.0000 0.68670  0.69224  0.73112  Biso   1.000  C
  C43      1.0000 0.18670  0.80776  0.26888  Biso   1.000  C
  C44      1.0000 0.31330  0.69224  0.76888  Biso   1.000  C
  C45      1.0000 0.18670  0.19224  0.76888  Biso   1.000  C
  C46      1.0000 0.31330  0.30776  0.26888  Biso   1.000  C
  C47      1.0000 0.81330  0.19224  0.73112  Biso   1.000  C
  C48      1.0000 0.68670  0.30776  0.23112  Biso   1.000  C
  C49      1.0000 0.91606  0.60038  0.96843  Biso   1.000  C
  C50      1.0000 0.58394  0.89962  0.46843  Biso   1.000  C
  C51      1.0000 0.08394  0.60038  0.53157  Biso   1.000  C
  C52      1.0000 0.41606  0.89962  0.03157  Biso   1.000  C
  C53      1.0000 0.08394  0.39962  0.03157  Biso   1.000  C
  C54      1.0000 0.41606  0.10038  0.53157  Biso   1.000  C
  C55      1.0000 0.91606  0.39962  0.46843  Biso   1.000  C
  C56      1.0000 0.58394  0.10038  0.96843  Biso   1.000  C
  C57      1.0000 0.80936  0.49662  0.89339  Biso   1.000  C
  C58      1.0000 0.69064  0.00338  0.39339  Biso   1.000  C
  C59      1.0000 0.19064  0.49662  0.60661  Biso   1.000  C
  C60      1.0000 0.30936  0.00338  0.10661  Biso   1.000  C
  C61      1.0000 0.19064  0.50338  0.10661  Biso   1.000  C
  C62      1.0000 0.30936  0.99662  0.60661  Biso   1.000  C
  C63      1.0000 0.80936  0.50338  0.39339  Biso   1.000  C
  C64      1.0000 0.69064  0.99662  0.89339  Biso   1.000  C
  C65      1.0000 0.93529  0.48322  0.85252  Biso   1.000  C
  C66      1.0000 0.56471  0.01678  0.35252  Biso   1.000  C
  C67      1.0000 0.06471  0.48322  0.64748  Biso   1.000  C
  C68      1.0000 0.43529  0.01678  0.14748  Biso   1.000  C
  C69      1.0000 0.06471  0.51678  0.14748  Biso   1.000  C
  C70      1.0000 0.43529  0.98322  0.64748  Biso   1.000  C
  C71      1.0000 0.93529  0.51678  0.35252  Biso   1.000  C
  C72      1.0000 0.56471  0.98322  0.85252  Biso   1.000  C
  C73      1.0000 0.05652  0.53087  0.87165  Biso   1.000  C
  C74      1.0000 0.44348  0.96913  0.37165  Biso   1.000  C
  C75      1.0000 0.94348  0.53087  0.62835  Biso   1.000  C
  C76      1.0000 0.55652  0.96913  0.12835  Biso   1.000  C
  C77      1.0000 0.94348  0.46913  0.12835  Biso   1.000  C
  C78      1.0000 0.55652  0.03087  0.62835  Biso   1.000  C
  C79      1.0000 0.05652  0.46913  0.37165  Biso   1.000  C
  C80      1.0000 0.44348  0.03087  0.87165  Biso   1.000  C
  C81      1.0000 0.04790  0.58973  0.93100  Biso   1.000  C
  C82      1.0000 0.45210  0.91027  0.43100  Biso   1.000  C
  C83      1.0000 0.95210  0.58973  0.56900  Biso   1.000  C
  C84      1.0000 0.54790  0.91027  0.06900  Biso   1.000  C
  C85      1.0000 0.95210  0.41027  0.06900  Biso   1.000  C
  C86      1.0000 0.54790  0.08973  0.56900  Biso   1.000  C
  C87      1.0000 0.04790  0.41027  0.43100  Biso   1.000  C
  C88      1.0000 0.45210  0.08973  0.93100  Biso   1.000  C
  H1       1.0000 0.93200  0.82700  0.10390  Biso   1.000  H
  H2       1.0000 0.56800  0.67300  0.60390  Biso   1.000  H
  H3       1.0000 0.06800  0.82700  0.39610  Biso   1.000  H
  H4       1.0000 0.43200  0.67300  0.89610  Biso   1.000  H
  H5       1.0000 0.06800  0.17300  0.89610  Biso   1.000  H
  H6       1.0000 0.43200  0.32700  0.39610  Biso   1.000  H
  H7       1.0000 0.93200  0.17300  0.60390  Biso   1.000  H
  H8       1.0000 0.56800  0.32700  0.10390  Biso   1.000  H
  H9       1.0000 0.84400  0.63900  0.06770  Biso   1.000  H
  H10      1.0000 0.65600  0.86100  0.56770  Biso   1.000  H
  H11      1.0000 0.15600  0.63900  0.43230  Biso   1.000  H
  H12      1.0000 0.34400  0.86100  0.93230  Biso   1.000  H
  H13      1.0000 0.15600  0.36100  0.93230  Biso   1.000  H
  H14      1.0000 0.34400  0.13900  0.43230  Biso   1.000  H
  H15      1.0000 0.84400  0.36100  0.56770  Biso   1.000  H
  H16      1.0000 0.65600  0.13900  0.06770  Biso   1.000  H
  H17      1.0000 0.66000  0.59000  0.22840  Biso   1.000  H
  H18      1.0000 0.84000  0.91000  0.72840  Biso   1.000  H
  H19      1.0000 0.34000  0.59000  0.27160  Biso   1.000  H
  H20      1.0000 0.16000  0.91000  0.77160  Biso   1.000  H
  H21      1.0000 0.34000  0.41000  0.77160  Biso   1.000  H
  H22      1.0000 0.16000  0.09000  0.27160  Biso   1.000  H
  H23      1.0000 0.66000  0.41000  0.72840  Biso   1.000  H
  H24      1.0000 0.84000  0.09000  0.22840  Biso   1.000  H
  H25      1.0000 0.62600  0.67770  0.33740  Biso   1.000  H
  H26      1.0000 0.87400  0.82230  0.83740  Biso   1.000  H
  H27      1.0000 0.37400  0.67770  0.16260  Biso   1.000  H
  H28      1.0000 0.12600  0.82230  0.66260  Biso   1.000  H
  H29      1.0000 0.37400  0.32230  0.66260  Biso   1.000  H
  H30      1.0000 0.12600  0.17770  0.16260  Biso   1.000  H
  H31      1.0000 0.62600  0.32230  0.83740  Biso   1.000  H
  H32      1.0000 0.87400  0.17770  0.33740  Biso   1.000  H
  H33      1.0000 0.71700  0.81470  0.33780  Biso   1.000  H
  H34      1.0000 0.78300  0.68530  0.83780  Biso   1.000  H
  H35      1.0000 0.28300  0.81470  0.16220  Biso   1.000  H
  H36      1.0000 0.21700  0.68530  0.66220  Biso   1.000  H
  H37      1.0000 0.28300  0.18530  0.66220  Biso   1.000  H
  H38      1.0000 0.21700  0.31470  0.16220  Biso   1.000  H
  H39      1.0000 0.71700  0.18530  0.83780  Biso   1.000  H
  H40      1.0000 0.78300  0.31470  0.33780  Biso   1.000  H
  H41      1.0000 0.85700  0.86440  0.22730  Biso   1.000  H
  H42      1.0000 0.64300  0.63560  0.72730  Biso   1.000  H
  H43      1.0000 0.14300  0.86440  0.27270  Biso   1.000  H
  H44      1.0000 0.35700  0.63560  0.77270  Biso   1.000  H
  H45      1.0000 0.14300  0.13560  0.77270  Biso   1.000  H
  H46      1.0000 0.35700  0.36440  0.27270  Biso   1.000  H
  H47      1.0000 0.85700  0.13560  0.72730  Biso   1.000  H
  H48      1.0000 0.64300  0.36440  0.22730  Biso   1.000  H
  H49      1.0000 0.72600  0.46500  0.88350  Biso   1.000  H
  H50      1.0000 0.77400  0.03500  0.38350  Biso   1.000  H
  H51      1.0000 0.27400  0.46500  0.61650  Biso   1.000  H
  H52      1.0000 0.22600  0.03500  0.11650  Biso   1.000  H
  H53      1.0000 0.27400  0.53500  0.11650  Biso   1.000  H
  H54      1.0000 0.22600  0.96500  0.61650  Biso   1.000  H
  H55      1.0000 0.72600  0.53500  0.38350  Biso   1.000  H
  H56      1.0000 0.77400  0.96500  0.88350  Biso   1.000  H
  H57      1.0000 0.93800  0.44130  0.81330  Biso   1.000  H
  H58      1.0000 0.56200  0.05870  0.31330  Biso   1.000  H
  H59      1.0000 0.06200  0.44130  0.68670  Biso   1.000  H
  H60      1.0000 0.43800  0.05870  0.18670  Biso   1.000  H
  H61      1.0000 0.06200  0.55870  0.18670  Biso   1.000  H
  H62      1.0000 0.43800  0.94130  0.68670  Biso   1.000  H
  H63      1.0000 0.93800  0.55870  0.31330  Biso   1.000  H
  H64      1.0000 0.56200  0.94130  0.81330  Biso   1.000  H
  H65      1.0000 0.14800  0.52280  0.84600  Biso   1.000  H
  H66      1.0000 0.35200  0.97720  0.34600  Biso   1.000  H
  H67      1.0000 0.85200  0.52280  0.65400  Biso   1.000  H
  H68      1.0000 0.64800  0.97720  0.15400  Biso   1.000  H
  H69      1.0000 0.85200  0.47720  0.15400  Biso   1.000  H
  H70      1.0000 0.64800  0.02280  0.65400  Biso   1.000  H
  H71      1.0000 0.14800  0.47720  0.34600  Biso   1.000  H
  H72      1.0000 0.35200  0.02280  0.84600  Biso   1.000  H
  H73      1.0000 0.12500  0.62000  0.94590  Biso   1.000  H
  H74      1.0000 0.37500  0.88000  0.44590  Biso   1.000  H
  H75      1.0000 0.87500  0.62000  0.55410  Biso   1.000  H
  H76      1.0000 0.62500  0.88000  0.05410  Biso   1.000  H
  H77      1.0000 0.87500  0.38000  0.05410  Biso   1.000  H
  H78      1.0000 0.62500  0.12000  0.55410  Biso   1.000  H
  H79      1.0000 0.12500  0.38000  0.44590  Biso   1.000  H
  H80      1.0000 0.37500  0.12000  0.94590  Biso   1.000  H
