data_image0
_cell_length_a       13.8265
_cell_length_b       5.7143
_cell_length_c       15.3147
_cell_angle_alpha    90
_cell_angle_beta     93.145
_cell_angle_gamma    90

_symmetry_space_group_name_H-M    "P 1"
_symmetry_int_tables_number       1

loop_
  _symmetry_equiv_pos_as_xyz
  'x, y, z'

loop_
  _atom_site_label
  _atom_site_occupancy
  _atom_site_fract_x
  _atom_site_fract_y
  _atom_site_fract_z
  _atom_site_thermal_displace_type
  _atom_site_B_iso_or_equiv
  _atom_site_type_symbol
  Cu1      1.0000 0.50829  0.76308  0.50382  Biso   1.000  Cu
  Cu2      1.0000 0.49171  0.26308  0.99618  Biso   1.000  Cu
  Cu3      1.0000 0.49171  0.23692  0.49618  Biso   1.000  Cu
  Cu4      1.0000 0.50829  0.73692  0.00382  Biso   1.000  Cu
  I1       1.0000 0.35185  0.98315  0.55465  Biso   1.000  I
  I2       1.0000 0.64815  0.48315  0.94535  Biso   1.000  I
  I3       1.0000 0.64815  0.01685  0.44535  Biso   1.000  I
  I4       1.0000 0.35185  0.51685  0.05465  Biso   1.000  I
  S1       1.0000 0.45722  0.50360  0.38469  Biso   1.000  S
  S2       1.0000 0.54278  0.00360  0.11531  Biso   1.000  S
  S3       1.0000 0.54278  0.49640  0.61531  Biso   1.000  S
  S4       1.0000 0.45722  0.99640  0.88469  Biso   1.000  S
  S5       1.0000 0.09836  0.21690  0.43123  Biso   1.000  S
  S6       1.0000 0.90164  0.71690  0.06877  Biso   1.000  S
  S7       1.0000 0.90164  0.78310  0.56877  Biso   1.000  S
  S8       1.0000 0.09836  0.28310  0.93123  Biso   1.000  S
  N1       1.0000 0.30640  0.75320  0.32320  Biso   1.000  N
  N2       1.0000 0.69360  0.25320  0.17680  Biso   1.000  N
  N3       1.0000 0.69360  0.24680  0.67680  Biso   1.000  N
  N4       1.0000 0.30640  0.74680  0.82320  Biso   1.000  N
  H1       1.0000 0.24370  0.77860  0.31560  Biso   1.000  H
  H2       1.0000 0.75630  0.27860  0.18440  Biso   1.000  H
  H3       1.0000 0.75630  0.22140  0.68440  Biso   1.000  H
  H4       1.0000 0.24370  0.72140  0.81560  Biso   1.000  H
  N5       1.0000 0.26960  0.42050  0.40130  Biso   1.000  N
  N6       1.0000 0.73040  0.92050  0.09870  Biso   1.000  N
  N7       1.0000 0.73040  0.57950  0.59870  Biso   1.000  N
  N8       1.0000 0.26960  0.07950  0.90130  Biso   1.000  N
  H5       1.0000 0.29240  0.29750  0.43020  Biso   1.000  H
  H6       1.0000 0.70760  0.79750  0.06980  Biso   1.000  H
  H7       1.0000 0.70760  0.70250  0.56980  Biso   1.000  H
  H8       1.0000 0.29240  0.20250  0.93020  Biso   1.000  H
  N9       1.0000 0.12570  0.62160  0.35720  Biso   1.000  N
  N10      1.0000 0.87430  0.12160  0.14280  Biso   1.000  N
  N11      1.0000 0.87430  0.37840  0.64280  Biso   1.000  N
  N12      1.0000 0.12570  0.87840  0.85720  Biso   1.000  N
  C1       1.0000 0.33630  0.57060  0.36860  Biso   1.000  C
  C2       1.0000 0.66370  0.07060  0.13140  Biso   1.000  C
  C3       1.0000 0.66370  0.42940  0.63140  Biso   1.000  C
  C4       1.0000 0.33630  0.92940  0.86860  Biso   1.000  C
  C5       1.0000 0.37310  0.91620  0.28470  Biso   1.000  C
  C6       1.0000 0.62690  0.41620  0.21530  Biso   1.000  C
  C7       1.0000 0.62690  0.08380  0.71530  Biso   1.000  C
  C8       1.0000 0.37310  0.58380  0.78470  Biso   1.000  C
  H9       1.0000 0.42380  0.96100  0.32870  Biso   1.000  H
  H10      1.0000 0.57620  0.46100  0.17130  Biso   1.000  H
  H11      1.0000 0.57620  0.03900  0.67130  Biso   1.000  H
  H12      1.0000 0.42380  0.53900  0.82870  Biso   1.000  H
  H13      1.0000 0.33760  0.05610  0.26430  Biso   1.000  H
  H14      1.0000 0.66240  0.55610  0.23570  Biso   1.000  H
  H15      1.0000 0.66240  0.94390  0.73570  Biso   1.000  H
  H16      1.0000 0.33760  0.44390  0.76430  Biso   1.000  H
  H17      1.0000 0.40270  0.84110  0.23520  Biso   1.000  H
  H18      1.0000 0.59730  0.34110  0.26480  Biso   1.000  H
  H19      1.0000 0.59730  0.15890  0.76480  Biso   1.000  H
  H20      1.0000 0.40270  0.65890  0.73520  Biso   1.000  H
  C9       1.0000 0.17030  0.44450  0.39300  Biso   1.000  C
  C10      1.0000 0.82970  0.94450  0.10700  Biso   1.000  C
  C11      1.0000 0.82970  0.55550  0.60700  Biso   1.000  C
  C12      1.0000 0.17030  0.05550  0.89300  Biso   1.000  C
  C13      1.0000 0.99600  0.38110  0.39720  Biso   1.000  C
  C14      1.0000 0.00400  0.88110  0.10280  Biso   1.000  C
  C15      1.0000 0.00400  0.61890  0.60280  Biso   1.000  C
  C16      1.0000 0.99600  0.11890  0.89720  Biso   1.000  C
  C17      1.0000 0.89910  0.32590  0.40290  Biso   1.000  C
  C18      1.0000 0.10090  0.82590  0.09710  Biso   1.000  C
  C19      1.0000 0.10090  0.67410  0.59710  Biso   1.000  C
  C20      1.0000 0.89910  0.17410  0.90290  Biso   1.000  C
  H21      1.0000 0.88000  0.18330  0.42880  Biso   1.000  H
  H22      1.0000 0.12000  0.68330  0.07120  Biso   1.000  H
  H23      1.0000 0.12000  0.81670  0.57120  Biso   1.000  H
  H24      1.0000 0.88000  0.31670  0.92880  Biso   1.000  H
  C21      1.0000 0.83100  0.48440  0.36970  Biso   1.000  C
  C22      1.0000 0.16900  0.98440  0.13030  Biso   1.000  C
  C23      1.0000 0.16900  0.51560  0.63030  Biso   1.000  C
  C24      1.0000 0.83100  0.01560  0.86970  Biso   1.000  C
  H25      1.0000 0.76410  0.45080  0.37330  Biso   1.000  H
  H26      1.0000 0.23590  0.95080  0.12670  Biso   1.000  H
  H27      1.0000 0.23590  0.54920  0.62670  Biso   1.000  H
  H28      1.0000 0.76410  0.04920  0.87330  Biso   1.000  H
  C25      1.0000 0.85930  0.69330  0.33110  Biso   1.000  C
  C26      1.0000 0.14070  0.19330  0.16890  Biso   1.000  C
  C27      1.0000 0.14070  0.30670  0.66890  Biso   1.000  C
  C28      1.0000 0.85930  0.80670  0.83110  Biso   1.000  C
  H29      1.0000 0.81120  0.79870  0.30820  Biso   1.000  H
  H30      1.0000 0.18880  0.29870  0.19180  Biso   1.000  H
  H31      1.0000 0.18880  0.20130  0.69180  Biso   1.000  H
  H32      1.0000 0.81120  0.70130  0.80820  Biso   1.000  H
  C29      1.0000 0.95660  0.74940  0.32560  Biso   1.000  C
  C30      1.0000 0.04340  0.24940  0.17440  Biso   1.000  C
  C31      1.0000 0.04340  0.25060  0.67440  Biso   1.000  C
  C32      1.0000 0.95660  0.75060  0.82560  Biso   1.000  C
  H33      1.0000 0.97550  0.89240  0.29990  Biso   1.000  H
  H34      1.0000 0.02450  0.39240  0.20010  Biso   1.000  H
  H35      1.0000 0.02450  0.10760  0.70010  Biso   1.000  H
  H36      1.0000 0.97550  0.60760  0.79990  Biso   1.000  H
  C33      1.0000 0.02590  0.59060  0.35880  Biso   1.000  C
  C34      1.0000 0.97410  0.09060  0.14120  Biso   1.000  C
  C35      1.0000 0.97410  0.40940  0.64120  Biso   1.000  C
  C36      1.0000 0.02590  0.90940  0.85880  Biso   1.000  C
