data_image0
_cell_length_a       12.5978
_cell_length_b       10.7859
_cell_length_c       14.4601
_cell_angle_alpha    90
_cell_angle_beta     90.142
_cell_angle_gamma    90

_symmetry_space_group_name_H-M    "P 1"
_symmetry_int_tables_number       1

loop_
  _symmetry_equiv_pos_as_xyz
  'x, y, z'

loop_
  _atom_site_label
  _atom_site_occupancy
  _atom_site_fract_x
  _atom_site_fract_y
  _atom_site_fract_z
  _atom_site_thermal_displace_type
  _atom_site_B_iso_or_equiv
  _atom_site_type_symbol
  I1       1.0000 0.41836  0.13224  0.30352  Biso   1.000  I
  I2       1.0000 0.08164  0.63224  0.19648  Biso   1.000  I
  I3       1.0000 0.58164  0.86776  0.69648  Biso   1.000  I
  I4       1.0000 0.91836  0.36776  0.80352  Biso   1.000  I
  I5       1.0000 0.09125  0.27088  0.31199  Biso   1.000  I
  I6       1.0000 0.40875  0.77088  0.18801  Biso   1.000  I
  I7       1.0000 0.90875  0.72912  0.68801  Biso   1.000  I
  I8       1.0000 0.59125  0.22912  0.81199  Biso   1.000  I
  Cu1      1.0000 0.29287  0.32249  0.28338  Biso   1.000  Cu
  Cu2      1.0000 0.20713  0.82249  0.21662  Biso   1.000  Cu
  Cu3      1.0000 0.70713  0.67751  0.71662  Biso   1.000  Cu
  Cu4      1.0000 0.79287  0.17751  0.78338  Biso   1.000  Cu
  Cu5      1.0000 0.21360  0.08064  0.28048  Biso   1.000  Cu
  Cu6      1.0000 0.28640  0.58064  0.21952  Biso   1.000  Cu
  Cu7      1.0000 0.78640  0.91936  0.71952  Biso   1.000  Cu
  Cu8      1.0000 0.71360  0.41936  0.78048  Biso   1.000  Cu
  S1       1.0000 0.32097  0.49670  0.37689  Biso   1.000  S
  S2       1.0000 0.17903  0.99670  0.12311  Biso   1.000  S
  S3       1.0000 0.67903  0.50330  0.62311  Biso   1.000  S
  S4       1.0000 0.82097  0.00330  0.87689  Biso   1.000  S
  S5       1.0000 0.31167  0.40533  0.12871  Biso   1.000  S
  S6       1.0000 0.18833  0.90533  0.37129  Biso   1.000  S
  S7       1.0000 0.68833  0.59467  0.87129  Biso   1.000  S
  S8       1.0000 0.81167  0.09467  0.62871  Biso   1.000  S
  N1       1.0000 0.48900  0.63690  0.41960  Biso   1.000  N
  N2       1.0000 0.01100  0.13690  0.08040  Biso   1.000  N
  N3       1.0000 0.51100  0.36310  0.58040  Biso   1.000  N
  N4       1.0000 0.98900  0.86310  0.91960  Biso   1.000  N
  H1       1.0000 0.55820  0.64780  0.42260  Biso   1.000  H
  H2       1.0000 0.94180  0.14780  0.07740  Biso   1.000  H
  H3       1.0000 0.44180  0.35220  0.57740  Biso   1.000  H
  H4       1.0000 0.05820  0.85220  0.92260  Biso   1.000  H
  N5       1.0000 0.52580  0.45100  0.34520  Biso   1.000  N
  N6       1.0000 0.97420  0.95100  0.15480  Biso   1.000  N
  N7       1.0000 0.47420  0.54900  0.65480  Biso   1.000  N
  N8       1.0000 0.02580  0.04900  0.84520  Biso   1.000  N
  H5       1.0000 0.49910  0.38110  0.32400  Biso   1.000  H
  H6       1.0000 0.00090  0.88110  0.17600  Biso   1.000  H
  H7       1.0000 0.50090  0.61890  0.67600  Biso   1.000  H
  H8       1.0000 0.99910  0.11890  0.82400  Biso   1.000  H
  N9       1.0000 0.68290  0.36140  0.30320  Biso   1.000  N
  N10      1.0000 0.81710  0.86140  0.19680  Biso   1.000  N
  N11      1.0000 0.31710  0.63860  0.69680  Biso   1.000  N
  N12      1.0000 0.18290  0.13860  0.80320  Biso   1.000  N
  N13      1.0000 0.68270  0.56890  0.36330  Biso   1.000  N
  N14      1.0000 0.81730  0.06890  0.13670  Biso   1.000  N
  N15      1.0000 0.31730  0.43110  0.63670  Biso   1.000  N
  N16      1.0000 0.18270  0.93110  0.86330  Biso   1.000  N
  N17      1.0000 0.47040  0.27930  0.05260  Biso   1.000  N
  N18      1.0000 0.02960  0.77930  0.44740  Biso   1.000  N
  N19      1.0000 0.52960  0.72070  0.94740  Biso   1.000  N
  N20      1.0000 0.97040  0.22070  0.55260  Biso   1.000  N
  H9       1.0000 0.53710  0.27210  0.03560  Biso   1.000  H
  H10      1.0000 0.96290  0.77210  0.46440  Biso   1.000  H
  H11      1.0000 0.46290  0.72790  0.96440  Biso   1.000  H
  H12      1.0000 0.03710  0.22790  0.53560  Biso   1.000  H
  N21      1.0000 0.51690  0.46940  0.11580  Biso   1.000  N
  N22      1.0000 0.98310  0.96940  0.38420  Biso   1.000  N
  N23      1.0000 0.48310  0.53060  0.88420  Biso   1.000  N
  N24      1.0000 0.01690  0.03060  0.61580  Biso   1.000  N
  H13      1.0000 0.49340  0.53750  0.14230  Biso   1.000  H
  H14      1.0000 0.00660  0.03750  0.35770  Biso   1.000  H
  H15      1.0000 0.50660  0.46250  0.85770  Biso   1.000  H
  H16      1.0000 0.99340  0.96250  0.64230  Biso   1.000  H
  N25      1.0000 0.67860  0.56700  0.12800  Biso   1.000  N
  N26      1.0000 0.82140  0.06700  0.37200  Biso   1.000  N
  N27      1.0000 0.32140  0.43300  0.87200  Biso   1.000  N
  N28      1.0000 0.17860  0.93300  0.62800  Biso   1.000  N
  N29      1.0000 0.66610  0.36830  0.05400  Biso   1.000  N
  N30      1.0000 0.83390  0.86830  0.44600  Biso   1.000  N
  N31      1.0000 0.33390  0.63170  0.94600  Biso   1.000  N
  N32      1.0000 0.16610  0.13170  0.55400  Biso   1.000  N
  C1       1.0000 0.42120  0.73470  0.45750  Biso   1.000  C
  C2       1.0000 0.07880  0.23470  0.04250  Biso   1.000  C
  C3       1.0000 0.57880  0.26530  0.54250  Biso   1.000  C
  C4       1.0000 0.92120  0.76530  0.95750  Biso   1.000  C
  H17      1.0000 0.40070  0.79200  0.40800  Biso   1.000  H
  H18      1.0000 0.09930  0.29200  0.09200  Biso   1.000  H
  H19      1.0000 0.59930  0.20800  0.59200  Biso   1.000  H
  H20      1.0000 0.90070  0.70800  0.90800  Biso   1.000  H
  H21      1.0000 0.46010  0.78010  0.50550  Biso   1.000  H
  H22      1.0000 0.03990  0.28010  0.99450  Biso   1.000  H
  H23      1.0000 0.53990  0.21990  0.49450  Biso   1.000  H
  H24      1.0000 0.96010  0.71990  0.00550  Biso   1.000  H
  H25      1.0000 0.35740  0.69750  0.48440  Biso   1.000  H
  H26      1.0000 0.14260  0.19750  0.01560  Biso   1.000  H
  H27      1.0000 0.64260  0.30250  0.51560  Biso   1.000  H
  H28      1.0000 0.85740  0.80250  0.98440  Biso   1.000  H
  C5       1.0000 0.45390  0.53350  0.38130  Biso   1.000  C
  C6       1.0000 0.04610  0.03350  0.11870  Biso   1.000  C
  C7       1.0000 0.54610  0.46650  0.61870  Biso   1.000  C
  C8       1.0000 0.95390  0.96650  0.88130  Biso   1.000  C
  C9       1.0000 0.63580  0.46380  0.33780  Biso   1.000  C
  C10      1.0000 0.86420  0.96380  0.16220  Biso   1.000  C
  C11      1.0000 0.36420  0.53620  0.66220  Biso   1.000  C
  C12      1.0000 0.13580  0.03620  0.83780  Biso   1.000  C
  C13      1.0000 0.78810  0.36740  0.29540  Biso   1.000  C
  C14      1.0000 0.71190  0.86740  0.20460  Biso   1.000  C
  C15      1.0000 0.21190  0.63260  0.70460  Biso   1.000  C
  C16      1.0000 0.28810  0.13260  0.79540  Biso   1.000  C
  H29      1.0000 0.82540  0.29700  0.27310  Biso   1.000  H
  H30      1.0000 0.67460  0.79700  0.22690  Biso   1.000  H
  H31      1.0000 0.17460  0.70300  0.72690  Biso   1.000  H
  H32      1.0000 0.32540  0.20300  0.77310  Biso   1.000  H
  C17      1.0000 0.84540  0.47370  0.31890  Biso   1.000  C
  C18      1.0000 0.65460  0.97370  0.18110  Biso   1.000  C
  C19      1.0000 0.15460  0.52630  0.68110  Biso   1.000  C
  C20      1.0000 0.34540  0.02630  0.81890  Biso   1.000  C
  H33      1.0000 0.92030  0.47750  0.31200  Biso   1.000  H
  H34      1.0000 0.57970  0.97750  0.18800  Biso   1.000  H
  H35      1.0000 0.07970  0.52250  0.68800  Biso   1.000  H
  H36      1.0000 0.42030  0.02250  0.81200  Biso   1.000  H
  C21      1.0000 0.78810  0.57340  0.35280  Biso   1.000  C
  C22      1.0000 0.71190  0.07340  0.14720  Biso   1.000  C
  C23      1.0000 0.21190  0.42660  0.64720  Biso   1.000  C
  C24      1.0000 0.28810  0.92660  0.85280  Biso   1.000  C
  H37      1.0000 0.82480  0.64720  0.36900  Biso   1.000  H
  H38      1.0000 0.67520  0.14720  0.13100  Biso   1.000  H
  H39      1.0000 0.17520  0.35280  0.63100  Biso   1.000  H
  H40      1.0000 0.32480  0.85280  0.86900  Biso   1.000  H
  C25      1.0000 0.39730  0.17880  0.02980  Biso   1.000  C
  C26      1.0000 0.10270  0.67880  0.47020  Biso   1.000  C
  C27      1.0000 0.60270  0.82120  0.97020  Biso   1.000  C
  C28      1.0000 0.89730  0.32120  0.52980  Biso   1.000  C
  H41      1.0000 0.36050  0.15170  0.08590  Biso   1.000  H
  H42      1.0000 0.13950  0.65170  0.41410  Biso   1.000  H
  H43      1.0000 0.63950  0.84830  0.91410  Biso   1.000  H
  H44      1.0000 0.86050  0.34830  0.58590  Biso   1.000  H
  H45      1.0000 0.43720  0.10900  0.00380  Biso   1.000  H
  H46      1.0000 0.06280  0.60900  0.49620  Biso   1.000  H
  H47      1.0000 0.56280  0.89100  0.99620  Biso   1.000  H
  H48      1.0000 0.93720  0.39100  0.50380  Biso   1.000  H
  H49      1.0000 0.34520  0.20800  0.98430  Biso   1.000  H
  H50      1.0000 0.15480  0.70800  0.51570  Biso   1.000  H
  H51      1.0000 0.65480  0.79200  0.01570  Biso   1.000  H
  H52      1.0000 0.84520  0.29200  0.48430  Biso   1.000  H
  C29      1.0000 0.44170  0.37990  0.09720  Biso   1.000  C
  C30      1.0000 0.05830  0.87990  0.40280  Biso   1.000  C
  C31      1.0000 0.55830  0.62010  0.90280  Biso   1.000  C
  C32      1.0000 0.94170  0.12010  0.59720  Biso   1.000  C
  C33      1.0000 0.62620  0.46570  0.09780  Biso   1.000  C
  C34      1.0000 0.87380  0.96570  0.40220  Biso   1.000  C
  C35      1.0000 0.37380  0.53430  0.90220  Biso   1.000  C
  C36      1.0000 0.12620  0.03430  0.59780  Biso   1.000  C
  C37      1.0000 0.78300  0.56550  0.11230  Biso   1.000  C
  C38      1.0000 0.71700  0.06550  0.38770  Biso   1.000  C
  C39      1.0000 0.21700  0.43450  0.88770  Biso   1.000  C
  C40      1.0000 0.28300  0.93450  0.61230  Biso   1.000  C
  H53      1.0000 0.82430  0.63350  0.13350  Biso   1.000  H
  H54      1.0000 0.67570  0.13350  0.36650  Biso   1.000  H
  H55      1.0000 0.17570  0.36650  0.86650  Biso   1.000  H
  H56      1.0000 0.32430  0.86650  0.63350  Biso   1.000  H
  C41      1.0000 0.83380  0.46980  0.06680  Biso   1.000  C
  C42      1.0000 0.66620  0.96980  0.43320  Biso   1.000  C
  C43      1.0000 0.16620  0.53020  0.93320  Biso   1.000  C
  C44      1.0000 0.33380  0.03020  0.56680  Biso   1.000  C
  H57      1.0000 0.90810  0.47130  0.05590  Biso   1.000  H
  H58      1.0000 0.59190  0.97130  0.44410  Biso   1.000  H
  H59      1.0000 0.09190  0.52870  0.94410  Biso   1.000  H
  H60      1.0000 0.40810  0.02870  0.55590  Biso   1.000  H
  C45      1.0000 0.77080  0.37120  0.03780  Biso   1.000  C
  C46      1.0000 0.72920  0.87120  0.46220  Biso   1.000  C
  C47      1.0000 0.22920  0.62880  0.96220  Biso   1.000  C
  C48      1.0000 0.27080  0.12880  0.53780  Biso   1.000  C
  H61      1.0000 0.80270  0.30410  0.00570  Biso   1.000  H
  H62      1.0000 0.69730  0.80410  0.49430  Biso   1.000  H
  H63      1.0000 0.19730  0.69590  0.99430  Biso   1.000  H
  H64      1.0000 0.30270  0.19590  0.50570  Biso   1.000  H
