data_image0
_cell_length_a       15.7316
_cell_length_b       16.838
_cell_length_c       13.9026
_cell_angle_alpha    90
_cell_angle_beta     100.046
_cell_angle_gamma    90

_symmetry_space_group_name_H-M    "P 1"
_symmetry_int_tables_number       1

loop_
  _symmetry_equiv_pos_as_xyz
  'x, y, z'

loop_
  _atom_site_label
  _atom_site_occupancy
  _atom_site_fract_x
  _atom_site_fract_y
  _atom_site_fract_z
  _atom_site_thermal_displace_type
  _atom_site_B_iso_or_equiv
  _atom_site_type_symbol
  I1       1.0000 0.90170  0.34336  0.35514  Biso   1.000  I
  I2       1.0000 0.09830  0.34336  0.14485  Biso   1.000  I
  I3       1.0000 0.40170  0.84336  0.35514  Biso   1.000  I
  I4       1.0000 0.59830  0.84336  0.14485  Biso   1.000  I
  I5       1.0000 0.09829  0.65664  0.64485  Biso   1.000  I
  I6       1.0000 0.90170  0.65664  0.85515  Biso   1.000  I
  I7       1.0000 0.59830  0.15664  0.64485  Biso   1.000  I
  I8       1.0000 0.40170  0.15664  0.85515  Biso   1.000  I
  I9       1.0000 0.09922  0.49655  0.39944  Biso   1.000  I
  I10      1.0000 0.90078  0.49655  0.10056  Biso   1.000  I
  I11      1.0000 0.59922  0.99655  0.39944  Biso   1.000  I
  I12      1.0000 0.40078  0.99655  0.10056  Biso   1.000  I
  I13      1.0000 0.90078  0.50345  0.60056  Biso   1.000  I
  I14      1.0000 0.09922  0.50345  0.89944  Biso   1.000  I
  I15      1.0000 0.40078  0.00345  0.60056  Biso   1.000  I
  I16      1.0000 0.59922  0.00345  0.89944  Biso   1.000  I
  Cu1      1.0000 0.00000  0.25764  0.25000  Biso   1.000  Cu
  Cu2      1.0000 0.50000  0.75764  0.25000  Biso   1.000  Cu
  Cu3      1.0000 0.00000  0.74236  0.75000  Biso   1.000  Cu
  Cu4      1.0000 0.50000  0.24236  0.75000  Biso   1.000  Cu
  Cu5      1.0000 0.99924  0.42020  0.50647  Biso   1.000  Cu
  Cu6      1.0000 0.00076  0.42020  0.99353  Biso   1.000  Cu
  Cu7      1.0000 0.49924  0.92020  0.50647  Biso   1.000  Cu
  Cu8      1.0000 0.50076  0.92020  0.99353  Biso   1.000  Cu
  Cu9      1.0000 0.00076  0.57980  0.49353  Biso   1.000  Cu
  Cu10     1.0000 0.99924  0.57980  0.00647  Biso   1.000  Cu
  Cu11     1.0000 0.50076  0.07980  0.49353  Biso   1.000  Cu
  Cu12     1.0000 0.49924  0.07980  0.00647  Biso   1.000  Cu
  Cu13     1.0000 0.00000  0.41932  0.25000  Biso   1.000  Cu
  Cu14     1.0000 0.50000  0.91932  0.25000  Biso   1.000  Cu
  Cu15     1.0000 0.00000  0.58068  0.75000  Biso   1.000  Cu
  Cu16     1.0000 0.50000  0.08068  0.75000  Biso   1.000  Cu
  S1       1.0000 0.80202  0.12808  0.02066  Biso   1.000  S
  S2       1.0000 0.19798  0.12808  0.47934  Biso   1.000  S
  S3       1.0000 0.30202  0.62808  0.02066  Biso   1.000  S
  S4       1.0000 0.69798  0.62808  0.47934  Biso   1.000  S
  S5       1.0000 0.19798  0.87192  0.97934  Biso   1.000  S
  S6       1.0000 0.80202  0.87192  0.52066  Biso   1.000  S
  S7       1.0000 0.69798  0.37192  0.97934  Biso   1.000  S
  S8       1.0000 0.30202  0.37192  0.52066  Biso   1.000  S
  N1       1.0000 0.90690  0.19000  0.16850  Biso   1.000  N
  N2       1.0000 0.09310  0.19000  0.33150  Biso   1.000  N
  N3       1.0000 0.40690  0.69000  0.16850  Biso   1.000  N
  N4       1.0000 0.59310  0.69000  0.33150  Biso   1.000  N
  N5       1.0000 0.09310  0.81000  0.83150  Biso   1.000  N
  N6       1.0000 0.90690  0.81000  0.66850  Biso   1.000  N
  N7       1.0000 0.59310  0.31000  0.83150  Biso   1.000  N
  N8       1.0000 0.40690  0.31000  0.66850  Biso   1.000  N
  N9       1.0000 0.92190  0.34550  0.90110  Biso   1.000  N
  N10      1.0000 0.07810  0.34550  0.59890  Biso   1.000  N
  N11      1.0000 0.42190  0.84550  0.90110  Biso   1.000  N
  N12      1.0000 0.57810  0.84550  0.59890  Biso   1.000  N
  N13      1.0000 0.07810  0.65450  0.09890  Biso   1.000  N
  N14      1.0000 0.92190  0.65450  0.40110  Biso   1.000  N
  N15      1.0000 0.57810  0.15450  0.09890  Biso   1.000  N
  N16      1.0000 0.42190  0.15450  0.40110  Biso   1.000  N
  N17      1.0000 0.82790  0.23240  0.87180  Biso   1.000  N
  N18      1.0000 0.17210  0.23240  0.62820  Biso   1.000  N
  N19      1.0000 0.32790  0.73240  0.87180  Biso   1.000  N
  N20      1.0000 0.67210  0.73240  0.62820  Biso   1.000  N
  N21      1.0000 0.17210  0.76760  0.12820  Biso   1.000  N
  N22      1.0000 0.82790  0.76760  0.37180  Biso   1.000  N
  N23      1.0000 0.67210  0.26760  0.12820  Biso   1.000  N
  N24      1.0000 0.32790  0.26760  0.37180  Biso   1.000  N
  N25      1.0000 0.90200  0.26160  0.02600  Biso   1.000  N
  N26      1.0000 0.09800  0.26160  0.47400  Biso   1.000  N
  N27      1.0000 0.40200  0.76160  0.02600  Biso   1.000  N
  N28      1.0000 0.59800  0.76160  0.47400  Biso   1.000  N
  N29      1.0000 0.09800  0.73840  0.97400  Biso   1.000  N
  N30      1.0000 0.90200  0.73840  0.52600  Biso   1.000  N
  N31      1.0000 0.59800  0.23840  0.97400  Biso   1.000  N
  N32      1.0000 0.40200  0.23840  0.52600  Biso   1.000  N
  H1       1.0000 0.93610  0.29550  0.06230  Biso   1.000  H
  H2       1.0000 0.06390  0.29550  0.43770  Biso   1.000  H
  H3       1.0000 0.43610  0.79550  0.06230  Biso   1.000  H
  H4       1.0000 0.56390  0.79550  0.43770  Biso   1.000  H
  H5       1.0000 0.06390  0.70450  0.93770  Biso   1.000  H
  H6       1.0000 0.93610  0.70450  0.56230  Biso   1.000  H
  H7       1.0000 0.56390  0.20450  0.93770  Biso   1.000  H
  H8       1.0000 0.43610  0.20450  0.56230  Biso   1.000  H
  C1       1.0000 0.87590  0.19870  0.07410  Biso   1.000  C
  C2       1.0000 0.12410  0.19870  0.42590  Biso   1.000  C
  C3       1.0000 0.37590  0.69870  0.07410  Biso   1.000  C
  C4       1.0000 0.62410  0.69870  0.42590  Biso   1.000  C
  C5       1.0000 0.12410  0.80130  0.92590  Biso   1.000  C
  C6       1.0000 0.87590  0.80130  0.57410  Biso   1.000  C
  C7       1.0000 0.62410  0.30130  0.92590  Biso   1.000  C
  C8       1.0000 0.37590  0.30130  0.57410  Biso   1.000  C
  C9       1.0000 0.88240  0.27960  0.92810  Biso   1.000  C
  C10      1.0000 0.11760  0.27960  0.57190  Biso   1.000  C
  C11      1.0000 0.38240  0.77960  0.92810  Biso   1.000  C
  C12      1.0000 0.61760  0.77960  0.57190  Biso   1.000  C
  C13      1.0000 0.11760  0.72040  0.07190  Biso   1.000  C
  C14      1.0000 0.88240  0.72040  0.42810  Biso   1.000  C
  C15      1.0000 0.61760  0.22040  0.07190  Biso   1.000  C
  C16      1.0000 0.38240  0.22040  0.42810  Biso   1.000  C
  C17      1.0000 0.81060  0.25250  0.77700  Biso   1.000  C
  C18      1.0000 0.18940  0.25250  0.72300  Biso   1.000  C
  C19      1.0000 0.31060  0.75250  0.77700  Biso   1.000  C
  C20      1.0000 0.68940  0.75250  0.72300  Biso   1.000  C
  C21      1.0000 0.18940  0.74750  0.22300  Biso   1.000  C
  C22      1.0000 0.81060  0.74750  0.27700  Biso   1.000  C
  C23      1.0000 0.68940  0.24750  0.22300  Biso   1.000  C
  C24      1.0000 0.31060  0.24750  0.27700  Biso   1.000  C
  H9       1.0000 0.77260  0.21980  0.73320  Biso   1.000  H
  H10      1.0000 0.22740  0.21980  0.76680  Biso   1.000  H
  H11      1.0000 0.27260  0.71980  0.73320  Biso   1.000  H
  H12      1.0000 0.72740  0.71980  0.76680  Biso   1.000  H
  H13      1.0000 0.22740  0.78020  0.26680  Biso   1.000  H
  H14      1.0000 0.77260  0.78020  0.23320  Biso   1.000  H
  H15      1.0000 0.72740  0.28020  0.26680  Biso   1.000  H
  H16      1.0000 0.27260  0.28020  0.23320  Biso   1.000  H
  C25      1.0000 0.84600  0.31870  0.74050  Biso   1.000  C
  C26      1.0000 0.15400  0.31870  0.75950  Biso   1.000  C
  C27      1.0000 0.34600  0.81870  0.74050  Biso   1.000  C
  C28      1.0000 0.65400  0.81870  0.75950  Biso   1.000  C
  C29      1.0000 0.15400  0.68130  0.25950  Biso   1.000  C
  C30      1.0000 0.84600  0.68130  0.24050  Biso   1.000  C
  C31      1.0000 0.65400  0.18130  0.25950  Biso   1.000  C
  C32      1.0000 0.34600  0.18130  0.24050  Biso   1.000  C
  H17      1.0000 0.83280  0.33240  0.67320  Biso   1.000  H
  H18      1.0000 0.16720  0.33240  0.82680  Biso   1.000  H
  H19      1.0000 0.33280  0.83240  0.67320  Biso   1.000  H
  H20      1.0000 0.66720  0.83240  0.82680  Biso   1.000  H
  H21      1.0000 0.16720  0.66760  0.32680  Biso   1.000  H
  H22      1.0000 0.83280  0.66760  0.17320  Biso   1.000  H
  H23      1.0000 0.66720  0.16760  0.32680  Biso   1.000  H
  H24      1.0000 0.33280  0.16760  0.17320  Biso   1.000  H
  C33      1.0000 0.90100  0.36390  0.80620  Biso   1.000  C
  C34      1.0000 0.09900  0.36390  0.69380  Biso   1.000  C
  C35      1.0000 0.40100  0.86390  0.80620  Biso   1.000  C
  C36      1.0000 0.59900  0.86390  0.69380  Biso   1.000  C
  C37      1.0000 0.09900  0.63610  0.19380  Biso   1.000  C
  C38      1.0000 0.90100  0.63610  0.30620  Biso   1.000  C
  C39      1.0000 0.59900  0.13610  0.19380  Biso   1.000  C
  C40      1.0000 0.40100  0.13610  0.30620  Biso   1.000  C
  H25      1.0000 0.92540  0.41030  0.78320  Biso   1.000  H
  H26      1.0000 0.07460  0.41030  0.71680  Biso   1.000  H
  H27      1.0000 0.42540  0.91030  0.78320  Biso   1.000  H
  H28      1.0000 0.57460  0.91030  0.71680  Biso   1.000  H
  H29      1.0000 0.07460  0.58970  0.21680  Biso   1.000  H
  H30      1.0000 0.92540  0.58970  0.28320  Biso   1.000  H
  H31      1.0000 0.57460  0.08970  0.21680  Biso   1.000  H
  H32      1.0000 0.42540  0.08970  0.28320  Biso   1.000  H
  C41      1.0000 0.87040  0.12360  0.20420  Biso   1.000  C
  C42      1.0000 0.12960  0.12360  0.29580  Biso   1.000  C
  C43      1.0000 0.37040  0.62360  0.20420  Biso   1.000  C
  C44      1.0000 0.62960  0.62360  0.29580  Biso   1.000  C
  C45      1.0000 0.12960  0.87640  0.79580  Biso   1.000  C
  C46      1.0000 0.87040  0.87640  0.70420  Biso   1.000  C
  C47      1.0000 0.62960  0.37640  0.79580  Biso   1.000  C
  C48      1.0000 0.37040  0.37640  0.70420  Biso   1.000  C
  C49      1.0000 0.88830  0.09710  0.30220  Biso   1.000  C
  C50      1.0000 0.11170  0.09710  0.19780  Biso   1.000  C
  C51      1.0000 0.38830  0.59710  0.30220  Biso   1.000  C
  C52      1.0000 0.61170  0.59710  0.19780  Biso   1.000  C
  C53      1.0000 0.11170  0.90290  0.69780  Biso   1.000  C
  C54      1.0000 0.88830  0.90290  0.80220  Biso   1.000  C
  C55      1.0000 0.61170  0.40290  0.69780  Biso   1.000  C
  C56      1.0000 0.38830  0.40290  0.80220  Biso   1.000  C
  H33      1.0000 0.92850  0.12440  0.34980  Biso   1.000  H
  H34      1.0000 0.07150  0.12440  0.15020  Biso   1.000  H
  H35      1.0000 0.42850  0.62440  0.34980  Biso   1.000  H
  H36      1.0000 0.57150  0.62440  0.15020  Biso   1.000  H
  H37      1.0000 0.07150  0.87560  0.65020  Biso   1.000  H
  H38      1.0000 0.92850  0.87560  0.84980  Biso   1.000  H
  H39      1.0000 0.57150  0.37560  0.65020  Biso   1.000  H
  H40      1.0000 0.42850  0.37560  0.84980  Biso   1.000  H
  C57      1.0000 0.84550  0.03070  0.32660  Biso   1.000  C
  C58      1.0000 0.15450  0.03070  0.17340  Biso   1.000  C
  C59      1.0000 0.34550  0.53070  0.32660  Biso   1.000  C
  C60      1.0000 0.65450  0.53070  0.17340  Biso   1.000  C
  C61      1.0000 0.15450  0.96930  0.67340  Biso   1.000  C
  C62      1.0000 0.84550  0.96930  0.82660  Biso   1.000  C
  C63      1.0000 0.65450  0.46930  0.67340  Biso   1.000  C
  C64      1.0000 0.34550  0.46930  0.82660  Biso   1.000  C
  H41      1.0000 0.85570  0.01250  0.39230  Biso   1.000  H
  H42      1.0000 0.14430  0.01250  0.10770  Biso   1.000  H
  H43      1.0000 0.35570  0.51250  0.39230  Biso   1.000  H
  H44      1.0000 0.64430  0.51250  0.10770  Biso   1.000  H
  H45      1.0000 0.14430  0.98750  0.60770  Biso   1.000  H
  H46      1.0000 0.85570  0.98750  0.89230  Biso   1.000  H
  H47      1.0000 0.64430  0.48750  0.60770  Biso   1.000  H
  H48      1.0000 0.35570  0.48750  0.89230  Biso   1.000  H
  C65      1.0000 0.78730  0.98950  0.25630  Biso   1.000  C
  C66      1.0000 0.21270  0.98950  0.24370  Biso   1.000  C
  C67      1.0000 0.28730  0.48950  0.25630  Biso   1.000  C
  C68      1.0000 0.71270  0.48950  0.24370  Biso   1.000  C
  C69      1.0000 0.21270  0.01050  0.74370  Biso   1.000  C
  C70      1.0000 0.78730  0.01050  0.75630  Biso   1.000  C
  C71      1.0000 0.71270  0.51050  0.74370  Biso   1.000  C
  C72      1.0000 0.28730  0.51050  0.75630  Biso   1.000  C
  H49      1.0000 0.75920  0.94350  0.27510  Biso   1.000  H
  H50      1.0000 0.24080  0.94350  0.22490  Biso   1.000  H
  H51      1.0000 0.25920  0.44350  0.27510  Biso   1.000  H
  H52      1.0000 0.74080  0.44350  0.22490  Biso   1.000  H
  H53      1.0000 0.24080  0.05650  0.72490  Biso   1.000  H
  H54      1.0000 0.75920  0.05650  0.77510  Biso   1.000  H
  H55      1.0000 0.74080  0.55650  0.72490  Biso   1.000  H
  H56      1.0000 0.25920  0.55650  0.77510  Biso   1.000  H
  C73      1.0000 0.76990  0.01440  0.16000  Biso   1.000  C
  C74      1.0000 0.23010  0.01440  0.34000  Biso   1.000  C
  C75      1.0000 0.26990  0.51440  0.16000  Biso   1.000  C
  C76      1.0000 0.73010  0.51440  0.34000  Biso   1.000  C
  C77      1.0000 0.23010  0.98560  0.84000  Biso   1.000  C
  C78      1.0000 0.76990  0.98560  0.66000  Biso   1.000  C
  C79      1.0000 0.73010  0.48560  0.84000  Biso   1.000  C
  C80      1.0000 0.26990  0.48560  0.66000  Biso   1.000  C
  H57      1.0000 0.73050  0.98620  0.11260  Biso   1.000  H
  H58      1.0000 0.26950  0.98620  0.38740  Biso   1.000  H
  H59      1.0000 0.23050  0.48620  0.11260  Biso   1.000  H
  H60      1.0000 0.76950  0.48620  0.38740  Biso   1.000  H
  H61      1.0000 0.26950  0.01380  0.88740  Biso   1.000  H
  H62      1.0000 0.73050  0.01380  0.61260  Biso   1.000  H
  H63      1.0000 0.76950  0.51380  0.88740  Biso   1.000  H
  H64      1.0000 0.23050  0.51380  0.61260  Biso   1.000  H
  C81      1.0000 0.81190  0.08210  0.13460  Biso   1.000  C
  C82      1.0000 0.18810  0.08210  0.36540  Biso   1.000  C
  C83      1.0000 0.31190  0.58210  0.13460  Biso   1.000  C
  C84      1.0000 0.68810  0.58210  0.36540  Biso   1.000  C
  C85      1.0000 0.18810  0.91790  0.86540  Biso   1.000  C
  C86      1.0000 0.81190  0.91790  0.63460  Biso   1.000  C
  C87      1.0000 0.68810  0.41790  0.86540  Biso   1.000  C
  C88      1.0000 0.31190  0.41790  0.63460  Biso   1.000  C
  N33      1.0000 0.96640  0.12940  0.69300  Biso   1.000  N
  N34      1.0000 0.03360  0.12940  0.80700  Biso   1.000  N
  N35      1.0000 0.46640  0.62940  0.69300  Biso   1.000  N
  N36      1.0000 0.53360  0.62940  0.80700  Biso   1.000  N
  N37      1.0000 0.03360  0.87060  0.30700  Biso   1.000  N
  N38      1.0000 0.96640  0.87060  0.19300  Biso   1.000  N
  N39      1.0000 0.53360  0.37060  0.30700  Biso   1.000  N
  N40      1.0000 0.46640  0.37060  0.19300  Biso   1.000  N
  C89      1.0000 0.92800  0.14980  0.58980  Biso   1.000  C
  C90      1.0000 0.07200  0.14980  0.91020  Biso   1.000  C
  C91      1.0000 0.42800  0.64980  0.58980  Biso   1.000  C
  C92      1.0000 0.57200  0.64980  0.91020  Biso   1.000  C
  C93      1.0000 0.07200  0.85020  0.41020  Biso   1.000  C
  C94      1.0000 0.92800  0.85020  0.08980  Biso   1.000  C
  C95      1.0000 0.57200  0.35020  0.41020  Biso   1.000  C
  C96      1.0000 0.42800  0.35020  0.08980  Biso   1.000  C
  H65      1.0000 0.94220  0.20510  0.57660  Biso   1.000  H
  H66      1.0000 0.05780  0.20510  0.92340  Biso   1.000  H
  H67      1.0000 0.44220  0.70510  0.57660  Biso   1.000  H
  H68      1.0000 0.55780  0.70510  0.92340  Biso   1.000  H
  H69      1.0000 0.05780  0.79490  0.42340  Biso   1.000  H
  H70      1.0000 0.94220  0.79490  0.07660  Biso   1.000  H
  H71      1.0000 0.55780  0.29490  0.42340  Biso   1.000  H
  H72      1.0000 0.44220  0.29490  0.07660  Biso   1.000  H
  H73      1.0000 0.86550  0.14330  0.58000  Biso   1.000  H
  H74      1.0000 0.13450  0.14330  0.92000  Biso   1.000  H
  H75      1.0000 0.36550  0.64330  0.58000  Biso   1.000  H
  H76      1.0000 0.63450  0.64330  0.92000  Biso   1.000  H
  H77      1.0000 0.13450  0.85670  0.42000  Biso   1.000  H
  H78      1.0000 0.86550  0.85670  0.08000  Biso   1.000  H
  H79      1.0000 0.63450  0.35670  0.42000  Biso   1.000  H
  H80      1.0000 0.36550  0.35670  0.08000  Biso   1.000  H
  H81      1.0000 0.95220  0.11460  0.54520  Biso   1.000  H
  H82      1.0000 0.04780  0.11460  0.95480  Biso   1.000  H
  H83      1.0000 0.45220  0.61460  0.54520  Biso   1.000  H
  H84      1.0000 0.54780  0.61460  0.95480  Biso   1.000  H
  H85      1.0000 0.04780  0.88540  0.45480  Biso   1.000  H
  H86      1.0000 0.95220  0.88540  0.04520  Biso   1.000  H
  H87      1.0000 0.54780  0.38540  0.45480  Biso   1.000  H
  H88      1.0000 0.45220  0.38540  0.04520  Biso   1.000  H
