data_image0
_cell_length_a       9.8829
_cell_length_b       12.3839
_cell_length_c       12.6176
_cell_angle_alpha    92.258
_cell_angle_beta     98.381
_cell_angle_gamma    101.642

_symmetry_space_group_name_H-M    "P 1"
_symmetry_int_tables_number       1

loop_
  _symmetry_equiv_pos_as_xyz
  'x, y, z'

loop_
  _atom_site_label
  _atom_site_occupancy
  _atom_site_fract_x
  _atom_site_fract_y
  _atom_site_fract_z
  _atom_site_thermal_displace_type
  _atom_site_B_iso_or_equiv
  _atom_site_type_symbol
  Cu1      1.0000 0.36181  0.72554  0.03790  Biso   1.000  Cu
  Cu2      1.0000 0.63819  0.27446  0.96210  Biso   1.000  Cu
  S1       1.0000 0.44644  0.88098  0.15444  Biso   1.000  S
  S2       1.0000 0.55356  0.11902  0.84556  Biso   1.000  S
  S3       1.0000 0.14360  0.62987  0.05283  Biso   1.000  S
  S4       1.0000 0.85640  0.37013  0.94717  Biso   1.000  S
  N1       1.0000 0.34866  0.04798  0.23017  Biso   1.000  N
  N2       1.0000 0.65134  0.95202  0.76983  Biso   1.000  N
  H1       1.0000 0.28740  0.06940  0.26580  Biso   1.000  H
  H2       1.0000 0.71260  0.93060  0.73420  Biso   1.000  H
  N3       1.0000 0.18286  0.89323  0.15670  Biso   1.000  N
  N4       1.0000 0.81714  0.10677  0.84330  Biso   1.000  N
  H3       1.0000 0.16960  0.82160  0.14130  Biso   1.000  H
  H4       1.0000 0.83040  0.17840  0.85870  Biso   1.000  H
  N5       1.0000 0.62807  0.22444  0.11630  Biso   1.000  N
  N6       1.0000 0.37193  0.77556  0.88370  Biso   1.000  N
  N7       1.0000 0.22570  0.43784  0.09612  Biso   1.000  N
  N8       1.0000 0.77430  0.56216  0.90388  Biso   1.000  N
  H5       1.0000 0.22580  0.38450  0.14020  Biso   1.000  H
  H6       1.0000 0.77420  0.61550  0.85980  Biso   1.000  H
  N9       1.0000 0.12377  0.50755  0.22308  Biso   1.000  N
  N10      1.0000 0.87623  0.49245  0.77692  Biso   1.000  N
  H7       1.0000 0.10690  0.43940  0.24300  Biso   1.000  H
  H8       1.0000 0.89310  0.56060  0.75700  Biso   1.000  H
  N11      1.0000 0.47292  0.35400  0.93915  Biso   1.000  N
  N12      1.0000 0.52708  0.64600  0.06085  Biso   1.000  N
  C1       1.0000 0.31654  0.94570  0.18067  Biso   1.000  C
  C2       1.0000 0.68346  0.05430  0.81933  Biso   1.000  C
  C3       1.0000 0.47735  0.12271  0.22728  Biso   1.000  C
  C4       1.0000 0.52265  0.87729  0.77272  Biso   1.000  C
  C5       1.0000 0.51212  0.15161  0.12801  Biso   1.000  C
  C6       1.0000 0.48788  0.84839  0.87199  Biso   1.000  C
  H9       1.0000 0.45050  0.11800  0.06520  Biso   1.000  H
  H10      1.0000 0.54950  0.88200  0.93480  Biso   1.000  H
  C7       1.0000 0.71456  0.27010  0.20584  Biso   1.000  C
  C8       1.0000 0.28544  0.72990  0.79416  Biso   1.000  C
  H11      1.0000 0.79830  0.32090  0.19910  Biso   1.000  H
  H12      1.0000 0.20170  0.67910  0.80090  Biso   1.000  H
  C9       1.0000 0.68660  0.24613  0.30751  Biso   1.000  C
  C10      1.0000 0.31340  0.75387  0.69249  Biso   1.000  C
  H13      1.0000 0.74980  0.28070  0.36910  Biso   1.000  H
  H14      1.0000 0.25020  0.71930  0.63090  Biso   1.000  H
  C11      1.0000 0.56580  0.17154  0.31901  Biso   1.000  C
  C12      1.0000 0.43420  0.82846  0.68099  Biso   1.000  C
  H15      1.0000 0.54430  0.15440  0.38820  Biso   1.000  H
  H16      1.0000 0.45570  0.84560  0.61180  Biso   1.000  H
  C13      1.0000 0.05823  0.93532  0.15222  Biso   1.000  C
  C14      1.0000 0.94177  0.06468  0.84778  Biso   1.000  C
  C15      1.0000 0.93775  0.86067  0.16588  Biso   1.000  C
  C16      1.0000 0.06225  0.13933  0.83412  Biso   1.000  C
  H17      1.0000 0.94230  0.78750  0.18360  Biso   1.000  H
  H18      1.0000 0.05770  0.21250  0.81640  Biso   1.000  H
  C17      1.0000 0.81050  0.89391  0.15340  Biso   1.000  C
  C18      1.0000 0.18950  0.10609  0.84660  Biso   1.000  C
  H19      1.0000 0.72760  0.84270  0.16120  Biso   1.000  H
  H20      1.0000 0.27240  0.15730  0.83880  Biso   1.000  H
  C19      1.0000 0.80350  0.00113  0.12967  Biso   1.000  C
  C20      1.0000 0.19650  0.99887  0.87033  Biso   1.000  C
  H21      1.0000 0.71660  0.02380  0.12250  Biso   1.000  H
  H22      1.0000 0.28340  0.97620  0.87750  Biso   1.000  H
  C21      1.0000 0.92412  0.07481  0.11651  Biso   1.000  C
  C22      1.0000 0.07588  0.92519  0.88349  Biso   1.000  C
  H23      1.0000 0.91970  0.14850  0.10080  Biso   1.000  H
  H24      1.0000 0.08030  0.85150  0.89920  Biso   1.000  H
  C23      1.0000 0.05179  0.04231  0.12594  Biso   1.000  C
  C24      1.0000 0.94821  0.95769  0.87406  Biso   1.000  C
  H25      1.0000 0.13370  0.09270  0.11450  Biso   1.000  H
  H26      1.0000 0.86630  0.90730  0.88550  Biso   1.000  H
  C25      1.0000 0.16765  0.52096  0.12754  Biso   1.000  C
  C26      1.0000 0.83235  0.47904  0.87246  Biso   1.000  C
  C27      1.0000 0.28621  0.42318  0.00342  Biso   1.000  C
  C28      1.0000 0.71379  0.57682  0.99658  Biso   1.000  C
  C29      1.0000 0.40226  0.37399  0.01837  Biso   1.000  C
  C30      1.0000 0.59774  0.62601  0.98163  Biso   1.000  C
  H27      1.0000 0.43280  0.35360  0.08820  Biso   1.000  H
  H28      1.0000 0.56720  0.64640  0.91180  Biso   1.000  H
  C31      1.0000 0.42840  0.38385  0.84100  Biso   1.000  C
  C32      1.0000 0.57160  0.61615  0.15900  Biso   1.000  C
  H29      1.0000 0.47880  0.37260  0.78430  Biso   1.000  H
  H30      1.0000 0.52120  0.62740  0.21570  Biso   1.000  H
  C33      1.0000 0.31226  0.43025  0.81925  Biso   1.000  C
  C34      1.0000 0.68774  0.56975  0.18075  Biso   1.000  C
  H31      1.0000 0.28320  0.44880  0.74840  Biso   1.000  H
  H32      1.0000 0.71680  0.55120  0.25160  Biso   1.000  H
  C35      1.0000 0.23800  0.44979  0.90087  Biso   1.000  C
  C36      1.0000 0.76200  0.55021  0.09913  Biso   1.000  C
  H33      1.0000 0.15690  0.48030  0.88700  Biso   1.000  H
  H34      1.0000 0.84310  0.51970  0.11300  Biso   1.000  H
  C37      1.0000 0.10137  0.59066  0.29579  Biso   1.000  C
  C38      1.0000 0.89863  0.40934  0.70421  Biso   1.000  C
  C39      1.0000 0.19190  0.69335  0.31516  Biso   1.000  C
  C40      1.0000 0.80810  0.30665  0.68484  Biso   1.000  C
  H35      1.0000 0.26850  0.71150  0.27700  Biso   1.000  H
  H36      1.0000 0.73150  0.28850  0.72300  Biso   1.000  H
  C41      1.0000 0.16890  0.76922  0.39125  Biso   1.000  C
  C42      1.0000 0.83110  0.23078  0.60875  Biso   1.000  C
  H37      1.0000 0.22870  0.84040  0.40350  Biso   1.000  H
  H38      1.0000 0.77130  0.15960  0.59650  Biso   1.000  H
  C43      1.0000 0.05920  0.74212  0.44956  Biso   1.000  C
  C44      1.0000 0.94080  0.25788  0.55044  Biso   1.000  C
  H39      1.0000 0.04360  0.79480  0.50070  Biso   1.000  H
  H40      1.0000 0.95640  0.20520  0.49930  Biso   1.000  H
  C45      1.0000 0.97320  0.63829  0.43273  Biso   1.000  C
  C46      1.0000 0.02680  0.36171  0.56727  Biso   1.000  C
  H41      1.0000 0.89960  0.61880  0.47370  Biso   1.000  H
  H42      1.0000 0.10040  0.38120  0.52630  Biso   1.000  H
  C47      1.0000 0.99390  0.56222  0.35611  Biso   1.000  C
  C48      1.0000 0.00610  0.43778  0.64389  Biso   1.000  C
  H43      1.0000 0.93470  0.49080  0.34490  Biso   1.000  H
  H44      1.0000 0.06530  0.50920  0.65510  Biso   1.000  H
  O1       1.0000 0.25875  0.27272  0.23810  Biso   1.000  O
  O2       1.0000 0.74125  0.72728  0.76190  Biso   1.000  O
  O3       1.0000 0.09030  0.30434  0.32060  Biso   1.000  O
  O4       1.0000 0.90970  0.69566  0.67940  Biso   1.000  O
  O5       1.0000 0.17843  0.15949  0.35133  Biso   1.000  O
  O6       1.0000 0.82157  0.84051  0.64867  Biso   1.000  O
  N13      1.0000 0.17642  0.24574  0.30457  Biso   1.000  N
  N14      1.0000 0.82358  0.75426  0.69543  Biso   1.000  N
