data_image0
_cell_length_a       7.089
_cell_length_b       12.139
_cell_length_c       16.79
_cell_angle_alpha    72.45
_cell_angle_beta     80.504
_cell_angle_gamma    82.27

_symmetry_space_group_name_H-M    "P 1"
_symmetry_int_tables_number       1

loop_
  _symmetry_equiv_pos_as_xyz
  'x, y, z'

loop_
  _atom_site_label
  _atom_site_occupancy
  _atom_site_fract_x
  _atom_site_fract_y
  _atom_site_fract_z
  _atom_site_thermal_displace_type
  _atom_site_B_iso_or_equiv
  _atom_site_type_symbol
  C1       1.0000 0.91620  0.93090  0.32020  Biso   1.000  C
  C2       1.0000 0.08380  0.06910  0.67980  Biso   1.000  C
  H1       1.0000 0.96890  0.87960  0.28930  Biso   1.000  H
  H2       1.0000 0.03110  0.12040  0.71070  Biso   1.000  H
  C3       1.0000 0.87840  0.04420  0.27730  Biso   1.000  C
  C4       1.0000 0.12160  0.95580  0.72270  Biso   1.000  C
  H3       1.0000 0.90540  0.06940  0.21890  Biso   1.000  H
  H4       1.0000 0.09460  0.93060  0.78110  Biso   1.000  H
  C5       1.0000 0.79790  0.12220  0.32300  Biso   1.000  C
  C6       1.0000 0.20210  0.87780  0.67700  Biso   1.000  C
  H5       1.0000 0.77240  0.20050  0.29560  Biso   1.000  H
  H6       1.0000 0.22760  0.79950  0.70440  Biso   1.000  H
  C7       1.0000 0.75720  0.08100  0.40930  Biso   1.000  C
  C8       1.0000 0.24280  0.91900  0.59070  Biso   1.000  C
  H7       1.0000 0.70090  0.13090  0.44080  Biso   1.000  H
  H8       1.0000 0.29910  0.86910  0.55920  Biso   1.000  H
  C9       1.0000 0.80210  0.96190  0.44960  Biso   1.000  C
  C10      1.0000 0.19790  0.03810  0.55040  Biso   1.000  C
  C11      1.0000 0.76150  0.91110  0.54240  Biso   1.000  C
  C12      1.0000 0.23850  0.08890  0.45760  Biso   1.000  C
  C13      1.0000 0.71030  0.98190  0.59650  Biso   1.000  C
  C14      1.0000 0.28970  0.01810  0.40350  Biso   1.000  C
  H9       1.0000 0.70170  0.06210  0.57410  Biso   1.000  H
  H10      1.0000 0.29830  0.93790  0.42590  Biso   1.000  H
  C15      1.0000 0.67230  0.93330  0.68330  Biso   1.000  C
  C16      1.0000 0.32770  0.06670  0.31670  Biso   1.000  C
  C17      1.0000 0.60810  0.00560  0.74110  Biso   1.000  C
  C18      1.0000 0.39190  0.99440  0.25890  Biso   1.000  C
  C19      1.0000 0.50630  0.11370  0.71340  Biso   1.000  C
  C20      1.0000 0.49370  0.88630  0.28660  Biso   1.000  C
  H11      1.0000 0.48110  0.14060  0.65780  Biso   1.000  H
  H12      1.0000 0.51890  0.85940  0.34220  Biso   1.000  H
  C21      1.0000 0.44200  0.18190  0.76760  Biso   1.000  C
  C22      1.0000 0.55800  0.81810  0.23240  Biso   1.000  C
  H13      1.0000 0.37560  0.25390  0.74730  Biso   1.000  H
  H14      1.0000 0.62440  0.74610  0.25270  Biso   1.000  H
  C23      1.0000 0.47450  0.14500  0.85050  Biso   1.000  C
  C24      1.0000 0.52550  0.85500  0.14950  Biso   1.000  C
  C25      1.0000 0.39840  0.22100  0.90920  Biso   1.000  C
  C26      1.0000 0.60160  0.77900  0.09080  Biso   1.000  C
  H15      1.0000 0.30890  0.18060  0.95450  Biso   1.000  H
  H16      1.0000 0.69110  0.81940  0.04550  Biso   1.000  H
  H17      1.0000 0.33530  0.29220  0.87800  Biso   1.000  H
  H18      1.0000 0.66470  0.70780  0.12200  Biso   1.000  H
  H19      1.0000 0.50360  0.23780  0.93180  Biso   1.000  H
  H20      1.0000 0.49640  0.76220  0.06820  Biso   1.000  H
  C27      1.0000 0.57990  0.03910  0.87780  Biso   1.000  C
  C28      1.0000 0.42010  0.96090  0.12220  Biso   1.000  C
  H21      1.0000 0.60900  0.01440  0.93280  Biso   1.000  H
  H22      1.0000 0.39100  0.98560  0.06720  Biso   1.000  H
  C29      1.0000 0.64300  0.96900  0.82520  Biso   1.000  C
  C30      1.0000 0.35700  0.03100  0.17480  Biso   1.000  C
  H23      1.0000 0.70910  0.89700  0.84600  Biso   1.000  H
  H24      1.0000 0.29090  0.10300  0.15400  Biso   1.000  H
  C31      1.0000 0.69380  0.81050  0.71250  Biso   1.000  C
  C32      1.0000 0.30620  0.18950  0.28750  Biso   1.000  C
  H25      1.0000 0.67080  0.77340  0.76990  Biso   1.000  H
  H26      1.0000 0.32920  0.22660  0.23010  Biso   1.000  H
  C33      1.0000 0.74950  0.74490  0.65570  Biso   1.000  C
  C34      1.0000 0.25050  0.25510  0.34430  Biso   1.000  C
  C35      1.0000 0.76910  0.61620  0.68810  Biso   1.000  C
  C36      1.0000 0.23090  0.38380  0.31190  Biso   1.000  C
  C37      1.0000 0.83130  0.56000  0.76530  Biso   1.000  C
  C38      1.0000 0.16870  0.44000  0.23470  Biso   1.000  C
  H27      1.0000 0.86920  0.60270  0.79660  Biso   1.000  H
  H28      1.0000 0.13080  0.39730  0.20340  Biso   1.000  H
  C39      1.0000 0.83720  0.44060  0.79580  Biso   1.000  C
  C40      1.0000 0.16280  0.55940  0.20420  Biso   1.000  C
  H29      1.0000 0.87800  0.40240  0.84780  Biso   1.000  H
  H30      1.0000 0.12200  0.59760  0.15220  Biso   1.000  H
  C41      1.0000 0.78220  0.37940  0.74840  Biso   1.000  C
  C42      1.0000 0.21780  0.62060  0.25160  Biso   1.000  C
  H31      1.0000 0.78380  0.29910  0.76810  Biso   1.000  H
  H32      1.0000 0.21620  0.70090  0.23190  Biso   1.000  H
  C43      1.0000 0.72460  0.43810  0.67130  Biso   1.000  C
  C44      1.0000 0.27540  0.56190  0.32870  Biso   1.000  C
  H33      1.0000 0.69000  0.39580  0.63890  Biso   1.000  H
  H34      1.0000 0.31000  0.60420  0.36110  Biso   1.000  H
  Cu1      1.0000 0.00000  0.00000  0.00000  Biso   1.000  Cu
  Cu2      1.0000 0.00000  0.50000  0.00000  Biso   1.000  Cu
  Cu3      1.0000 0.63615  0.32915  0.08344  Biso   1.000  Cu
  Cu4      1.0000 0.36385  0.67085  0.91656  Biso   1.000  Cu
  Cu5      1.0000 0.73961  0.49464  0.30686  Biso   1.000  Cu
  Cu6      1.0000 0.26039  0.50536  0.69314  Biso   1.000  Cu
  Cu7      1.0000 0.93200  0.71624  0.47377  Biso   1.000  Cu
  Cu8      1.0000 0.06800  0.28376  0.52623  Biso   1.000  Cu
  Cu9      1.0000 0.60688  0.63795  0.53410  Biso   1.000  Cu
  Cu10     1.0000 0.39312  0.36205  0.46590  Biso   1.000  Cu
  N1       1.0000 0.87930  0.13110  0.02820  Biso   1.000  N
  N2       1.0000 0.12070  0.86890  0.97180  Biso   1.000  N
  C45      1.0000 0.79480  0.21190  0.04500  Biso   1.000  C
  C46      1.0000 0.20520  0.78810  0.95500  Biso   1.000  C
  C47      1.0000 0.23100  0.42260  0.03190  Biso   1.000  C
  C48      1.0000 0.76900  0.57740  0.96810  Biso   1.000  C
  N3       1.0000 0.37520  0.37980  0.05120  Biso   1.000  N
  N4       1.0000 0.62480  0.62020  0.94880  Biso   1.000  N
  N5       1.0000 0.68080  0.39290  0.17240  Biso   1.000  N
  N6       1.0000 0.31920  0.60710  0.82760  Biso   1.000  N
  C49      1.0000 0.70070  0.43130  0.22510  Biso   1.000  C
  C50      1.0000 0.29930  0.56870  0.77490  Biso   1.000  C
  N7       1.0000 0.78610  0.57360  0.37880  Biso   1.000  N
  N8       1.0000 0.21390  0.42640  0.62120  Biso   1.000  N
  C51      1.0000 0.81430  0.62100  0.42540  Biso   1.000  C
  C52      1.0000 0.18570  0.37900  0.57460  Biso   1.000  C
  N9       1.0000 0.20040  0.69310  0.49430  Biso   1.000  N
  N10      1.0000 0.79960  0.30690  0.50570  Biso   1.000  N
  C53      1.0000 0.35280  0.67810  0.50760  Biso   1.000  C
  C54      1.0000 0.64720  0.32190  0.49240  Biso   1.000  C
  N11      1.0000 0.71620  0.55610  0.64050  Biso   1.000  N
  N12      1.0000 0.28380  0.44390  0.35950  Biso   1.000  N
  N13      1.0000 0.78040  0.79390  0.57130  Biso   1.000  N
  N14      1.0000 0.21960  0.20610  0.42870  Biso   1.000  N
  N15      1.0000 0.88200  0.88840  0.40460  Biso   1.000  N
  N16      1.0000 0.11800  0.11160  0.59540  Biso   1.000  N
