data_image0
_cell_length_a       10.586
_cell_length_b       13.259
_cell_length_c       17.18
_cell_angle_alpha    90
_cell_angle_beta     113.73
_cell_angle_gamma    90

_symmetry_space_group_name_H-M    "P 1"
_symmetry_int_tables_number       1

loop_
  _symmetry_equiv_pos_as_xyz
  'x, y, z'

loop_
  _atom_site_label
  _atom_site_occupancy
  _atom_site_fract_x
  _atom_site_fract_y
  _atom_site_fract_z
  _atom_site_thermal_displace_type
  _atom_site_B_iso_or_equiv
  _atom_site_type_symbol
  Cu1      1.0000 0.67910  0.64619  0.24747  Biso   1.000  Cu
  Cu2      1.0000 0.32090  0.14619  0.25253  Biso   1.000  Cu
  Cu3      1.0000 0.32090  0.35381  0.75253  Biso   1.000  Cu
  Cu4      1.0000 0.67910  0.85381  0.74747  Biso   1.000  Cu
  Cu5      1.0000 0.94098  0.62282  0.36623  Biso   1.000  Cu
  Cu6      1.0000 0.05902  0.12282  0.13377  Biso   1.000  Cu
  Cu7      1.0000 0.05902  0.37718  0.63377  Biso   1.000  Cu
  Cu8      1.0000 0.94098  0.87718  0.86623  Biso   1.000  Cu
  Cu9      1.0000 0.25220  0.50408  0.24527  Biso   1.000  Cu
  Cu10     1.0000 0.74780  0.00408  0.25473  Biso   1.000  Cu
  Cu11     1.0000 0.74780  0.49592  0.75473  Biso   1.000  Cu
  Cu12     1.0000 0.25220  0.99592  0.74527  Biso   1.000  Cu
  N1       1.0000 0.74930  0.51500  0.21680  Biso   1.000  N
  N2       1.0000 0.25070  0.01500  0.28320  Biso   1.000  N
  N3       1.0000 0.25070  0.48500  0.78320  Biso   1.000  N
  N4       1.0000 0.74930  0.98500  0.71680  Biso   1.000  N
  N5       1.0000 0.80000  0.52440  0.38420  Biso   1.000  N
  N6       1.0000 0.20000  0.02440  0.11580  Biso   1.000  N
  N7       1.0000 0.20000  0.47560  0.61580  Biso   1.000  N
  N8       1.0000 0.80000  0.97560  0.88420  Biso   1.000  N
  N9       1.0000 0.93750  0.68160  0.47040  Biso   1.000  N
  N10      1.0000 0.06250  0.18160  0.02960  Biso   1.000  N
  N11      1.0000 0.06250  0.31840  0.52960  Biso   1.000  N
  N12      1.0000 0.93750  0.81840  0.97040  Biso   1.000  N
  N13      1.0000 0.12130  0.56360  0.28120  Biso   1.000  N
  N14      1.0000 0.87870  0.06360  0.21880  Biso   1.000  N
  N15      1.0000 0.87870  0.43640  0.71880  Biso   1.000  N
  N16      1.0000 0.12130  0.93640  0.78120  Biso   1.000  N
  N17      1.0000 0.49830  0.60420  0.23680  Biso   1.000  N
  N18      1.0000 0.50170  0.10420  0.26320  Biso   1.000  N
  N19      1.0000 0.50170  0.39580  0.76320  Biso   1.000  N
  N20      1.0000 0.49830  0.89580  0.73680  Biso   1.000  N
  N21      1.0000 0.77300  0.85970  0.26610  Biso   1.000  N
  N22      1.0000 0.22700  0.35970  0.23390  Biso   1.000  N
  N23      1.0000 0.22700  0.14030  0.73390  Biso   1.000  N
  N24      1.0000 0.77300  0.64030  0.76610  Biso   1.000  N
  C1       1.0000 0.38060  0.11650  0.57680  Biso   1.000  C
  C2       1.0000 0.61940  0.61650  0.92320  Biso   1.000  C
  C3       1.0000 0.61940  0.88350  0.42320  Biso   1.000  C
  C4       1.0000 0.38060  0.38350  0.07680  Biso   1.000  C
  H1       1.0000 0.44230  0.06210  0.60420  Biso   1.000  H
  H2       1.0000 0.55770  0.56210  0.89580  Biso   1.000  H
  H3       1.0000 0.55770  0.93790  0.39580  Biso   1.000  H
  H4       1.0000 0.44230  0.43790  0.10420  Biso   1.000  H
  H5       1.0000 0.29910  0.09020  0.53230  Biso   1.000  H
  H6       1.0000 0.70090  0.59020  0.96770  Biso   1.000  H
  H7       1.0000 0.70090  0.90980  0.46770  Biso   1.000  H
  H8       1.0000 0.29910  0.40980  0.03230  Biso   1.000  H
  H9       1.0000 0.35570  0.15110  0.61770  Biso   1.000  H
  H10      1.0000 0.64430  0.65110  0.88230  Biso   1.000  H
  H11      1.0000 0.64430  0.84890  0.38230  Biso   1.000  H
  H12      1.0000 0.35570  0.34890  0.11770  Biso   1.000  H
  C5       1.0000 0.44990  0.18820  0.54020  Biso   1.000  C
  C6       1.0000 0.55010  0.68820  0.95980  Biso   1.000  C
  C7       1.0000 0.55010  0.81180  0.45980  Biso   1.000  C
  C8       1.0000 0.44990  0.31180  0.04020  Biso   1.000  C
  C9       1.0000 0.49370  0.15840  0.47910  Biso   1.000  C
  C10      1.0000 0.50630  0.65840  0.02090  Biso   1.000  C
  C11      1.0000 0.50630  0.84160  0.52090  Biso   1.000  C
  C12      1.0000 0.49370  0.34160  0.97910  Biso   1.000  C
  H13      1.0000 0.47750  0.09270  0.45840  Biso   1.000  H
  H14      1.0000 0.52250  0.59270  0.04160  Biso   1.000  H
  H15      1.0000 0.52250  0.90730  0.54160  Biso   1.000  H
  H16      1.0000 0.47750  0.40730  0.95840  Biso   1.000  H
  C13      1.0000 0.56060  0.22410  0.44830  Biso   1.000  C
  C14      1.0000 0.43940  0.72410  0.05170  Biso   1.000  C
  C15      1.0000 0.43940  0.77590  0.55170  Biso   1.000  C
  C16      1.0000 0.56060  0.27590  0.94830  Biso   1.000  C
  H17      1.0000 0.59100  0.20220  0.40740  Biso   1.000  H
  H18      1.0000 0.40900  0.70220  0.09260  Biso   1.000  H
  H19      1.0000 0.40900  0.79780  0.59260  Biso   1.000  H
  H20      1.0000 0.59100  0.29780  0.90740  Biso   1.000  H
  C17      1.0000 0.58490  0.32390  0.47670  Biso   1.000  C
  C18      1.0000 0.41510  0.82390  0.02330  Biso   1.000  C
  C19      1.0000 0.41510  0.67610  0.52330  Biso   1.000  C
  C20      1.0000 0.58490  0.17610  0.97670  Biso   1.000  C
  C21      1.0000 0.53920  0.35050  0.53770  Biso   1.000  C
  C22      1.0000 0.46080  0.85050  0.96230  Biso   1.000  C
  C23      1.0000 0.46080  0.64950  0.46230  Biso   1.000  C
  C24      1.0000 0.53920  0.14950  0.03770  Biso   1.000  C
  H21      1.0000 0.55440  0.41600  0.55880  Biso   1.000  H
  H22      1.0000 0.44560  0.91600  0.94120  Biso   1.000  H
  H23      1.0000 0.44560  0.58400  0.44120  Biso   1.000  H
  H24      1.0000 0.55440  0.08400  0.05880  Biso   1.000  H
  C25      1.0000 0.47330  0.28580  0.56820  Biso   1.000  C
  C26      1.0000 0.52670  0.78580  0.93180  Biso   1.000  C
  C27      1.0000 0.52670  0.71420  0.43180  Biso   1.000  C
  C28      1.0000 0.47330  0.21420  0.06820  Biso   1.000  C
  H25      1.0000 0.44290  0.30750  0.60920  Biso   1.000  H
  H26      1.0000 0.55710  0.80750  0.89080  Biso   1.000  H
  H27      1.0000 0.55710  0.69250  0.39080  Biso   1.000  H
  H28      1.0000 0.44290  0.19250  0.10920  Biso   1.000  H
  C29      1.0000 0.65780  0.39180  0.44340  Biso   1.000  C
  C30      1.0000 0.34220  0.89180  0.05660  Biso   1.000  C
  C31      1.0000 0.34220  0.60820  0.55660  Biso   1.000  C
  C32      1.0000 0.65780  0.10820  0.94340  Biso   1.000  C
  C33      1.0000 0.66440  0.37860  0.36600  Biso   1.000  C
  C34      1.0000 0.33560  0.87860  0.13400  Biso   1.000  C
  C35      1.0000 0.33560  0.62140  0.63400  Biso   1.000  C
  C36      1.0000 0.66440  0.12140  0.86600  Biso   1.000  C
  H29      1.0000 0.61860  0.32460  0.33170  Biso   1.000  H
  H30      1.0000 0.38140  0.82460  0.16830  Biso   1.000  H
  H31      1.0000 0.38140  0.67540  0.66830  Biso   1.000  H
  H32      1.0000 0.61860  0.17540  0.83170  Biso   1.000  H
  C37      1.0000 0.73650  0.44310  0.33930  Biso   1.000  C
  C38      1.0000 0.26350  0.94310  0.16070  Biso   1.000  C
  C39      1.0000 0.26350  0.55690  0.66070  Biso   1.000  C
  C40      1.0000 0.73650  0.05690  0.83930  Biso   1.000  C
  C41      1.0000 0.79390  0.53870  0.45880  Biso   1.000  C
  C42      1.0000 0.20610  0.03870  0.04120  Biso   1.000  C
  C43      1.0000 0.20610  0.46130  0.54120  Biso   1.000  C
  C44      1.0000 0.79390  0.96130  0.95880  Biso   1.000  C
  C45      1.0000 0.72570  0.47510  0.48960  Biso   1.000  C
  C46      1.0000 0.27430  0.97510  0.01040  Biso   1.000  C
  C47      1.0000 0.27430  0.52490  0.51040  Biso   1.000  C
  C48      1.0000 0.72570  0.02490  0.98960  Biso   1.000  C
  H33      1.0000 0.72440  0.48740  0.54260  Biso   1.000  H
  H34      1.0000 0.27560  0.98740  0.95740  Biso   1.000  H
  H35      1.0000 0.27560  0.51260  0.45740  Biso   1.000  H
  H36      1.0000 0.72440  0.01260  0.04260  Biso   1.000  H
  C49      1.0000 0.86590  0.62930  0.50530  Biso   1.000  C
  C50      1.0000 0.13410  0.12930  0.99470  Biso   1.000  C
  C51      1.0000 0.13410  0.37070  0.49470  Biso   1.000  C
  C52      1.0000 0.86590  0.87070  0.00530  Biso   1.000  C
  C53      1.0000 0.86370  0.66100  0.58120  Biso   1.000  C
  C54      1.0000 0.13630  0.16100  0.91880  Biso   1.000  C
  C55      1.0000 0.13630  0.33900  0.41880  Biso   1.000  C
  C56      1.0000 0.86370  0.83900  0.08120  Biso   1.000  C
  H37      1.0000 0.81560  0.62410  0.60640  Biso   1.000  H
  H38      1.0000 0.18440  0.12410  0.89360  Biso   1.000  H
  H39      1.0000 0.18440  0.37590  0.39360  Biso   1.000  H
  H40      1.0000 0.81560  0.87590  0.10640  Biso   1.000  H
  C57      1.0000 0.93190  0.74600  0.61890  Biso   1.000  C
  C58      1.0000 0.06810  0.24600  0.88110  Biso   1.000  C
  C59      1.0000 0.06810  0.25400  0.38110  Biso   1.000  C
  C60      1.0000 0.93190  0.75400  0.11890  Biso   1.000  C
  H41      1.0000 0.92950  0.76820  0.66960  Biso   1.000  H
  H42      1.0000 0.07050  0.26820  0.83040  Biso   1.000  H
  H43      1.0000 0.07050  0.23180  0.33040  Biso   1.000  H
  H44      1.0000 0.92950  0.73180  0.16960  Biso   1.000  H
  C61      1.0000 0.00260  0.79810  0.58330  Biso   1.000  C
  C62      1.0000 0.99740  0.29810  0.91670  Biso   1.000  C
  C63      1.0000 0.99740  0.20190  0.41670  Biso   1.000  C
  C64      1.0000 0.00260  0.70190  0.08330  Biso   1.000  C
  H45      1.0000 0.05060  0.85610  0.60890  Biso   1.000  H
  H46      1.0000 0.94940  0.35610  0.89110  Biso   1.000  H
  H47      1.0000 0.94940  0.14390  0.39110  Biso   1.000  H
  H48      1.0000 0.05060  0.64390  0.10890  Biso   1.000  H
  C65      1.0000 0.00260  0.76410  0.50880  Biso   1.000  C
  C66      1.0000 0.99740  0.26410  0.99120  Biso   1.000  C
  C67      1.0000 0.99740  0.23590  0.49120  Biso   1.000  C
  C68      1.0000 0.00260  0.73590  0.00880  Biso   1.000  C
  H49      1.0000 0.05090  0.80080  0.48350  Biso   1.000  H
  H50      1.0000 0.94910  0.30080  0.01650  Biso   1.000  H
  H51      1.0000 0.94910  0.19920  0.51650  Biso   1.000  H
  H52      1.0000 0.05090  0.69920  0.98350  Biso   1.000  H
  C69      1.0000 0.75090  0.43140  0.25830  Biso   1.000  C
  C70      1.0000 0.24910  0.93140  0.24170  Biso   1.000  C
  C71      1.0000 0.24910  0.56860  0.74170  Biso   1.000  C
  C72      1.0000 0.75090  0.06860  0.75830  Biso   1.000  C
  C73      1.0000 0.77210  0.33770  0.23140  Biso   1.000  C
  C74      1.0000 0.22790  0.83770  0.26860  Biso   1.000  C
  C75      1.0000 0.22790  0.66230  0.76860  Biso   1.000  C
  C76      1.0000 0.77210  0.16230  0.73140  Biso   1.000  C
  H53      1.0000 0.76900  0.27960  0.26090  Biso   1.000  H
  H54      1.0000 0.23100  0.77960  0.23910  Biso   1.000  H
  H55      1.0000 0.23100  0.72040  0.73910  Biso   1.000  H
  H56      1.0000 0.76900  0.22040  0.76090  Biso   1.000  H
  C77      1.0000 0.79760  0.33340  0.16010  Biso   1.000  C
  C78      1.0000 0.20240  0.83340  0.33990  Biso   1.000  C
  C79      1.0000 0.20240  0.66660  0.83990  Biso   1.000  C
  C80      1.0000 0.79760  0.16660  0.66010  Biso   1.000  C
  H57      1.0000 0.81090  0.27150  0.13900  Biso   1.000  H
  H58      1.0000 0.18910  0.77150  0.36100  Biso   1.000  H
  H59      1.0000 0.18910  0.72850  0.86100  Biso   1.000  H
  H60      1.0000 0.81090  0.22850  0.63900  Biso   1.000  H
  C81      1.0000 0.80350  0.41970  0.12030  Biso   1.000  C
  C82      1.0000 0.19650  0.91970  0.37970  Biso   1.000  C
  C83      1.0000 0.19650  0.58030  0.87970  Biso   1.000  C
  C84      1.0000 0.80350  0.08030  0.62030  Biso   1.000  C
  H61      1.0000 0.82550  0.41780  0.07300  Biso   1.000  H
  H62      1.0000 0.17450  0.91780  0.42700  Biso   1.000  H
  H63      1.0000 0.17450  0.58220  0.92700  Biso   1.000  H
  H64      1.0000 0.82550  0.08220  0.57300  Biso   1.000  H
  C85      1.0000 0.77770  0.50860  0.14880  Biso   1.000  C
  C86      1.0000 0.22230  0.00860  0.35120  Biso   1.000  C
  C87      1.0000 0.22230  0.49140  0.85120  Biso   1.000  C
  C88      1.0000 0.77770  0.99140  0.64880  Biso   1.000  C
  H65      1.0000 0.77980  0.56730  0.11980  Biso   1.000  H
  H66      1.0000 0.22020  0.06730  0.38020  Biso   1.000  H
  H67      1.0000 0.22020  0.43270  0.88020  Biso   1.000  H
  H68      1.0000 0.77980  0.93270  0.61980  Biso   1.000  H
  C89      1.0000 0.05290  0.59260  0.31230  Biso   1.000  C
  C90      1.0000 0.94710  0.09260  0.18770  Biso   1.000  C
  C91      1.0000 0.94710  0.40740  0.68770  Biso   1.000  C
  C92      1.0000 0.05290  0.90740  0.81230  Biso   1.000  C
  C93      1.0000 0.40090  0.56780  0.23580  Biso   1.000  C
  C94      1.0000 0.59910  0.06780  0.26420  Biso   1.000  C
  C95      1.0000 0.59910  0.43220  0.76420  Biso   1.000  C
  C96      1.0000 0.40090  0.93220  0.73580  Biso   1.000  C
  C97      1.0000 0.75100  0.77780  0.26360  Biso   1.000  C
  C98      1.0000 0.24900  0.27780  0.23640  Biso   1.000  C
  C99      1.0000 0.24900  0.22220  0.73640  Biso   1.000  C
  C100     1.0000 0.75100  0.72220  0.76360  Biso   1.000  C
