data_image0
_cell_length_a       10.0978
_cell_length_b       10.6786
_cell_length_c       12.6194
_cell_angle_alpha    66.095
_cell_angle_beta     75.471
_cell_angle_gamma    65.381

_symmetry_space_group_name_H-M    "P 1"
_symmetry_int_tables_number       1

loop_
  _symmetry_equiv_pos_as_xyz
  'x, y, z'

loop_
  _atom_site_label
  _atom_site_occupancy
  _atom_site_fract_x
  _atom_site_fract_y
  _atom_site_fract_z
  _atom_site_thermal_displace_type
  _atom_site_B_iso_or_equiv
  _atom_site_type_symbol
  C1       1.0000 0.10170  0.07840  0.77130  Biso   1.000  C
  C2       1.0000 0.89830  0.92160  0.22870  Biso   1.000  C
  H1       1.0000 0.05540  0.13480  0.70330  Biso   1.000  H
  H2       1.0000 0.94460  0.86520  0.29670  Biso   1.000  H
  C3       1.0000 0.23670  0.88870  0.90250  Biso   1.000  C
  C4       1.0000 0.76330  0.11130  0.09750  Biso   1.000  C
  C5       1.0000 0.32560  0.75170  0.97040  Biso   1.000  C
  C6       1.0000 0.67440  0.24830  0.02960  Biso   1.000  C
  H3       1.0000 0.37130  0.67320  0.94320  Biso   1.000  H
  H4       1.0000 0.62870  0.32680  0.05680  Biso   1.000  H
  C7       1.0000 0.34200  0.73950  0.08010  Biso   1.000  C
  C8       1.0000 0.65800  0.26050  0.91990  Biso   1.000  C
  H5       1.0000 0.39700  0.64910  0.12920  Biso   1.000  H
  H6       1.0000 0.60300  0.35090  0.87080  Biso   1.000  H
  C9       1.0000 0.27760  0.86020  0.11990  Biso   1.000  C
  C10      1.0000 0.72240  0.13980  0.88010  Biso   1.000  C
  C11      1.0000 0.19130  0.99520  0.05110  Biso   1.000  C
  C12      1.0000 0.80870  0.00480  0.94890  Biso   1.000  C
  H7       1.0000 0.14850  0.07460  0.07720  Biso   1.000  H
  H8       1.0000 0.85150  0.92540  0.92280  Biso   1.000  H
  C13      1.0000 0.17060  0.00860  0.94140  Biso   1.000  C
  C14      1.0000 0.82940  0.99140  0.05860  Biso   1.000  C
  C15      1.0000 0.30530  0.84140  0.23700  Biso   1.000  C
  C16      1.0000 0.69470  0.15860  0.76300  Biso   1.000  C
  C17      1.0000 0.01790  0.05820  0.50940  Biso   1.000  C
  C18      1.0000 0.98210  0.94180  0.49060  Biso   1.000  C
  C19      1.0000 0.50100  0.95380  0.56540  Biso   1.000  C
  C20      1.0000 0.49900  0.04620  0.43460  Biso   1.000  C
  C21      1.0000 0.74230  0.37550  0.31050  Biso   1.000  C
  C22      1.0000 0.25770  0.62450  0.68950  Biso   1.000  C
  C23      1.0000 0.75510  0.48050  0.18970  Biso   1.000  C
  C24      1.0000 0.24490  0.51950  0.81030  Biso   1.000  C
  C25      1.0000 0.82760  0.42540  0.09970  Biso   1.000  C
  C26      1.0000 0.17240  0.57460  0.90030  Biso   1.000  C
  H9       1.0000 0.87680  0.32540  0.11470  Biso   1.000  H
  H10      1.0000 0.12320  0.67460  0.88530  Biso   1.000  H
  C27      1.0000 0.82390  0.52460  0.98740  Biso   1.000  C
  C28      1.0000 0.17610  0.47540  0.01260  Biso   1.000  C
  C29      1.0000 0.84200  0.63540  0.79980  Biso   1.000  C
  C30      1.0000 0.15800  0.36460  0.20020  Biso   1.000  C
  H11      1.0000 0.86510  0.65320  0.72020  Biso   1.000  H
  H12      1.0000 0.13490  0.34680  0.27980  Biso   1.000  H
  C31      1.0000 0.75270  0.67540  0.96540  Biso   1.000  C
  C32      1.0000 0.24730  0.32460  0.03460  Biso   1.000  C
  C33      1.0000 0.68410  0.73120  0.05540  Biso   1.000  C
  C34      1.0000 0.31590  0.26880  0.94460  Biso   1.000  C
  H13      1.0000 0.63900  0.83160  0.04070  Biso   1.000  H
  H14      1.0000 0.36100  0.16840  0.95930  Biso   1.000  H
  C35      1.0000 0.68560  0.63280  0.16620  Biso   1.000  C
  C36      1.0000 0.31440  0.36720  0.83380  Biso   1.000  C
  H15      1.0000 0.63940  0.66730  0.22790  Biso   1.000  H
  H16      1.0000 0.36060  0.33270  0.77210  Biso   1.000  H
  Cu1      1.0000 0.97750  0.31976  0.85785  Biso   1.000  Cu
  Cu2      1.0000 0.02250  0.68024  0.14215  Biso   1.000  Cu
  N1       1.0000 0.08720  0.12820  0.85510  Biso   1.000  N
  N2       1.0000 0.91280  0.87180  0.14490  Biso   1.000  N
  N3       1.0000 0.19000  0.93840  0.79440  Biso   1.000  N
  N4       1.0000 0.81000  0.06160  0.20560  Biso   1.000  N
  H17      1.0000 0.21350  0.88800  0.74950  Biso   1.000  H
  H18      1.0000 0.78650  0.11200  0.25050  Biso   1.000  H
  N5       1.0000 0.87950  0.50170  0.88040  Biso   1.000  N
  N6       1.0000 0.12050  0.49830  0.11960  Biso   1.000  N
  N7       1.0000 0.76790  0.74050  0.84590  Biso   1.000  N
  N8       1.0000 0.23210  0.25950  0.15410  Biso   1.000  N
  H19      1.0000 0.73510  0.83300  0.80790  Biso   1.000  H
  H20      1.0000 0.26490  0.16700  0.19210  Biso   1.000  H
  Nd1      1.0000 0.33627  0.82367  0.46442  Biso   1.000  Nd
  Nd2      1.0000 0.66373  0.17633  0.53558  Biso   1.000  Nd
  O1       1.0000 0.29280  0.95320  0.25620  Biso   1.000  O
  O2       1.0000 0.70720  0.04680  0.74380  Biso   1.000  O
  O3       1.0000 0.34110  0.71780  0.31340  Biso   1.000  O
  O4       1.0000 0.65890  0.28220  0.68660  Biso   1.000  O
  O5       1.0000 0.14840  0.05150  0.48630  Biso   1.000  O
  O6       1.0000 0.85160  0.94850  0.51370  Biso   1.000  O
  O7       1.0000 0.91520  0.15130  0.54590  Biso   1.000  O
  O8       1.0000 0.08480  0.84870  0.45410  Biso   1.000  O
  O9       1.0000 0.59500  0.67040  0.44180  Biso   1.000  O
  O10      1.0000 0.40500  0.32960  0.55820  Biso   1.000  O
  H21      1.0000 0.65600  0.70200  0.44800  Biso   1.000  H
  H22      1.0000 0.34400  0.29800  0.55200  Biso   1.000  H
  H23      1.0000 0.64600  0.58700  0.43500  Biso   1.000  H
  H24      1.0000 0.35400  0.41300  0.56500  Biso   1.000  H
  O11      1.0000 0.45050  0.85230  0.59920  Biso   1.000  O
  O12      1.0000 0.54950  0.14770  0.40080  Biso   1.000  O
  O13      1.0000 0.79380  0.24030  0.32820  Biso   1.000  O
  O14      1.0000 0.20620  0.75970  0.67180  Biso   1.000  O
  O15      1.0000 0.67490  0.42220  0.39430  Biso   1.000  O
  O16      1.0000 0.32510  0.57780  0.60570  Biso   1.000  O
  O17      1.0000 0.88860  0.40260  0.64720  Biso   1.000  O
  O18      1.0000 0.11140  0.59740  0.35280  Biso   1.000  O
  H25      1.0000 0.85900  0.49600  0.61300  Biso   1.000  H
  H26      1.0000 0.14100  0.50400  0.38700  Biso   1.000  H
  H27      1.0000 0.80900  0.38400  0.66800  Biso   1.000  H
  H28      1.0000 0.19100  0.61600  0.33200  Biso   1.000  H
  O19      1.0000 0.84050  0.69430  0.49790  Biso   1.000  O
  O20      1.0000 0.15950  0.30570  0.50210  Biso   1.000  O
  H29      1.0000 0.81500  0.78300  0.49400  Biso   1.000  H
  H30      1.0000 0.18500  0.21700  0.50600  Biso   1.000  H
  H31      1.0000 0.90700  0.68400  0.44300  Biso   1.000  H
  H32      1.0000 0.09300  0.31600  0.55700  Biso   1.000  H
  O21      1.0000 0.55360  0.98440  0.62770  Biso   1.000  O
  O22      1.0000 0.44640  0.01560  0.37230  Biso   1.000  O
