data_image0
_cell_length_a       7.6327
_cell_length_b       12.4939
_cell_length_c       14.0087
_cell_angle_alpha    70.478
_cell_angle_beta     87.545
_cell_angle_gamma    81.2

_symmetry_space_group_name_H-M    "P 1"
_symmetry_int_tables_number       1

loop_
  _symmetry_equiv_pos_as_xyz
  'x, y, z'

loop_
  _atom_site_label
  _atom_site_occupancy
  _atom_site_fract_x
  _atom_site_fract_y
  _atom_site_fract_z
  _atom_site_thermal_displace_type
  _atom_site_B_iso_or_equiv
  _atom_site_type_symbol
  C1       1.0000 0.81060  0.53590  0.10670  Biso   1.000  C
  C2       1.0000 0.18940  0.46410  0.89330  Biso   1.000  C
  H1       1.0000 0.84450  0.58080  0.14190  Biso   1.000  H
  H2       1.0000 0.15550  0.41920  0.85810  Biso   1.000  H
  C3       1.0000 0.73350  0.48500  0.98150  Biso   1.000  C
  C4       1.0000 0.26650  0.51500  0.01850  Biso   1.000  C
  C5       1.0000 0.73360  0.39320  0.07260  Biso   1.000  C
  C6       1.0000 0.26640  0.60680  0.92740  Biso   1.000  C
  C7       1.0000 0.68200  0.29070  0.07200  Biso   1.000  C
  C8       1.0000 0.31800  0.70930  0.92800  Biso   1.000  C
  H3       1.0000 0.68110  0.22880  0.13160  Biso   1.000  H
  H4       1.0000 0.31890  0.77120  0.86840  Biso   1.000  H
  C9       1.0000 0.63180  0.28320  0.98020  Biso   1.000  C
  C10      1.0000 0.36820  0.71680  0.01980  Biso   1.000  C
  C11      1.0000 0.63610  0.37770  0.89040  Biso   1.000  C
  C12      1.0000 0.36390  0.62230  0.10960  Biso   1.000  C
  H5       1.0000 0.60400  0.37080  0.82970  Biso   1.000  H
  H6       1.0000 0.39600  0.62920  0.17030  Biso   1.000  H
  C13      1.0000 0.68550  0.47930  0.88880  Biso   1.000  C
  C14      1.0000 0.31450  0.52070  0.11120  Biso   1.000  C
  H7       1.0000 0.68680  0.54100  0.82910  Biso   1.000  H
  H8       1.0000 0.31320  0.45900  0.17090  Biso   1.000  H
  C15      1.0000 0.56320  0.17910  0.97420  Biso   1.000  C
  C16      1.0000 0.43680  0.82090  0.02580  Biso   1.000  C
  C17      1.0000 0.03130  0.02830  0.03630  Biso   1.000  C
  C18      1.0000 0.96870  0.97170  0.96370  Biso   1.000  C
  C19      1.0000 0.48910  0.93850  0.31450  Biso   1.000  C
  C20      1.0000 0.51090  0.06150  0.68550  Biso   1.000  C
  C21      1.0000 0.38010  0.95680  0.40000  Biso   1.000  C
  C22      1.0000 0.61990  0.04320  0.60000  Biso   1.000  C
  C23      1.0000 0.33080  0.86450  0.47730  Biso   1.000  C
  C24      1.0000 0.66920  0.13550  0.52270  Biso   1.000  C
  H9       1.0000 0.36300  0.79000  0.47630  Biso   1.000  H
  H10      1.0000 0.63700  0.21000  0.52370  Biso   1.000  H
  C25      1.0000 0.23250  0.88540  0.55610  Biso   1.000  C
  C26      1.0000 0.76750  0.11460  0.44390  Biso   1.000  C
  C27      1.0000 0.08210  0.87630  0.69140  Biso   1.000  C
  C28      1.0000 0.91790  0.12370  0.30860  Biso   1.000  C
  H11      1.0000 0.02590  0.84830  0.75310  Biso   1.000  H
  H12      1.0000 0.97410  0.15170  0.24690  Biso   1.000  H
  C29      1.0000 0.18130  0.99790  0.55600  Biso   1.000  C
  C30      1.0000 0.81870  0.00210  0.44400  Biso   1.000  C
  C31      1.0000 0.23100  0.09140  0.47930  Biso   1.000  C
  C32      1.0000 0.76900  0.90860  0.52070  Biso   1.000  C
  H13      1.0000 0.19740  0.16590  0.48000  Biso   1.000  H
  H14      1.0000 0.80260  0.83410  0.52000  Biso   1.000  H
  C33      1.0000 0.33150  0.06980  0.40230  Biso   1.000  C
  C34      1.0000 0.66850  0.93020  0.59770  Biso   1.000  C
  H15      1.0000 0.36840  0.13080  0.35060  Biso   1.000  H
  H16      1.0000 0.63160  0.86920  0.64940  Biso   1.000  H
  C35      1.0000 0.95300  0.73650  0.28290  Biso   1.000  C
  C36      1.0000 0.04700  0.26350  0.71710  Biso   1.000  C
  C37      1.0000 0.07290  0.64140  0.35650  Biso   1.000  C
  C38      1.0000 0.92710  0.35860  0.64350  Biso   1.000  C
  C39      1.0000 0.13340  0.54000  0.33410  Biso   1.000  C
  C40      1.0000 0.86660  0.46000  0.66590  Biso   1.000  C
  H17      1.0000 0.10280  0.53520  0.27230  Biso   1.000  H
  H18      1.0000 0.89720  0.46480  0.72770  Biso   1.000  H
  C41      1.0000 0.23650  0.44790  0.40160  Biso   1.000  C
  C42      1.0000 0.76350  0.55210  0.59840  Biso   1.000  C
  H19      1.0000 0.27850  0.38180  0.38600  Biso   1.000  H
  H20      1.0000 0.72150  0.61820  0.61400  Biso   1.000  H
  C43      1.0000 0.27480  0.45800  0.49370  Biso   1.000  C
  C44      1.0000 0.72520  0.54200  0.50630  Biso   1.000  C
  C45      1.0000 0.35340  0.43660  0.64850  Biso   1.000  C
  C46      1.0000 0.64660  0.56340  0.35150  Biso   1.000  C
  H21      1.0000 0.40150  0.40230  0.71340  Biso   1.000  H
  H22      1.0000 0.59850  0.59770  0.28660  Biso   1.000  H
  C47      1.0000 0.21640  0.55850  0.51720  Biso   1.000  C
  C48      1.0000 0.78360  0.44150  0.48280  Biso   1.000  C
  C49      1.0000 0.11430  0.65120  0.44770  Biso   1.000  C
  C50      1.0000 0.88570  0.34880  0.55230  Biso   1.000  C
  H23      1.0000 0.07500  0.71820  0.46240  Biso   1.000  H
  H24      1.0000 0.92500  0.28180  0.53760  Biso   1.000  H
  Cu1      1.0000 0.78317  0.35683  0.30149  Biso   1.000  Cu
  Cu2      1.0000 0.21683  0.64317  0.69851  Biso   1.000  Cu
  Dy1      1.0000 0.70773  0.91126  0.15276  Biso   1.000  Dy
  Dy2      1.0000 0.29227  0.08874  0.84724  Biso   1.000  Dy
  N1       1.0000 0.78430  0.57340  0.00640  Biso   1.000  N
  N2       1.0000 0.21570  0.42660  0.99360  Biso   1.000  N
  H25      1.0000 0.79690  0.64040  0.96510  Biso   1.000  H
  H26      1.0000 0.20310  0.35960  0.03490  Biso   1.000  H
  N3       1.0000 0.78320  0.42820  0.15080  Biso   1.000  N
  N4       1.0000 0.21680  0.57180  0.84920  Biso   1.000  N
  N5       1.0000 0.08310  0.98830  0.64210  Biso   1.000  N
  N6       1.0000 0.91690  0.01170  0.35790  Biso   1.000  N
  H27      1.0000 0.03150  0.04400  0.66100  Biso   1.000  H
  H28      1.0000 0.96850  0.95600  0.33900  Biso   1.000  H
  N7       1.0000 0.16880  0.80980  0.64370  Biso   1.000  N
  N8       1.0000 0.83120  0.19020  0.35630  Biso   1.000  N
  N9       1.0000 0.26900  0.54220  0.61570  Biso   1.000  N
  N10      1.0000 0.73100  0.45780  0.38430  Biso   1.000  N
  N11      1.0000 0.36340  0.38320  0.57960  Biso   1.000  N
  N12      1.0000 0.63660  0.61680  0.42040  Biso   1.000  N
  H29      1.0000 0.41550  0.31470  0.58740  Biso   1.000  H
  H30      1.0000 0.58450  0.68530  0.41260  Biso   1.000  H
  O1       1.0000 0.47350  0.19125  0.89664  Biso   1.000  O
  O2       1.0000 0.52650  0.80875  0.10336  Biso   1.000  O
  O3       1.0000 0.59400  0.08696  0.04585  Biso   1.000  O
  O4       1.0000 0.40600  0.91304  0.95415  Biso   1.000  O
  O5       1.0000 0.95830  0.01000  0.12007  Biso   1.000  O
  O6       1.0000 0.04170  0.99000  0.87993  Biso   1.000  O
  O7       1.0000 0.15210  0.08930  0.00374  Biso   1.000  O
  O8       1.0000 0.84790  0.91070  0.99626  Biso   1.000  O
  O9       1.0000 0.54980  0.02119  0.25018  Biso   1.000  O
  O10      1.0000 0.45020  0.97881  0.74982  Biso   1.000  O
  O11      1.0000 0.52280  0.83891  0.30679  Biso   1.000  O
  O12      1.0000 0.47720  0.16109  0.69321  Biso   1.000  O
  O13      1.0000 0.90300  0.82825  0.30225  Biso   1.000  O
  O14      1.0000 0.09700  0.17175  0.69775  Biso   1.000  O
  O15      1.0000 0.89640  0.72525  0.20430  Biso   1.000  O
  O16      1.0000 0.10360  0.27475  0.79570  Biso   1.000  O
  O17      1.0000 0.24000  0.19980  0.13250  Biso   1.000  O
  O18      1.0000 0.76000  0.80020  0.86750  Biso   1.000  O
  H31      1.0000 0.33600  0.16100  0.16100  Biso   1.000  H
  H32      1.0000 0.66400  0.83900  0.83900  Biso   1.000  H
  H33      1.0000 0.20700  0.16200  0.09800  Biso   1.000  H
  H34      1.0000 0.79300  0.83800  0.90200  Biso   1.000  H
