data_image0
_cell_length_a       7.6446
_cell_length_b       12.5372
_cell_length_c       14.0846
_cell_angle_alpha    70.417
_cell_angle_beta     87.919
_cell_angle_gamma    81.057

_symmetry_space_group_name_H-M    "P 1"
_symmetry_int_tables_number       1

loop_
  _symmetry_equiv_pos_as_xyz
  'x, y, z'

loop_
  _atom_site_label
  _atom_site_occupancy
  _atom_site_fract_x
  _atom_site_fract_y
  _atom_site_fract_z
  _atom_site_thermal_displace_type
  _atom_site_B_iso_or_equiv
  _atom_site_type_symbol
  C1       1.0000 0.58450  0.37410  0.19410  Biso   1.000  C
  C2       1.0000 0.41550  0.62590  0.80590  Biso   1.000  C
  H1       1.0000 0.52950  0.34560  0.25550  Biso   1.000  H
  H2       1.0000 0.47050  0.65440  0.74450  Biso   1.000  H
  C3       1.0000 0.67980  0.49680  0.05880  Biso   1.000  C
  C4       1.0000 0.32020  0.50320  0.94120  Biso   1.000  C
  C5       1.0000 0.72640  0.59070  0.98240  Biso   1.000  C
  C6       1.0000 0.27360  0.40930  0.01760  Biso   1.000  C
  H3       1.0000 0.69240  0.66490  0.98340  Biso   1.000  H
  H4       1.0000 0.30760  0.33510  0.01660  Biso   1.000  H
  C7       1.0000 0.82490  0.56970  0.90530  Biso   1.000  C
  C8       1.0000 0.17510  0.43030  0.09470  Biso   1.000  C
  H5       1.0000 0.85930  0.63090  0.85340  Biso   1.000  H
  H6       1.0000 0.14070  0.36910  0.14660  Biso   1.000  H
  C9       1.0000 0.87540  0.45750  0.90260  Biso   1.000  C
  C10      1.0000 0.12460  0.54250  0.09740  Biso   1.000  C
  C11      1.0000 0.98160  0.44040  0.81680  Biso   1.000  C
  C12      1.0000 0.01840  0.55960  0.18320  Biso   1.000  C
  C13      1.0000 0.82970  0.36480  0.97960  Biso   1.000  C
  C14      1.0000 0.17030  0.63520  0.02040  Biso   1.000  C
  H7       1.0000 0.86350  0.29070  0.97850  Biso   1.000  H
  H8       1.0000 0.13650  0.70930  0.02150  Biso   1.000  H
  C15      1.0000 0.73280  0.38440  0.05850  Biso   1.000  C
  C16      1.0000 0.26720  0.61560  0.94150  Biso   1.000  C
  C17      1.0000 0.85580  0.93530  0.15020  Biso   1.000  C
  C18      1.0000 0.14420  0.06470  0.84980  Biso   1.000  C
  H9       1.0000 0.90450  0.90100  0.21480  Biso   1.000  H
  H10      1.0000 0.09550  0.09900  0.78520  Biso   1.000  H
  C19      1.0000 0.71760  0.05690  0.01900  Biso   1.000  C
  C20      1.0000 0.28240  0.94310  0.98100  Biso   1.000  C
  C21      1.0000 0.61620  0.15010  0.94950  Biso   1.000  C
  C22      1.0000 0.38380  0.84990  0.05050  Biso   1.000  C
  H11      1.0000 0.57690  0.21690  0.96400  Biso   1.000  H
  H12      1.0000 0.42310  0.78310  0.03600  Biso   1.000  H
  C23      1.0000 0.57550  0.14030  0.85820  Biso   1.000  C
  C24      1.0000 0.42450  0.85970  0.14180  Biso   1.000  C
  C25      1.0000 0.45540  0.23560  0.78470  Biso   1.000  C
  C26      1.0000 0.54460  0.76440  0.21530  Biso   1.000  C
  C27      1.0000 0.63680  0.03950  0.83640  Biso   1.000  C
  C28      1.0000 0.36320  0.96050  0.16360  Biso   1.000  C
  H13      1.0000 0.60690  0.03520  0.77450  Biso   1.000  H
  H14      1.0000 0.39310  0.96480  0.22550  Biso   1.000  H
  C29      1.0000 0.74000  0.94680  0.90380  Biso   1.000  C
  C30      1.0000 0.26000  0.05320  0.09620  Biso   1.000  C
  H15      1.0000 0.78210  0.88080  0.88850  Biso   1.000  H
  H16      1.0000 0.21790  0.11920  0.11150  Biso   1.000  H
  C31      1.0000 0.77780  0.95730  0.99590  Biso   1.000  C
  C32      1.0000 0.22220  0.04270  0.00410  Biso   1.000  C
  C33      1.0000 0.68830  0.96280  0.39140  Biso   1.000  C
  C34      1.0000 0.31170  0.03720  0.60860  Biso   1.000  C
  H17      1.0000 0.65550  0.91830  0.35580  Biso   1.000  H
  H18      1.0000 0.34450  0.08170  0.64420  Biso   1.000  H
  C35      1.0000 0.81940  0.20500  0.42840  Biso   1.000  C
  C36      1.0000 0.18060  0.79500  0.57160  Biso   1.000  C
  H19      1.0000 0.82220  0.26660  0.36920  Biso   1.000  H
  H20      1.0000 0.17780  0.73340  0.63080  Biso   1.000  H
  C37      1.0000 0.86680  0.21150  0.51980  Biso   1.000  C
  C38      1.0000 0.13320  0.78850  0.48020  Biso   1.000  C
  C39      1.0000 0.93710  0.31430  0.52690  Biso   1.000  C
  C40      1.0000 0.06290  0.68570  0.47310  Biso   1.000  C
  C41      1.0000 0.85920  0.11780  0.60950  Biso   1.000  C
  C42      1.0000 0.14080  0.88220  0.39050  Biso   1.000  C
  H21      1.0000 0.88950  0.12450  0.67040  Biso   1.000  H
  H22      1.0000 0.11050  0.87550  0.32960  Biso   1.000  H
  C43      1.0000 0.80890  0.01740  0.60990  Biso   1.000  C
  C44      1.0000 0.19110  0.98260  0.39010  Biso   1.000  C
  H23      1.0000 0.80550  0.95590  0.66920  Biso   1.000  H
  H24      1.0000 0.19450  0.04410  0.33080  Biso   1.000  H
  C45      1.0000 0.76330  0.01210  0.51740  Biso   1.000  C
  C46      1.0000 0.23670  0.98790  0.48260  Biso   1.000  C
  C47      1.0000 0.53280  0.52790  0.53650  Biso   1.000  C
  C48      1.0000 0.46720  0.47210  0.46350  Biso   1.000  C
  C49      1.0000 0.76710  0.10350  0.42710  Biso   1.000  C
  C50      1.0000 0.23290  0.89650  0.57290  Biso   1.000  C
  Cu1      1.0000 0.71911  0.14237  0.19830  Biso   1.000  Cu
  Cu2      1.0000 0.28089  0.85763  0.80170  Biso   1.000  Cu
  N1       1.0000 0.58410  0.48610  0.14490  Biso   1.000  N
  N2       1.0000 0.41590  0.51390  0.85510  Biso   1.000  N
  H25      1.0000 0.53300  0.54140  0.16410  Biso   1.000  H
  H26      1.0000 0.46700  0.45860  0.83590  Biso   1.000  H
  N3       1.0000 0.67080  0.30900  0.14610  Biso   1.000  N
  N4       1.0000 0.32920  0.69100  0.85390  Biso   1.000  N
  N5       1.0000 0.77070  0.04060  0.11750  Biso   1.000  N
  N6       1.0000 0.22930  0.95940  0.88250  Biso   1.000  N
  N7       1.0000 0.86590  0.88200  0.08190  Biso   1.000  N
  N8       1.0000 0.13410  0.11800  0.91810  Biso   1.000  N
  H27      1.0000 0.91780  0.81350  0.09010  Biso   1.000  H
  H28      1.0000 0.08220  0.18650  0.90990  Biso   1.000  H
  N9       1.0000 0.71110  0.92510  0.49160  Biso   1.000  N
  N10      1.0000 0.28890  0.07490  0.50840  Biso   1.000  N
  H29      1.0000 0.69580  0.85880  0.53230  Biso   1.000  H
  H30      1.0000 0.30420  0.14120  0.46770  Biso   1.000  H
  N11      1.0000 0.71710  0.06920  0.34810  Biso   1.000  N
  N12      1.0000 0.28290  0.93080  0.65190  Biso   1.000  N
  O1       1.0000 0.03770  0.52401  0.75182  Biso   1.000  O
  O2       1.0000 0.96230  0.47599  0.24818  Biso   1.000  O
  O3       1.0000 0.01820  0.34095  0.80981  Biso   1.000  O
  O4       1.0000 0.98180  0.65905  0.19019  Biso   1.000  O
  O5       1.0000 0.40440  0.32661  0.80428  Biso   1.000  O
  O6       1.0000 0.59560  0.67339  0.19572  Biso   1.000  O
  O7       1.0000 0.40020  0.22354  0.70659  Biso   1.000  O
  O8       1.0000 0.59980  0.77646  0.29341  Biso   1.000  O
  O9       1.0000 0.02290  0.30243  0.60559  Biso   1.000  O
  O10      1.0000 0.97710  0.69757  0.39441  Biso   1.000  O
  O11      1.0000 0.91080  0.40623  0.45463  Biso   1.000  O
  O12      1.0000 0.08920  0.59377  0.54537  Biso   1.000  O
  O13      1.0000 0.45960  0.50980  0.61986  Biso   1.000  O
  O14      1.0000 0.54040  0.49020  0.38014  Biso   1.000  O
  O15      1.0000 0.65510  0.58620  0.50511  Biso   1.000  O
  O16      1.0000 0.34490  0.41380  0.49489  Biso   1.000  O
  O17      1.0000 0.26640  0.29910  0.36762  Biso   1.000  O
  O18      1.0000 0.73360  0.70090  0.63238  Biso   1.000  O
  Sm1      1.0000 0.20229  0.41227  0.65354  Biso   1.000  Sm
  Sm2      1.0000 0.79771  0.58774  0.34646  Biso   1.000  Sm
  H31      1.0000 0.17000  0.33400  0.33700  Biso   1.000  H
  H32      1.0000 0.83000  0.66600  0.66300  Biso   1.000  H
  H33      1.0000 0.29600  0.34000  0.39900  Biso   1.000  H
  H34      1.0000 0.70400  0.66000  0.60100  Biso   1.000  H
