data_image0
_cell_length_a       8.3841
_cell_length_b       9.2406
_cell_length_c       13.799
_cell_angle_alpha    87.937
_cell_angle_beta     86.209
_cell_angle_gamma    67.204

_symmetry_space_group_name_H-M    "P 1"
_symmetry_int_tables_number       1

loop_
  _symmetry_equiv_pos_as_xyz
  'x, y, z'

loop_
  _atom_site_label
  _atom_site_occupancy
  _atom_site_fract_x
  _atom_site_fract_y
  _atom_site_fract_z
  _atom_site_thermal_displace_type
  _atom_site_B_iso_or_equiv
  _atom_site_type_symbol
  C1       1.0000 0.14410  0.84020  0.08100  Biso   1.000  C
  C2       1.0000 0.85590  0.15980  0.91900  Biso   1.000  C
  H1       1.0000 0.24120  0.76010  0.11280  Biso   1.000  H
  H2       1.0000 0.75880  0.23990  0.88720  Biso   1.000  H
  H3       1.0000 0.13730  0.94480  0.09760  Biso   1.000  H
  H4       1.0000 0.86270  0.05520  0.90240  Biso   1.000  H
  H5       1.0000 0.16200  0.82690  0.01050  Biso   1.000  H
  H6       1.0000 0.83800  0.17310  0.98950  Biso   1.000  H
  C3       1.0000 0.97890  0.82320  0.11480  Biso   1.000  C
  C4       1.0000 0.02110  0.17680  0.88520  Biso   1.000  C
  C5       1.0000 0.84660  0.93900  0.16870  Biso   1.000  C
  C6       1.0000 0.15340  0.06100  0.83130  Biso   1.000  C
  C7       1.0000 0.67860  0.79560  0.16890  Biso   1.000  C
  C8       1.0000 0.32140  0.20440  0.83110  Biso   1.000  C
  C9       1.0000 0.81050  0.67780  0.11770  Biso   1.000  C
  C10      1.0000 0.18950  0.32220  0.88230  Biso   1.000  C
  C11      1.0000 0.79300  0.53000  0.09150  Biso   1.000  C
  C12      1.0000 0.20700  0.47000  0.90850  Biso   1.000  C
  C13      1.0000 0.81030  0.41970  0.28340  Biso   1.000  C
  C14      1.0000 0.18970  0.58030  0.71660  Biso   1.000  C
  C15      1.0000 0.87070  0.52480  0.33760  Biso   1.000  C
  C16      1.0000 0.12930  0.47520  0.66240  Biso   1.000  C
  C17      1.0000 0.75830  0.63330  0.40330  Biso   1.000  C
  C18      1.0000 0.24170  0.36670  0.59670  Biso   1.000  C
  C19      1.0000 0.97620  0.70610  0.44230  Biso   1.000  C
  C20      1.0000 0.02380  0.29390  0.55770  Biso   1.000  C
  C21      1.0000 0.09180  0.59920  0.37820  Biso   1.000  C
  C22      1.0000 0.90820  0.40080  0.62180  Biso   1.000  C
  C23      1.0000 0.27550  0.58200  0.36350  Biso   1.000  C
  C24      1.0000 0.72450  0.41800  0.63650  Biso   1.000  C
  H7       1.0000 0.35180  0.47280  0.37630  Biso   1.000  H
  H8       1.0000 0.64820  0.52720  0.62370  Biso   1.000  H
  H9       1.0000 0.29800  0.65110  0.40810  Biso   1.000  H
  H10      1.0000 0.70200  0.34890  0.59190  Biso   1.000  H
  H11      1.0000 0.29770  0.61060  0.29630  Biso   1.000  H
  H12      1.0000 0.70230  0.38940  0.70370  Biso   1.000  H
  Cu1      1.0000 0.49827  0.11271  0.26196  Biso   1.000  Cu
  Cu2      1.0000 0.50173  0.88729  0.73804  Biso   1.000  Cu
  Cu3      1.0000 0.35688  0.09561  0.45966  Biso   1.000  Cu
  Cu4      1.0000 0.64312  0.90439  0.54034  Biso   1.000  Cu
  Cu5      1.0000 0.18285  0.34367  0.22138  Biso   1.000  Cu
  Cu6      1.0000 0.81715  0.65633  0.77862  Biso   1.000  Cu
  I1       1.0000 0.64010  0.14716  0.42401  Biso   1.000  I
  I2       1.0000 0.35990  0.85284  0.57599  Biso   1.000  I
  I3       1.0000 0.22126  0.04860  0.30582  Biso   1.000  I
  I4       1.0000 0.77874  0.95140  0.69418  Biso   1.000  I
  I5       1.0000 0.45453  0.33612  0.13030  Biso   1.000  I
  I6       1.0000 0.54547  0.66388  0.86970  Biso   1.000  I
  N1       1.0000 0.69720  0.92590  0.19550  Biso   1.000  N
  N2       1.0000 0.30280  0.07410  0.80450  Biso   1.000  N
  N3       1.0000 0.95950  0.69270  0.09030  Biso   1.000  N
  N4       1.0000 0.04050  0.30730  0.90970  Biso   1.000  N
  N5       1.0000 0.81040  0.72410  0.45590  Biso   1.000  N
  N6       1.0000 0.18960  0.27590  0.54410  Biso   1.000  N
  N7       1.0000 0.03770  0.50580  0.32520  Biso   1.000  N
  N8       1.0000 0.96230  0.49420  0.67480  Biso   1.000  N
  S1       1.0000 0.91751  0.36001  0.16421  Biso   1.000  S
  S2       1.0000 0.08249  0.63999  0.83579  Biso   1.000  S
  H13      1.0000 0.86500  0.04300  0.18700  Biso   1.000  H
  H14      1.0000 0.13500  0.95700  0.81300  Biso   1.000  H
  H15      1.0000 0.57000  0.78900  0.18400  Biso   1.000  H
  H16      1.0000 0.43000  0.21100  0.81600  Biso   1.000  H
  H17      1.0000 0.83600  0.49700  0.02400  Biso   1.000  H
  H18      1.0000 0.16400  0.50300  0.97600  Biso   1.000  H
  H19      1.0000 0.68600  0.53800  0.09900  Biso   1.000  H
  H20      1.0000 0.31400  0.46200  0.90100  Biso   1.000  H
  H21      1.0000 0.82700  0.33000  0.31900  Biso   1.000  H
  H22      1.0000 0.17300  0.67000  0.68100  Biso   1.000  H
  H23      1.0000 0.69200  0.46600  0.27300  Biso   1.000  H
  H24      1.0000 0.30800  0.53400  0.72700  Biso   1.000  H
  H25      1.0000 0.64600  0.64600  0.41200  Biso   1.000  H
  H26      1.0000 0.35400  0.35400  0.58800  Biso   1.000  H
  H27      1.0000 0.02600  0.76200  0.47700  Biso   1.000  H
  H28      1.0000 0.97400  0.23800  0.52300  Biso   1.000  H
