data_image0
_cell_length_a       17.061
_cell_length_b       11.299
_cell_length_c       8.3845
_cell_angle_alpha    90
_cell_angle_beta     110.078
_cell_angle_gamma    90

_symmetry_space_group_name_H-M    "P 1"
_symmetry_int_tables_number       1

loop_
  _symmetry_equiv_pos_as_xyz
  'x, y, z'

loop_
  _atom_site_label
  _atom_site_occupancy
  _atom_site_fract_x
  _atom_site_fract_y
  _atom_site_fract_z
  _atom_site_thermal_displace_type
  _atom_site_B_iso_or_equiv
  _atom_site_type_symbol
  Cu1      1.0000 0.14926  0.33356  0.15668  Biso   1.000  Cu
  Cu2      1.0000 0.64926  0.83356  0.15668  Biso   1.000  Cu
  Cu3      1.0000 0.14926  0.66644  0.65668  Biso   1.000  Cu
  Cu4      1.0000 0.64926  0.16644  0.65668  Biso   1.000  Cu
  Cu5      1.0000 0.85074  0.66644  0.84332  Biso   1.000  Cu
  Cu6      1.0000 0.35074  0.16644  0.84332  Biso   1.000  Cu
  Cu7      1.0000 0.85074  0.33356  0.34332  Biso   1.000  Cu
  Cu8      1.0000 0.35074  0.83356  0.34332  Biso   1.000  Cu
  Cu9      1.0000 0.50000  0.35618  0.25000  Biso   1.000  Cu
  Cu10     1.0000 0.00000  0.85618  0.25000  Biso   1.000  Cu
  Cu11     1.0000 0.50000  0.64382  0.75000  Biso   1.000  Cu
  Cu12     1.0000 0.00000  0.14382  0.75000  Biso   1.000  Cu
  N1       1.0000 0.24939  0.37080  0.12660  Biso   1.000  N
  N2       1.0000 0.74939  0.87080  0.12660  Biso   1.000  N
  N3       1.0000 0.24939  0.62920  0.62660  Biso   1.000  N
  N4       1.0000 0.74939  0.12920  0.62660  Biso   1.000  N
  N5       1.0000 0.75061  0.62920  0.87340  Biso   1.000  N
  N6       1.0000 0.25061  0.12920  0.87340  Biso   1.000  N
  N7       1.0000 0.75061  0.37080  0.37340  Biso   1.000  N
  N8       1.0000 0.25061  0.87080  0.37340  Biso   1.000  N
  N9       1.0000 0.38415  0.36990  0.15760  Biso   1.000  N
  N10      1.0000 0.88415  0.86990  0.15760  Biso   1.000  N
  N11      1.0000 0.38415  0.63010  0.65760  Biso   1.000  N
  N12      1.0000 0.88415  0.13010  0.65760  Biso   1.000  N
  N13      1.0000 0.61585  0.63010  0.84240  Biso   1.000  N
  N14      1.0000 0.11585  0.13010  0.84240  Biso   1.000  N
  N15      1.0000 0.61585  0.36990  0.34240  Biso   1.000  N
  N16      1.0000 0.11585  0.86990  0.34240  Biso   1.000  N
  N17      1.0000 0.05385  0.29370  0.20400  Biso   1.000  N
  N18      1.0000 0.55385  0.79370  0.20400  Biso   1.000  N
  N19      1.0000 0.05385  0.70630  0.70400  Biso   1.000  N
  N20      1.0000 0.55385  0.20630  0.70400  Biso   1.000  N
  N21      1.0000 0.94615  0.70630  0.79600  Biso   1.000  N
  N22      1.0000 0.44615  0.20630  0.79600  Biso   1.000  N
  N23      1.0000 0.94615  0.29370  0.29600  Biso   1.000  N
  N24      1.0000 0.44615  0.79370  0.29600  Biso   1.000  N
  C1       1.0000 0.32452  0.32420  0.21180  Biso   1.000  C
  C2       1.0000 0.82452  0.82420  0.21180  Biso   1.000  C
  C3       1.0000 0.32452  0.67580  0.71180  Biso   1.000  C
  C4       1.0000 0.82452  0.17580  0.71180  Biso   1.000  C
  C5       1.0000 0.67548  0.67580  0.78820  Biso   1.000  C
  C6       1.0000 0.17548  0.17580  0.78820  Biso   1.000  C
  C7       1.0000 0.67548  0.32420  0.28820  Biso   1.000  C
  C8       1.0000 0.17548  0.82420  0.28820  Biso   1.000  C
  C9       1.0000 0.34391  0.44860  0.03130  Biso   1.000  C
  C10      1.0000 0.84391  0.94860  0.03130  Biso   1.000  C
  C11      1.0000 0.34391  0.55140  0.53130  Biso   1.000  C
  C12      1.0000 0.84391  0.05140  0.53130  Biso   1.000  C
  C13      1.0000 0.65609  0.55140  0.96870  Biso   1.000  C
  C14      1.0000 0.15609  0.05140  0.96870  Biso   1.000  C
  C15      1.0000 0.65609  0.44860  0.46870  Biso   1.000  C
  C16      1.0000 0.15609  0.94860  0.46870  Biso   1.000  C
  H1       1.0000 0.36870  0.49380  0.96900  Biso   1.000  H
  H2       1.0000 0.86870  0.99380  0.96900  Biso   1.000  H
  H3       1.0000 0.36870  0.50620  0.46900  Biso   1.000  H
  H4       1.0000 0.86870  0.00620  0.46900  Biso   1.000  H
  H5       1.0000 0.63130  0.50620  0.03100  Biso   1.000  H
  H6       1.0000 0.13130  0.00620  0.03100  Biso   1.000  H
  H7       1.0000 0.63130  0.49380  0.53100  Biso   1.000  H
  H8       1.0000 0.13130  0.99380  0.53100  Biso   1.000  H
  C17      1.0000 0.26178  0.44910  0.01300  Biso   1.000  C
  C18      1.0000 0.76178  0.94910  0.01300  Biso   1.000  C
  C19      1.0000 0.26178  0.55090  0.51300  Biso   1.000  C
  C20      1.0000 0.76178  0.05090  0.51300  Biso   1.000  C
  C21      1.0000 0.73822  0.55090  0.98700  Biso   1.000  C
  C22      1.0000 0.23822  0.05090  0.98700  Biso   1.000  C
  C23      1.0000 0.73822  0.44910  0.48700  Biso   1.000  C
  C24      1.0000 0.23822  0.94910  0.48700  Biso   1.000  C
  H9       1.0000 0.22070  0.49500  0.93620  Biso   1.000  H
  H10      1.0000 0.72070  0.99500  0.93620  Biso   1.000  H
  H11      1.0000 0.22070  0.50500  0.43620  Biso   1.000  H
  H12      1.0000 0.72070  0.00500  0.43620  Biso   1.000  H
  H13      1.0000 0.77930  0.50500  0.06380  Biso   1.000  H
  H14      1.0000 0.27930  0.00500  0.06380  Biso   1.000  H
  H15      1.0000 0.77930  0.49500  0.56380  Biso   1.000  H
  H16      1.0000 0.27930  0.99500  0.56380  Biso   1.000  H
  C25      1.0000 0.33993  0.23530  0.34820  Biso   1.000  C
  C26      1.0000 0.83993  0.73530  0.34820  Biso   1.000  C
  C27      1.0000 0.33993  0.76470  0.84820  Biso   1.000  C
  C28      1.0000 0.83993  0.26470  0.84820  Biso   1.000  C
  C29      1.0000 0.66007  0.76470  0.65180  Biso   1.000  C
  C30      1.0000 0.16007  0.26470  0.65180  Biso   1.000  C
  C31      1.0000 0.66007  0.23530  0.15180  Biso   1.000  C
  C32      1.0000 0.16007  0.73530  0.15180  Biso   1.000  C
  H17      1.0000 0.28830  0.21630  0.36430  Biso   1.000  H
  H18      1.0000 0.78830  0.71630  0.36430  Biso   1.000  H
  H19      1.0000 0.28830  0.78370  0.86430  Biso   1.000  H
  H20      1.0000 0.78830  0.28370  0.86430  Biso   1.000  H
  H21      1.0000 0.71170  0.78370  0.63570  Biso   1.000  H
  H22      1.0000 0.21170  0.28370  0.63570  Biso   1.000  H
  H23      1.0000 0.71170  0.21630  0.13570  Biso   1.000  H
  H24      1.0000 0.21170  0.71630  0.13570  Biso   1.000  H
  H25      1.0000 0.37850  0.26680  0.45180  Biso   1.000  H
  H26      1.0000 0.87850  0.76680  0.45180  Biso   1.000  H
  H27      1.0000 0.37850  0.73320  0.95180  Biso   1.000  H
  H28      1.0000 0.87850  0.23320  0.95180  Biso   1.000  H
  H29      1.0000 0.62150  0.73320  0.54820  Biso   1.000  H
  H30      1.0000 0.12150  0.23320  0.54820  Biso   1.000  H
  H31      1.0000 0.62150  0.26680  0.04820  Biso   1.000  H
  H32      1.0000 0.12150  0.76680  0.04820  Biso   1.000  H
  H33      1.0000 0.36290  0.16510  0.31720  Biso   1.000  H
  H34      1.0000 0.86290  0.66510  0.31720  Biso   1.000  H
  H35      1.0000 0.36290  0.83490  0.81720  Biso   1.000  H
  H36      1.0000 0.86290  0.33490  0.81720  Biso   1.000  H
  H37      1.0000 0.63710  0.83490  0.68280  Biso   1.000  H
  H38      1.0000 0.13710  0.33490  0.68280  Biso   1.000  H
  H39      1.0000 0.63710  0.16510  0.18280  Biso   1.000  H
  H40      1.0000 0.13710  0.66510  0.18280  Biso   1.000  H
  C33      1.0000 0.00000  0.36040  0.25000  Biso   1.000  C
  C34      1.0000 0.50000  0.86040  0.25000  Biso   1.000  C
  C35      1.0000 0.00000  0.63960  0.75000  Biso   1.000  C
  C36      1.0000 0.50000  0.13960  0.75000  Biso   1.000  C
  C37      1.0000 0.03220  0.17880  0.22060  Biso   1.000  C
  C38      1.0000 0.53220  0.67880  0.22060  Biso   1.000  C
  C39      1.0000 0.03220  0.82120  0.72060  Biso   1.000  C
  C40      1.0000 0.53220  0.32120  0.72060  Biso   1.000  C
  C41      1.0000 0.96780  0.82120  0.77940  Biso   1.000  C
  C42      1.0000 0.46780  0.32120  0.77940  Biso   1.000  C
  C43      1.0000 0.96780  0.17880  0.27940  Biso   1.000  C
  C44      1.0000 0.46780  0.67880  0.27940  Biso   1.000  C
  H41      1.0000 0.05760  0.11200  0.19550  Biso   1.000  H
  H42      1.0000 0.55760  0.61200  0.19550  Biso   1.000  H
  H43      1.0000 0.05760  0.88800  0.69550  Biso   1.000  H
  H44      1.0000 0.55760  0.38800  0.69550  Biso   1.000  H
  H45      1.0000 0.94240  0.88800  0.80450  Biso   1.000  H
  H46      1.0000 0.44240  0.38800  0.80450  Biso   1.000  H
  H47      1.0000 0.94240  0.11200  0.30450  Biso   1.000  H
  H48      1.0000 0.44240  0.61200  0.30450  Biso   1.000  H
  C45      1.0000 0.00000  0.49100  0.25000  Biso   1.000  C
  C46      1.0000 0.50000  0.99100  0.25000  Biso   1.000  C
  C47      1.0000 0.00000  0.50900  0.75000  Biso   1.000  C
  C48      1.0000 0.50000  0.00900  0.75000  Biso   1.000  C
  H49      1.0000 0.95620  0.51940  0.28750  Biso   1.000  H
  H50      1.0000 0.45620  0.01940  0.28750  Biso   1.000  H
  H51      1.0000 0.95620  0.48060  0.78750  Biso   1.000  H
  H52      1.0000 0.45620  0.98060  0.78750  Biso   1.000  H
  H53      1.0000 0.04380  0.48060  0.71250  Biso   1.000  H
  H54      1.0000 0.54380  0.98060  0.71250  Biso   1.000  H
  H55      1.0000 0.04380  0.51940  0.21250  Biso   1.000  H
  H56      1.0000 0.54380  0.01940  0.21250  Biso   1.000  H
  H57      1.0000 0.99110  0.51940  0.13720  Biso   1.000  H
  H58      1.0000 0.49110  0.01940  0.13720  Biso   1.000  H
  H59      1.0000 0.99110  0.48060  0.63720  Biso   1.000  H
  H60      1.0000 0.49110  0.98060  0.63720  Biso   1.000  H
  H61      1.0000 0.00890  0.48060  0.86280  Biso   1.000  H
  H62      1.0000 0.50890  0.98060  0.86280  Biso   1.000  H
  H63      1.0000 0.00890  0.51940  0.36280  Biso   1.000  H
  H64      1.0000 0.50890  0.01940  0.36280  Biso   1.000  H
  H65      1.0000 0.05280  0.51940  0.32540  Biso   1.000  H
  H66      1.0000 0.55280  0.01940  0.32540  Biso   1.000  H
  H67      1.0000 0.05280  0.48060  0.82540  Biso   1.000  H
  H68      1.0000 0.55280  0.98060  0.82540  Biso   1.000  H
  H69      1.0000 0.94720  0.48060  0.67460  Biso   1.000  H
  H70      1.0000 0.44720  0.98060  0.67460  Biso   1.000  H
  H71      1.0000 0.94720  0.51940  0.17460  Biso   1.000  H
  H72      1.0000 0.44720  0.01940  0.17460  Biso   1.000  H
