data_image0
_cell_length_a       17.5811
_cell_length_b       4.1743
_cell_length_c       23.8229
_cell_angle_alpha    90
_cell_angle_beta     96.073
_cell_angle_gamma    90

_symmetry_space_group_name_H-M    "P 1"
_symmetry_int_tables_number       1

loop_
  _symmetry_equiv_pos_as_xyz
  'x, y, z'

loop_
  _atom_site_label
  _atom_site_occupancy
  _atom_site_fract_x
  _atom_site_fract_y
  _atom_site_fract_z
  _atom_site_thermal_displace_type
  _atom_site_B_iso_or_equiv
  _atom_site_type_symbol
  I1       1.0000 0.20331  0.08543  0.82005  Biso   1.000  I
  I2       1.0000 0.29669  0.58543  0.67995  Biso   1.000  I
  I3       1.0000 0.79669  0.91457  0.17995  Biso   1.000  I
  I4       1.0000 0.70331  0.41457  0.32005  Biso   1.000  I
  I5       1.0000 0.43038  0.57134  0.84168  Biso   1.000  I
  I6       1.0000 0.06962  0.07134  0.65832  Biso   1.000  I
  I7       1.0000 0.56962  0.42866  0.15832  Biso   1.000  I
  I8       1.0000 0.93038  0.92866  0.34168  Biso   1.000  I
  I9       1.0000 0.60138  0.26256  0.47284  Biso   1.000  I
  I10      1.0000 0.89862  0.76256  0.02716  Biso   1.000  I
  I11      1.0000 0.39862  0.73744  0.52716  Biso   1.000  I
  I12      1.0000 0.10138  0.23744  0.97284  Biso   1.000  I
  Cu1      1.0000 0.34964  0.08580  0.86962  Biso   1.000  Cu
  Cu2      1.0000 0.15036  0.58580  0.63038  Biso   1.000  Cu
  Cu3      1.0000 0.65036  0.91420  0.13038  Biso   1.000  Cu
  Cu4      1.0000 0.84964  0.41420  0.36962  Biso   1.000  Cu
  Cu5      1.0000 0.50933  0.77010  0.46023  Biso   1.000  Cu
  Cu6      1.0000 0.99067  0.27010  0.03977  Biso   1.000  Cu
  Cu7      1.0000 0.49067  0.22990  0.53977  Biso   1.000  Cu
  Cu8      1.0000 0.00933  0.72990  0.96023  Biso   1.000  Cu
  O1       1.0000 0.38270  0.80390  0.16625  Biso   1.000  O
  O2       1.0000 0.11730  0.30390  0.33375  Biso   1.000  O
  O3       1.0000 0.61730  0.19610  0.83375  Biso   1.000  O
  O4       1.0000 0.88270  0.69610  0.66625  Biso   1.000  O
  N1       1.0000 0.46090  0.74840  0.37840  Biso   1.000  N
  N2       1.0000 0.03910  0.24840  0.12160  Biso   1.000  N
  N3       1.0000 0.53910  0.25160  0.62160  Biso   1.000  N
  N4       1.0000 0.96090  0.75160  0.87840  Biso   1.000  N
  C1       1.0000 0.35830  0.64430  0.21060  Biso   1.000  C
  C2       1.0000 0.14170  0.14430  0.28940  Biso   1.000  C
  C3       1.0000 0.64170  0.35570  0.78940  Biso   1.000  C
  C4       1.0000 0.85830  0.85570  0.71060  Biso   1.000  C
  C5       1.0000 0.28130  0.72480  0.02330  Biso   1.000  C
  C6       1.0000 0.21870  0.22480  0.47670  Biso   1.000  C
  C7       1.0000 0.71870  0.27520  0.97670  Biso   1.000  C
  C8       1.0000 0.78130  0.77520  0.52330  Biso   1.000  C
  H1       1.0000 0.24010  0.60180  0.03210  Biso   1.000  H
  H2       1.0000 0.25990  0.10180  0.46790  Biso   1.000  H
  H3       1.0000 0.75990  0.39820  0.96790  Biso   1.000  H
  H4       1.0000 0.74010  0.89820  0.53210  Biso   1.000  H
  C9       1.0000 0.33290  0.69940  0.12210  Biso   1.000  C
  C10      1.0000 0.16710  0.19940  0.37790  Biso   1.000  C
  C11      1.0000 0.66710  0.30060  0.87790  Biso   1.000  C
  C12      1.0000 0.83290  0.80060  0.62210  Biso   1.000  C
  N5       1.0000 0.28390  0.49630  0.13740  Biso   1.000  N
  N6       1.0000 0.21610  0.99630  0.36260  Biso   1.000  N
  N7       1.0000 0.71610  0.50370  0.86260  Biso   1.000  N
  N8       1.0000 0.78390  0.00370  0.63740  Biso   1.000  N
  N9       1.0000 0.30200  0.46040  0.19610  Biso   1.000  N
  N10      1.0000 0.19800  0.96040  0.30390  Biso   1.000  N
  N11      1.0000 0.69800  0.53960  0.80390  Biso   1.000  N
  N12      1.0000 0.80200  0.03960  0.69610  Biso   1.000  N
  N13      1.0000 0.34270  0.00340  0.95350  Biso   1.000  N
  N14      1.0000 0.15730  0.50340  0.54650  Biso   1.000  N
  N15      1.0000 0.65730  0.99660  0.04650  Biso   1.000  N
  N16      1.0000 0.84270  0.49660  0.45350  Biso   1.000  N
  C13      1.0000 0.39520  0.68850  0.26770  Biso   1.000  C
  C14      1.0000 0.10480  0.18850  0.23230  Biso   1.000  C
  C15      1.0000 0.60480  0.31150  0.73230  Biso   1.000  C
  C16      1.0000 0.89520  0.81150  0.76770  Biso   1.000  C
  C17      1.0000 0.39700  0.09130  0.99370  Biso   1.000  C
  C18      1.0000 0.10300  0.59130  0.50630  Biso   1.000  C
  C19      1.0000 0.60300  0.90870  0.00630  Biso   1.000  C
  C20      1.0000 0.89700  0.40870  0.49370  Biso   1.000  C
  H5       1.0000 0.43680  0.21900  0.98370  Biso   1.000  H
  H6       1.0000 0.06320  0.71900  0.51630  Biso   1.000  H
  H7       1.0000 0.56320  0.78100  0.01630  Biso   1.000  H
  H8       1.0000 0.93680  0.28100  0.48370  Biso   1.000  H
  C21      1.0000 0.46280  0.85140  0.27980  Biso   1.000  C
  C22      1.0000 0.03720  0.35140  0.22020  Biso   1.000  C
  C23      1.0000 0.53720  0.14860  0.72020  Biso   1.000  C
  C24      1.0000 0.96280  0.64860  0.77980  Biso   1.000  C
  H9       1.0000 0.48750  0.94280  0.25110  Biso   1.000  H
  H10      1.0000 0.01250  0.44280  0.24890  Biso   1.000  H
  H11      1.0000 0.51250  0.05720  0.74890  Biso   1.000  H
  H12      1.0000 0.98750  0.55720  0.75110  Biso   1.000  H
  C25      1.0000 0.36060  0.55300  0.31210  Biso   1.000  C
  C26      1.0000 0.13940  0.05300  0.18790  Biso   1.000  C
  C27      1.0000 0.63940  0.44700  0.68790  Biso   1.000  C
  C28      1.0000 0.86060  0.94700  0.81210  Biso   1.000  C
  H13      1.0000 0.31500  0.43980  0.30540  Biso   1.000  H
  H14      1.0000 0.18500  0.93980  0.19460  Biso   1.000  H
  H15      1.0000 0.68500  0.56020  0.69460  Biso   1.000  H
  H16      1.0000 0.81500  0.06020  0.80540  Biso   1.000  H
  C29      1.0000 0.33830  0.81060  0.06490  Biso   1.000  C
  C30      1.0000 0.16170  0.31060  0.43510  Biso   1.000  C
  C31      1.0000 0.66170  0.18940  0.93510  Biso   1.000  C
  C32      1.0000 0.83830  0.68940  0.56490  Biso   1.000  C
  C33      1.0000 0.28620  0.82350  0.96860  Biso   1.000  C
  C34      1.0000 0.21380  0.32350  0.53140  Biso   1.000  C
  C35      1.0000 0.71380  0.17650  0.03140  Biso   1.000  C
  C36      1.0000 0.78620  0.67650  0.46860  Biso   1.000  C
  H17      1.0000 0.24780  0.76070  0.94090  Biso   1.000  H
  H18      1.0000 0.25220  0.26070  0.55910  Biso   1.000  H
  H19      1.0000 0.75220  0.23930  0.05910  Biso   1.000  H
  H20      1.0000 0.74780  0.73930  0.44090  Biso   1.000  H
  C37      1.0000 0.39690  0.00160  0.04950  Biso   1.000  C
  C38      1.0000 0.10310  0.50160  0.45050  Biso   1.000  C
  C39      1.0000 0.60310  0.99840  0.95050  Biso   1.000  C
  C40      1.0000 0.89690  0.49840  0.54950  Biso   1.000  C
  H21      1.0000 0.43580  0.06880  0.07650  Biso   1.000  H
  H22      1.0000 0.06420  0.56880  0.42350  Biso   1.000  H
  H23      1.0000 0.56420  0.93120  0.92350  Biso   1.000  H
  H24      1.0000 0.93580  0.43120  0.57650  Biso   1.000  H
  C41      1.0000 0.49340  0.87700  0.33520  Biso   1.000  C
  C42      1.0000 0.00660  0.37700  0.16480  Biso   1.000  C
  C43      1.0000 0.50660  0.12300  0.66480  Biso   1.000  C
  C44      1.0000 0.99340  0.62300  0.83520  Biso   1.000  C
  H25      1.0000 0.53900  0.98900  0.34320  Biso   1.000  H
  H26      1.0000 0.96100  0.48900  0.15680  Biso   1.000  H
  H27      1.0000 0.46100  0.01100  0.65680  Biso   1.000  H
  H28      1.0000 0.03900  0.51100  0.84320  Biso   1.000  H
  C45      1.0000 0.39570  0.59100  0.36600  Biso   1.000  C
  C46      1.0000 0.10430  0.09100  0.13400  Biso   1.000  C
  C47      1.0000 0.60430  0.40900  0.63400  Biso   1.000  C
  C48      1.0000 0.89570  0.90900  0.86600  Biso   1.000  C
  H29      1.0000 0.37240  0.50070  0.39550  Biso   1.000  H
  H30      1.0000 0.12760  0.00070  0.10450  Biso   1.000  H
  H31      1.0000 0.62760  0.49930  0.60450  Biso   1.000  H
  H32      1.0000 0.87240  0.99930  0.89550  Biso   1.000  H
  Cu9      1.0000 0.28887  0.58640  0.79207  Biso   1.000  Cu
  Cu10     1.0000 0.21113  0.08640  0.70793  Biso   1.000  Cu
  Cu11     1.0000 0.71113  0.41360  0.20793  Biso   1.000  Cu
  Cu12     1.0000 0.78887  0.91360  0.29207  Biso   1.000  Cu
