data_image0
_cell_length_a       19.465
_cell_length_b       4.083
_cell_length_c       19.122
_cell_angle_alpha    90
_cell_angle_beta     91.555
_cell_angle_gamma    90

_symmetry_space_group_name_H-M    "P 1"
_symmetry_int_tables_number       1

loop_
  _symmetry_equiv_pos_as_xyz
  'x, y, z'

loop_
  _atom_site_label
  _atom_site_occupancy
  _atom_site_fract_x
  _atom_site_fract_y
  _atom_site_fract_z
  _atom_site_thermal_displace_type
  _atom_site_B_iso_or_equiv
  _atom_site_type_symbol
  I1       1.0000 0.91975  0.27132  0.43136  Biso   1.000  I
  I2       1.0000 0.08025  0.77132  0.06864  Biso   1.000  I
  I3       1.0000 0.08025  0.72868  0.56864  Biso   1.000  I
  I4       1.0000 0.91975  0.22868  0.93136  Biso   1.000  I
  I5       1.0000 0.46014  0.47834  0.84741  Biso   1.000  I
  I6       1.0000 0.53986  0.97834  0.65259  Biso   1.000  I
  I7       1.0000 0.53986  0.52166  0.15259  Biso   1.000  I
  I8       1.0000 0.46014  0.02166  0.34741  Biso   1.000  I
  Cu1      1.0000 0.00348  0.77020  0.44993  Biso   1.000  Cu
  Cu2      1.0000 0.99652  0.27020  0.05007  Biso   1.000  Cu
  Cu3      1.0000 0.99652  0.22980  0.55007  Biso   1.000  Cu
  Cu4      1.0000 0.00348  0.72980  0.94993  Biso   1.000  Cu
  Cu5      1.0000 0.35543  0.91320  0.85757  Biso   1.000  Cu
  Cu6      1.0000 0.64457  0.41320  0.64243  Biso   1.000  Cu
  Cu7      1.0000 0.64457  0.08680  0.14243  Biso   1.000  Cu
  Cu8      1.0000 0.35543  0.58680  0.35757  Biso   1.000  Cu
  Cu9      1.0000 0.44558  0.38030  0.23390  Biso   1.000  Cu
  Cu10     1.0000 0.55442  0.88030  0.26610  Biso   1.000  Cu
  Cu11     1.0000 0.55442  0.61970  0.76610  Biso   1.000  Cu
  Cu12     1.0000 0.44558  0.11970  0.73390  Biso   1.000  Cu
  N1       1.0000 0.33840  0.98930  0.95760  Biso   1.000  N
  N2       1.0000 0.66160  0.48930  0.54240  Biso   1.000  N
  N3       1.0000 0.66160  0.01070  0.04240  Biso   1.000  N
  N4       1.0000 0.33840  0.51070  0.45760  Biso   1.000  N
  N5       1.0000 0.23640  0.41990  0.17810  Biso   1.000  N
  N6       1.0000 0.76360  0.91990  0.32190  Biso   1.000  N
  N7       1.0000 0.76360  0.58010  0.82190  Biso   1.000  N
  N8       1.0000 0.23640  0.08010  0.67810  Biso   1.000  N
  N9       1.0000 0.07680  0.75770  0.37350  Biso   1.000  N
  N10      1.0000 0.92320  0.25770  0.12650  Biso   1.000  N
  N11      1.0000 0.92320  0.24230  0.62650  Biso   1.000  N
  N12      1.0000 0.07680  0.74230  0.87350  Biso   1.000  N
  C1       1.0000 0.11920  0.52500  0.26870  Biso   1.000  C
  C2       1.0000 0.88080  0.02500  0.23130  Biso   1.000  C
  C3       1.0000 0.88080  0.47500  0.73130  Biso   1.000  C
  C4       1.0000 0.11920  0.97500  0.76870  Biso   1.000  C
  H1       1.0000 0.11040  0.41120  0.22730  Biso   1.000  H
  H2       1.0000 0.88960  0.91120  0.27270  Biso   1.000  H
  H3       1.0000 0.88960  0.58880  0.77270  Biso   1.000  H
  H4       1.0000 0.11040  0.08880  0.72730  Biso   1.000  H
  C5       1.0000 0.24370  0.53300  0.24400  Biso   1.000  C
  C6       1.0000 0.75630  0.03300  0.25600  Biso   1.000  C
  C7       1.0000 0.75630  0.46700  0.75600  Biso   1.000  C
  C8       1.0000 0.24370  0.96700  0.74400  Biso   1.000  C
  N13      1.0000 0.31000  0.52700  0.26760  Biso   1.000  N
  N14      1.0000 0.69000  0.02700  0.23240  Biso   1.000  N
  N15      1.0000 0.69000  0.47300  0.73240  Biso   1.000  N
  N16      1.0000 0.31000  0.97300  0.76760  Biso   1.000  N
  C9       1.0000 0.31600  0.21300  0.09240  Biso   1.000  C
  C10      1.0000 0.68400  0.71300  0.40760  Biso   1.000  C
  C11      1.0000 0.68400  0.78700  0.90760  Biso   1.000  C
  C12      1.0000 0.31600  0.28700  0.59240  Biso   1.000  C
  C13      1.0000 0.18580  0.63300  0.28620  Biso   1.000  C
  C14      1.0000 0.81420  0.13300  0.21380  Biso   1.000  C
  C15      1.0000 0.81420  0.36700  0.71380  Biso   1.000  C
  C16      1.0000 0.18580  0.86700  0.78620  Biso   1.000  C
  C17      1.0000 0.37740  0.07000  0.07590  Biso   1.000  C
  C18      1.0000 0.62260  0.57000  0.42410  Biso   1.000  C
  C19      1.0000 0.62260  0.93000  0.92410  Biso   1.000  C
  C20      1.0000 0.37740  0.43000  0.57590  Biso   1.000  C
  H5       1.0000 0.41230  0.04500  0.10970  Biso   1.000  H
  H6       1.0000 0.58770  0.54500  0.39030  Biso   1.000  H
  H7       1.0000 0.58770  0.95500  0.89030  Biso   1.000  H
  H8       1.0000 0.41230  0.45500  0.60970  Biso   1.000  H
  N17      1.0000 0.34630  0.41100  0.21330  Biso   1.000  N
  N18      1.0000 0.65370  0.91100  0.28670  Biso   1.000  N
  N19      1.0000 0.65370  0.58900  0.78670  Biso   1.000  N
  N20      1.0000 0.34630  0.08900  0.71330  Biso   1.000  N
  C21      1.0000 0.19430  0.82500  0.34560  Biso   1.000  C
  C22      1.0000 0.80570  0.32500  0.15440  Biso   1.000  C
  C23      1.0000 0.80570  0.17500  0.65440  Biso   1.000  C
  C24      1.0000 0.19430  0.67500  0.84560  Biso   1.000  C
  H9       1.0000 0.23700  0.91580  0.35720  Biso   1.000  H
  H10      1.0000 0.76300  0.41580  0.14280  Biso   1.000  H
  H11      1.0000 0.76300  0.08420  0.64280  Biso   1.000  H
  H12      1.0000 0.23700  0.58420  0.85720  Biso   1.000  H
  C25      1.0000 0.30150  0.34300  0.16200  Biso   1.000  C
  C26      1.0000 0.69850  0.84300  0.33800  Biso   1.000  C
  C27      1.0000 0.69850  0.65700  0.83800  Biso   1.000  C
  C28      1.0000 0.30150  0.15700  0.66200  Biso   1.000  C
  C29      1.0000 0.26320  0.22200  0.04120  Biso   1.000  C
  C30      1.0000 0.73680  0.72200  0.45880  Biso   1.000  C
  C31      1.0000 0.73680  0.77800  0.95880  Biso   1.000  C
  C32      1.0000 0.26320  0.27800  0.54120  Biso   1.000  C
  H13      1.0000 0.21980  0.30120  0.05120  Biso   1.000  H
  H14      1.0000 0.78020  0.80120  0.44880  Biso   1.000  H
  H15      1.0000 0.78020  0.69880  0.94880  Biso   1.000  H
  H16      1.0000 0.21980  0.19880  0.55120  Biso   1.000  H
  C33      1.0000 0.38640  0.96400  0.00750  Biso   1.000  C
  C34      1.0000 0.61360  0.46400  0.49250  Biso   1.000  C
  C35      1.0000 0.61360  0.03600  0.99250  Biso   1.000  C
  C36      1.0000 0.38640  0.53600  0.50750  Biso   1.000  C
  H17      1.0000 0.42820  0.87010  0.99640  Biso   1.000  H
  H18      1.0000 0.57180  0.37010  0.50360  Biso   1.000  H
  H19      1.0000 0.57180  0.12990  0.00360  Biso   1.000  H
  H20      1.0000 0.42820  0.62990  0.49640  Biso   1.000  H
  C37      1.0000 0.27830  0.10800  0.97530  Biso   1.000  C
  C38      1.0000 0.72170  0.60800  0.52470  Biso   1.000  C
  C39      1.0000 0.72170  0.89200  0.02470  Biso   1.000  C
  C40      1.0000 0.27830  0.39200  0.47530  Biso   1.000  C
  H21      1.0000 0.24350  0.11590  0.94100  Biso   1.000  H
  H22      1.0000 0.75650  0.61590  0.55900  Biso   1.000  H
  H23      1.0000 0.75650  0.88410  0.05900  Biso   1.000  H
  H24      1.0000 0.24350  0.38410  0.44100  Biso   1.000  H
  C41      1.0000 0.06640  0.59200  0.31410  Biso   1.000  C
  C42      1.0000 0.93360  0.09200  0.18590  Biso   1.000  C
  C43      1.0000 0.93360  0.40800  0.68590  Biso   1.000  C
  C44      1.0000 0.06640  0.90800  0.81410  Biso   1.000  C
  H25      1.0000 0.02240  0.51740  0.30270  Biso   1.000  H
  H26      1.0000 0.97760  0.01740  0.19730  Biso   1.000  H
  H27      1.0000 0.97760  0.48260  0.69730  Biso   1.000  H
  H28      1.0000 0.02240  0.98260  0.80270  Biso   1.000  H
  C45      1.0000 0.13890  0.88100  0.38730  Biso   1.000  C
  C46      1.0000 0.86110  0.38100  0.11270  Biso   1.000  C
  C47      1.0000 0.86110  0.11900  0.61270  Biso   1.000  C
  C48      1.0000 0.13890  0.61900  0.88730  Biso   1.000  C
  H29      1.0000 0.14530  0.01020  0.42700  Biso   1.000  H
  H30      1.0000 0.85470  0.51020  0.07300  Biso   1.000  H
  H31      1.0000 0.85470  0.98980  0.57300  Biso   1.000  H
  H32      1.0000 0.14530  0.48980  0.92700  Biso   1.000  H
