data_image0
_cell_length_a       8.9212
_cell_length_b       19.5995
_cell_length_c       11.498
_cell_angle_alpha    90
_cell_angle_beta     101.555
_cell_angle_gamma    90

_symmetry_space_group_name_H-M    "P 1"
_symmetry_int_tables_number       1

loop_
  _symmetry_equiv_pos_as_xyz
  'x, y, z'

loop_
  _atom_site_label
  _atom_site_occupancy
  _atom_site_fract_x
  _atom_site_fract_y
  _atom_site_fract_z
  _atom_site_thermal_displace_type
  _atom_site_B_iso_or_equiv
  _atom_site_type_symbol
  Au1      1.0000 0.21370  0.11106  0.17322  Biso   1.000  Au
  Au2      1.0000 0.78630  0.61106  0.32678  Biso   1.000  Au
  Au3      1.0000 0.78630  0.88894  0.82678  Biso   1.000  Au
  Au4      1.0000 0.21370  0.38894  0.67322  Biso   1.000  Au
  Cu1      1.0000 0.21668  0.24267  0.27310  Biso   1.000  Cu
  Cu2      1.0000 0.78332  0.74267  0.22690  Biso   1.000  Cu
  Cu3      1.0000 0.78332  0.75733  0.72690  Biso   1.000  Cu
  Cu4      1.0000 0.21668  0.25733  0.77310  Biso   1.000  Cu
  C1       1.0000 0.01300  0.14530  0.21480  Biso   1.000  C
  C2       1.0000 0.98700  0.64530  0.28520  Biso   1.000  C
  C3       1.0000 0.98700  0.85470  0.78520  Biso   1.000  C
  C4       1.0000 0.01300  0.35470  0.71480  Biso   1.000  C
  C5       1.0000 0.90510  0.18250  0.13810  Biso   1.000  C
  C6       1.0000 0.09490  0.68250  0.36190  Biso   1.000  C
  C7       1.0000 0.09490  0.81750  0.86190  Biso   1.000  C
  C8       1.0000 0.90510  0.31750  0.63810  Biso   1.000  C
  C9       1.0000 0.77300  0.20710  0.16670  Biso   1.000  C
  C10      1.0000 0.22700  0.70710  0.33330  Biso   1.000  C
  C11      1.0000 0.22700  0.79290  0.83330  Biso   1.000  C
  C12      1.0000 0.77300  0.29290  0.66670  Biso   1.000  C
  C13      1.0000 0.74340  0.19470  0.27830  Biso   1.000  C
  C14      1.0000 0.25660  0.69470  0.22170  Biso   1.000  C
  C15      1.0000 0.25660  0.80530  0.72170  Biso   1.000  C
  C16      1.0000 0.74340  0.30530  0.77830  Biso   1.000  C
  C17      1.0000 0.84300  0.15630  0.35650  Biso   1.000  C
  C18      1.0000 0.15700  0.65630  0.14350  Biso   1.000  C
  C19      1.0000 0.15700  0.84370  0.64350  Biso   1.000  C
  C20      1.0000 0.84300  0.34370  0.85650  Biso   1.000  C
  C21      1.0000 0.97410  0.13240  0.32430  Biso   1.000  C
  C22      1.0000 0.02590  0.63240  0.17570  Biso   1.000  C
  C23      1.0000 0.02590  0.86760  0.67570  Biso   1.000  C
  C24      1.0000 0.97410  0.36760  0.82430  Biso   1.000  C
  F1       1.0000 0.92700  0.19750  0.02770  Biso   1.000  F
  F2       1.0000 0.07300  0.69750  0.47230  Biso   1.000  F
  F3       1.0000 0.07300  0.80250  0.97230  Biso   1.000  F
  F4       1.0000 0.92700  0.30250  0.52770  Biso   1.000  F
  F5       1.0000 0.67090  0.24403  0.08860  Biso   1.000  F
  F6       1.0000 0.32910  0.74403  0.41140  Biso   1.000  F
  F7       1.0000 0.32910  0.75597  0.91140  Biso   1.000  F
  F8       1.0000 0.67090  0.25597  0.58860  Biso   1.000  F
  F9       1.0000 0.61440  0.21937  0.30750  Biso   1.000  F
  F10      1.0000 0.38560  0.71937  0.19250  Biso   1.000  F
  F11      1.0000 0.38560  0.78063  0.69250  Biso   1.000  F
  F12      1.0000 0.61440  0.28063  0.80750  Biso   1.000  F
  F13      1.0000 0.81330  0.14146  0.46460  Biso   1.000  F
  F14      1.0000 0.18670  0.64146  0.03540  Biso   1.000  F
  F15      1.0000 0.18670  0.85854  0.53540  Biso   1.000  F
  F16      1.0000 0.81330  0.35854  0.96460  Biso   1.000  F
  F17      1.0000 0.07010  0.09436  0.40670  Biso   1.000  F
  F18      1.0000 0.92990  0.59436  0.09330  Biso   1.000  F
  F19      1.0000 0.92990  0.90564  0.59330  Biso   1.000  F
  F20      1.0000 0.07010  0.40564  0.90670  Biso   1.000  F
  C25      1.0000 0.41730  0.07910  0.13620  Biso   1.000  C
  C26      1.0000 0.58270  0.57910  0.36380  Biso   1.000  C
  C27      1.0000 0.58270  0.92090  0.86380  Biso   1.000  C
  C28      1.0000 0.41730  0.42090  0.63620  Biso   1.000  C
  C29      1.0000 0.52370  0.04050  0.21410  Biso   1.000  C
  C30      1.0000 0.47630  0.54050  0.28590  Biso   1.000  C
  C31      1.0000 0.47630  0.95950  0.78590  Biso   1.000  C
  C32      1.0000 0.52370  0.45950  0.71410  Biso   1.000  C
  C33      1.0000 0.66240  0.01950  0.19230  Biso   1.000  C
  C34      1.0000 0.33760  0.51950  0.30770  Biso   1.000  C
  C35      1.0000 0.33760  0.98050  0.80770  Biso   1.000  C
  C36      1.0000 0.66240  0.48050  0.69230  Biso   1.000  C
  C37      1.0000 0.70450  0.03790  0.08760  Biso   1.000  C
  C38      1.0000 0.29550  0.53790  0.41240  Biso   1.000  C
  C39      1.0000 0.29550  0.96210  0.91240  Biso   1.000  C
  C40      1.0000 0.70450  0.46210  0.58760  Biso   1.000  C
  C41      1.0000 0.60550  0.07700  0.00770  Biso   1.000  C
  C42      1.0000 0.39450  0.57700  0.49230  Biso   1.000  C
  C43      1.0000 0.39450  0.92300  0.99230  Biso   1.000  C
  C44      1.0000 0.60550  0.42300  0.50770  Biso   1.000  C
  C45      1.0000 0.46670  0.09590  0.03300  Biso   1.000  C
  C46      1.0000 0.53330  0.59590  0.46700  Biso   1.000  C
  C47      1.0000 0.53330  0.90410  0.96700  Biso   1.000  C
  C48      1.0000 0.46670  0.40410  0.53300  Biso   1.000  C
  F21      1.0000 0.48930  0.02023  0.31960  Biso   1.000  F
  F22      1.0000 0.51070  0.52023  0.18040  Biso   1.000  F
  F23      1.0000 0.51070  0.97977  0.68040  Biso   1.000  F
  F24      1.0000 0.48930  0.47977  0.81960  Biso   1.000  F
  F25      1.0000 0.75850  0.98134  0.27270  Biso   1.000  F
  F26      1.0000 0.24150  0.48134  0.22730  Biso   1.000  F
  F27      1.0000 0.24150  0.01866  0.72730  Biso   1.000  F
  F28      1.0000 0.75850  0.51866  0.77270  Biso   1.000  F
  F29      1.0000 0.83850  0.01755  0.06400  Biso   1.000  F
  F30      1.0000 0.16150  0.51755  0.43600  Biso   1.000  F
  F31      1.0000 0.16150  0.98245  0.93600  Biso   1.000  F
  F32      1.0000 0.83850  0.48245  0.56400  Biso   1.000  F
  F33      1.0000 0.64540  0.09574  0.90480  Biso   1.000  F
  F34      1.0000 0.35460  0.59574  0.59520  Biso   1.000  F
  F35      1.0000 0.35460  0.90426  0.09520  Biso   1.000  F
  F36      1.0000 0.64540  0.40426  0.40480  Biso   1.000  F
  F37      1.0000 0.37320  0.13229  0.94680  Biso   1.000  F
  F38      1.0000 0.62680  0.63229  0.55320  Biso   1.000  F
  F39      1.0000 0.62680  0.86771  0.05320  Biso   1.000  F
  F40      1.0000 0.37320  0.36771  0.44680  Biso   1.000  F
  N1       1.0000 0.30770  0.20911  0.43490  Biso   1.000  N
  N2       1.0000 0.69230  0.70911  0.06510  Biso   1.000  N
  N3       1.0000 0.69230  0.79089  0.56510  Biso   1.000  N
  N4       1.0000 0.30770  0.29089  0.93490  Biso   1.000  N
  C49      1.0000 0.40320  0.15550  0.45790  Biso   1.000  C
  C50      1.0000 0.59680  0.65550  0.04210  Biso   1.000  C
  C51      1.0000 0.59680  0.84450  0.54210  Biso   1.000  C
  C52      1.0000 0.40320  0.34450  0.95790  Biso   1.000  C
  H1       1.0000 0.43820  0.13490  0.39550  Biso   1.000  H
  H2       1.0000 0.56180  0.63490  0.10450  Biso   1.000  H
  H3       1.0000 0.56180  0.86510  0.60450  Biso   1.000  H
  H4       1.0000 0.43820  0.36510  0.89550  Biso   1.000  H
  C53      1.0000 0.45060  0.13030  0.57060  Biso   1.000  C
  C54      1.0000 0.54940  0.63030  0.92940  Biso   1.000  C
  C55      1.0000 0.54940  0.86970  0.42940  Biso   1.000  C
  C56      1.0000 0.45060  0.36970  0.07060  Biso   1.000  C
  H5       1.0000 0.51530  0.09280  0.58540  Biso   1.000  H
  H6       1.0000 0.48470  0.59280  0.91460  Biso   1.000  H
  H7       1.0000 0.48470  0.90720  0.41460  Biso   1.000  H
  H8       1.0000 0.51530  0.40720  0.08540  Biso   1.000  H
  C57      1.0000 0.39850  0.16290  0.66110  Biso   1.000  C
  C58      1.0000 0.60150  0.66290  0.83890  Biso   1.000  C
  C59      1.0000 0.60150  0.83710  0.33890  Biso   1.000  C
  C60      1.0000 0.39850  0.33710  0.16110  Biso   1.000  C
  H9       1.0000 0.42890  0.14670  0.73820  Biso   1.000  H
  H10      1.0000 0.57110  0.64670  0.76180  Biso   1.000  H
  H11      1.0000 0.57110  0.85330  0.26180  Biso   1.000  H
  H12      1.0000 0.42890  0.35330  0.23820  Biso   1.000  H
  N5       1.0000 0.30530  0.21725  0.64140  Biso   1.000  N
  N6       1.0000 0.69470  0.71725  0.85860  Biso   1.000  N
  N7       1.0000 0.69470  0.78275  0.35860  Biso   1.000  N
  N8       1.0000 0.30530  0.28275  0.14140  Biso   1.000  N
  C61      1.0000 0.26320  0.23740  0.52870  Biso   1.000  C
  C62      1.0000 0.73680  0.73740  0.97130  Biso   1.000  C
  C63      1.0000 0.73680  0.76260  0.47130  Biso   1.000  C
  C64      1.0000 0.26320  0.26260  0.02870  Biso   1.000  C
  H13      1.0000 0.19710  0.27450  0.51390  Biso   1.000  H
  H14      1.0000 0.80290  0.77450  0.98610  Biso   1.000  H
  H15      1.0000 0.80290  0.72550  0.48610  Biso   1.000  H
  H16      1.0000 0.19710  0.22550  0.01390  Biso   1.000  H
  N9       1.0000 0.05780  0.31710  0.28080  Biso   1.000  N
  N10      1.0000 0.94220  0.81710  0.21920  Biso   1.000  N
  N11      1.0000 0.94220  0.68290  0.71920  Biso   1.000  N
  N12      1.0000 0.05780  0.18290  0.78080  Biso   1.000  N
  C65      1.0000 0.98770  0.36600  0.26690  Biso   1.000  C
  C66      1.0000 0.01230  0.86600  0.23310  Biso   1.000  C
  C67      1.0000 0.01230  0.63400  0.73310  Biso   1.000  C
  C68      1.0000 0.98770  0.13400  0.76690  Biso   1.000  C
  C69      1.0000 0.89780  0.42900  0.24690  Biso   1.000  C
  C70      1.0000 0.10220  0.92900  0.25310  Biso   1.000  C
  C71      1.0000 0.10220  0.57100  0.75310  Biso   1.000  C
  C72      1.0000 0.89780  0.07100  0.74690  Biso   1.000  C
  H17      1.0000 0.93560  0.45710  0.19080  Biso   1.000  H
  H18      1.0000 0.06440  0.95710  0.30920  Biso   1.000  H
  H19      1.0000 0.06440  0.54290  0.80920  Biso   1.000  H
  H20      1.0000 0.93560  0.04290  0.69080  Biso   1.000  H
  H21      1.0000 0.90640  0.45320  0.32060  Biso   1.000  H
  H22      1.0000 0.09360  0.95320  0.17940  Biso   1.000  H
  H23      1.0000 0.09360  0.54680  0.67940  Biso   1.000  H
  H24      1.0000 0.90640  0.04680  0.82060  Biso   1.000  H
  H25      1.0000 0.79240  0.41800  0.21630  Biso   1.000  H
  H26      1.0000 0.20760  0.91800  0.28370  Biso   1.000  H
  H27      1.0000 0.20760  0.58200  0.78370  Biso   1.000  H
  H28      1.0000 0.79240  0.08200  0.71630  Biso   1.000  H
