data_image0
_cell_length_a       9.657
_cell_length_b       6.441
_cell_length_c       11.459
_cell_angle_alpha    90
_cell_angle_beta     111.96
_cell_angle_gamma    90

_symmetry_space_group_name_H-M    "P 1"
_symmetry_int_tables_number       1

loop_
  _symmetry_equiv_pos_as_xyz
  'x, y, z'

loop_
  _atom_site_label
  _atom_site_occupancy
  _atom_site_fract_x
  _atom_site_fract_y
  _atom_site_fract_z
  _atom_site_thermal_displace_type
  _atom_site_B_iso_or_equiv
  _atom_site_type_symbol
  Cu1      1.0000 0.99770  0.03980  0.12808  Biso   1.000  Cu
  Cu2      1.0000 0.00230  0.53980  0.37192  Biso   1.000  Cu
  Cu3      1.0000 0.00230  0.96020  0.87192  Biso   1.000  Cu
  Cu4      1.0000 0.99770  0.46020  0.62808  Biso   1.000  Cu
  Cl1      1.0000 0.82140  0.63400  0.45250  Biso   1.000  Cl
  Cl2      1.0000 0.17860  0.13400  0.04750  Biso   1.000  Cl
  Cl3      1.0000 0.17860  0.36600  0.54750  Biso   1.000  Cl
  Cl4      1.0000 0.82140  0.86600  0.95250  Biso   1.000  Cl
  S1       1.0000 0.89270  0.27330  0.22110  Biso   1.000  S
  S2       1.0000 0.10730  0.77330  0.27890  Biso   1.000  S
  S3       1.0000 0.10730  0.72670  0.77890  Biso   1.000  S
  S4       1.0000 0.89270  0.22670  0.72110  Biso   1.000  S
  C1       1.0000 0.72020  0.37890  0.10260  Biso   1.000  C
  C2       1.0000 0.27980  0.87890  0.39740  Biso   1.000  C
  C3       1.0000 0.27980  0.62110  0.89740  Biso   1.000  C
  C4       1.0000 0.72020  0.12110  0.60260  Biso   1.000  C
  C5       1.0000 0.59470  0.29740  0.13140  Biso   1.000  C
  C6       1.0000 0.40530  0.79740  0.36860  Biso   1.000  C
  C7       1.0000 0.40530  0.70260  0.86860  Biso   1.000  C
  C8       1.0000 0.59470  0.20260  0.63140  Biso   1.000  C
  C9       1.0000 0.63100  0.08140  0.19210  Biso   1.000  C
  C10      1.0000 0.36900  0.58140  0.30790  Biso   1.000  C
  C11      1.0000 0.36900  0.91860  0.80790  Biso   1.000  C
  C12      1.0000 0.63100  0.41860  0.69210  Biso   1.000  C
  C13      1.0000 0.78860  0.10760  0.29210  Biso   1.000  C
  C14      1.0000 0.21140  0.60760  0.20790  Biso   1.000  C
  C15      1.0000 0.21140  0.89240  0.70790  Biso   1.000  C
  C16      1.0000 0.78860  0.39240  0.79210  Biso   1.000  C
  H1       1.0000 0.72620  0.36960  0.01430  Biso   1.000  H
  H2       1.0000 0.27380  0.86960  0.48570  Biso   1.000  H
  H3       1.0000 0.27380  0.63040  0.98570  Biso   1.000  H
  H4       1.0000 0.72620  0.13040  0.51430  Biso   1.000  H
  H5       1.0000 0.70610  0.53110  0.12440  Biso   1.000  H
  H6       1.0000 0.29390  0.03110  0.37560  Biso   1.000  H
  H7       1.0000 0.29390  0.46890  0.87560  Biso   1.000  H
  H8       1.0000 0.70610  0.96890  0.62440  Biso   1.000  H
  H9       1.0000 0.83430  0.95960  0.30350  Biso   1.000  H
  H10      1.0000 0.16570  0.45960  0.19650  Biso   1.000  H
  H11      1.0000 0.16570  0.04040  0.69650  Biso   1.000  H
  H12      1.0000 0.83430  0.54040  0.80350  Biso   1.000  H
  H13      1.0000 0.81390  0.16850  0.38650  Biso   1.000  H
  H14      1.0000 0.18610  0.66850  0.11350  Biso   1.000  H
  H15      1.0000 0.18610  0.83150  0.61350  Biso   1.000  H
  H16      1.0000 0.81390  0.33150  0.88650  Biso   1.000  H
  C17      1.0000 0.60440  0.22390  0.09190  Biso   1.000  C
  C18      1.0000 0.39560  0.72390  0.40810  Biso   1.000  C
  C19      1.0000 0.39560  0.77610  0.90810  Biso   1.000  C
  C20      1.0000 0.60440  0.27610  0.59190  Biso   1.000  C
  C21      1.0000 0.63000  0.16090  0.23770  Biso   1.000  C
  C22      1.0000 0.37000  0.66090  0.26230  Biso   1.000  C
  C23      1.0000 0.37000  0.83910  0.76230  Biso   1.000  C
  C24      1.0000 0.63000  0.33910  0.73770  Biso   1.000  C
