data_image0
_cell_length_a       12.513
_cell_length_b       6.698
_cell_length_c       9.651
_cell_angle_alpha    91.98
_cell_angle_beta     107.86
_cell_angle_gamma    74.59

_symmetry_space_group_name_H-M    "P 1"
_symmetry_int_tables_number       1

loop_
  _symmetry_equiv_pos_as_xyz
  'x, y, z'

loop_
  _atom_site_label
  _atom_site_occupancy
  _atom_site_fract_x
  _atom_site_fract_y
  _atom_site_fract_z
  _atom_site_thermal_displace_type
  _atom_site_B_iso_or_equiv
  _atom_site_type_symbol
  Cu1      1.0000 0.39393  0.11797  0.92595  Biso   1.000  Cu
  Cu2      1.0000 0.60607  0.88203  0.07405  Biso   1.000  Cu
  Cu3      1.0000 0.43682  0.47001  0.09340  Biso   1.000  Cu
  Cu4      1.0000 0.56318  0.52999  0.90660  Biso   1.000  Cu
  Cu5      1.0000 0.12847  0.90842  0.01288  Biso   1.000  Cu
  Cu6      1.0000 0.87153  0.09158  0.98712  Biso   1.000  Cu
  Cl1      1.0000 0.48723  0.11811  0.18498  Biso   1.000  Cl
  Cl2      1.0000 0.51277  0.88189  0.81502  Biso   1.000  Cl
  Cl3      1.0000 0.38493  0.44822  0.83068  Biso   1.000  Cl
  Cl4      1.0000 0.61507  0.55178  0.16932  Biso   1.000  Cl
  Cl5      1.0000 0.03801  0.14918  0.15556  Biso   1.000  Cl
  Cl6      1.0000 0.96199  0.85082  0.84444  Biso   1.000  Cl
  S1       1.0000 0.21227  0.07572  0.88102  Biso   1.000  S
  S2       1.0000 0.78773  0.92428  0.11898  Biso   1.000  S
  S3       1.0000 0.28243  0.66053  0.15770  Biso   1.000  S
  S4       1.0000 0.71757  0.33947  0.84230  Biso   1.000  S
  C1       1.0000 0.11510  0.33530  0.83350  Biso   1.000  C
  C2       1.0000 0.88490  0.66470  0.16650  Biso   1.000  C
  C3       1.0000 0.07350  0.36020  0.67390  Biso   1.000  C
  C4       1.0000 0.92650  0.63980  0.32610  Biso   1.000  C
  C5       1.0000 0.06850  0.17020  0.60750  Biso   1.000  C
  C6       1.0000 0.93150  0.82980  0.39250  Biso   1.000  C
  C7       1.0000 0.17450  0.98960  0.69540  Biso   1.000  C
  C8       1.0000 0.82550  0.01040  0.30460  Biso   1.000  C
  C9       1.0000 0.23690  0.47370  0.24450  Biso   1.000  C
  C10      1.0000 0.76310  0.52630  0.75550  Biso   1.000  C
  C11      1.0000 0.29420  0.47920  0.40280  Biso   1.000  C
  C12      1.0000 0.70580  0.52080  0.59720  Biso   1.000  C
  C13      1.0000 0.30280  0.69280  0.43740  Biso   1.000  C
  C14      1.0000 0.69720  0.30720  0.56260  Biso   1.000  C
  C15      1.0000 0.34200  0.77960  0.32740  Biso   1.000  C
  C16      1.0000 0.65800  0.22040  0.67260  Biso   1.000  C
  H1       1.0000 0.16150  0.44970  0.87810  Biso   1.000  H
  H2       1.0000 0.83850  0.55030  0.12190  Biso   1.000  H
  H3       1.0000 0.04280  0.35400  0.87660  Biso   1.000  H
  H4       1.0000 0.95720  0.64600  0.12340  Biso   1.000  H
  H5       1.0000 0.97860  0.42160  0.64160  Biso   1.000  H
  H6       1.0000 0.02140  0.57840  0.35840  Biso   1.000  H
  H7       1.0000 0.11030  0.47010  0.64120  Biso   1.000  H
  H8       1.0000 0.88970  0.52990  0.35880  Biso   1.000  H
  H9       1.0000 0.12960  0.87110  0.69140  Biso   1.000  H
  H10      1.0000 0.87040  0.12890  0.30860  Biso   1.000  H
  H11      1.0000 0.25440  0.92400  0.66940  Biso   1.000  H
  H12      1.0000 0.74560  0.07600  0.33060  Biso   1.000  H
  H13      1.0000 0.28050  0.42090  0.16410  Biso   1.000  H
  H14      1.0000 0.71950  0.57910  0.83590  Biso   1.000  H
  H15      1.0000 0.14590  0.47180  0.19960  Biso   1.000  H
  H16      1.0000 0.85410  0.52820  0.80040  Biso   1.000  H
  H17      1.0000 0.38530  0.38340  0.43300  Biso   1.000  H
  H18      1.0000 0.61470  0.61660  0.56700  Biso   1.000  H
  H19      1.0000 0.25070  0.43420  0.46840  Biso   1.000  H
  H20      1.0000 0.74930  0.56580  0.53160  Biso   1.000  H
  H21      1.0000 0.28240  0.88880  0.23940  Biso   1.000  H
  H22      1.0000 0.71760  0.11120  0.76060  Biso   1.000  H
  H23      1.0000 0.42930  0.79340  0.34640  Biso   1.000  H
  H24      1.0000 0.57070  0.20660  0.65360  Biso   1.000  H
  C17      1.0000 0.13590  0.17030  0.59980  Biso   1.000  C
  C18      1.0000 0.86410  0.82970  0.40020  Biso   1.000  C
  C19      1.0000 0.36900  0.63320  0.45350  Biso   1.000  C
  C20      1.0000 0.63100  0.36680  0.54650  Biso   1.000  C
