data_image0
_cell_length_a       19.327
_cell_length_b       6.703
_cell_length_c       10.116
_cell_angle_alpha    90
_cell_angle_beta     103.04
_cell_angle_gamma    90

_symmetry_space_group_name_H-M    "P 1"
_symmetry_int_tables_number       1

loop_
  _symmetry_equiv_pos_as_xyz
  'x, y, z'

loop_
  _atom_site_label
  _atom_site_occupancy
  _atom_site_fract_x
  _atom_site_fract_y
  _atom_site_fract_z
  _atom_site_thermal_displace_type
  _atom_site_B_iso_or_equiv
  _atom_site_type_symbol
  Cu1      1.0000 0.03926  0.18663  0.01745  Biso   1.000  Cu
  Cu2      1.0000 0.46074  0.68663  0.48255  Biso   1.000  Cu
  Cu3      1.0000 0.96074  0.81337  0.98255  Biso   1.000  Cu
  Cu4      1.0000 0.53926  0.31337  0.51745  Biso   1.000  Cu
  Cu5      1.0000 0.99877  0.50350  0.34481  Biso   1.000  Cu
  Cu6      1.0000 0.50123  0.00350  0.15519  Biso   1.000  Cu
  Cu7      1.0000 0.00123  0.49650  0.65519  Biso   1.000  Cu
  Cu8      1.0000 0.49877  0.99650  0.84481  Biso   1.000  Cu
  Cl1      1.0000 0.91502  0.15890  0.95930  Biso   1.000  Cl
  Cl2      1.0000 0.58498  0.65890  0.54070  Biso   1.000  Cl
  Cl3      1.0000 0.08498  0.84110  0.04070  Biso   1.000  Cl
  Cl4      1.0000 0.41502  0.34110  0.45930  Biso   1.000  Cl
  Cl5      1.0000 0.07384  0.66160  0.53230  Biso   1.000  Cl
  Cl6      1.0000 0.42616  0.16160  0.96770  Biso   1.000  Cl
  Cl7      1.0000 0.92616  0.33840  0.46770  Biso   1.000  Cl
  Cl8      1.0000 0.57384  0.83840  0.03230  Biso   1.000  Cl
  S1       1.0000 0.06953  0.31230  0.23430  Biso   1.000  S
  S2       1.0000 0.43047  0.81230  0.26570  Biso   1.000  S
  S3       1.0000 0.93047  0.68770  0.76570  Biso   1.000  S
  S4       1.0000 0.56953  0.18770  0.73430  Biso   1.000  S
  S5       1.0000 0.07006  0.30200  0.82360  Biso   1.000  S
  S6       1.0000 0.42994  0.80200  0.67640  Biso   1.000  S
  S7       1.0000 0.92994  0.69800  0.17640  Biso   1.000  S
  S8       1.0000 0.57006  0.19800  0.32360  Biso   1.000  S
  C1       1.0000 0.09610  0.09530  0.34470  Biso   1.000  C
  C2       1.0000 0.40390  0.59530  0.15530  Biso   1.000  C
  C3       1.0000 0.90390  0.90470  0.65530  Biso   1.000  C
  C4       1.0000 0.59610  0.40470  0.84470  Biso   1.000  C
  C5       1.0000 0.17520  0.09700  0.37800  Biso   1.000  C
  C6       1.0000 0.32480  0.59700  0.12200  Biso   1.000  C
  C7       1.0000 0.82480  0.90300  0.62200  Biso   1.000  C
  C8       1.0000 0.67520  0.40300  0.87800  Biso   1.000  C
  C9       1.0000 0.20200  0.29960  0.39550  Biso   1.000  C
  C10      1.0000 0.29800  0.79960  0.10450  Biso   1.000  C
  C11      1.0000 0.79800  0.70040  0.60450  Biso   1.000  C
  C12      1.0000 0.70200  0.20040  0.89550  Biso   1.000  C
  C13      1.0000 0.15870  0.42390  0.27360  Biso   1.000  C
  C14      1.0000 0.34130  0.92390  0.22640  Biso   1.000  C
  C15      1.0000 0.84130  0.57610  0.72640  Biso   1.000  C
  C16      1.0000 0.65870  0.07610  0.77360  Biso   1.000  C
  C17      1.0000 0.09520  0.07590  0.74290  Biso   1.000  C
  C18      1.0000 0.40480  0.57590  0.75710  Biso   1.000  C
  C19      1.0000 0.90480  0.92410  0.25710  Biso   1.000  C
  C20      1.0000 0.59520  0.42410  0.24290  Biso   1.000  C
  C21      1.0000 0.17570  0.06970  0.77870  Biso   1.000  C
  C22      1.0000 0.32430  0.56970  0.72130  Biso   1.000  C
  C23      1.0000 0.82430  0.93030  0.22130  Biso   1.000  C
  C24      1.0000 0.67570  0.43030  0.27870  Biso   1.000  C
  C25      1.0000 0.20520  0.21620  0.89100  Biso   1.000  C
  C26      1.0000 0.29480  0.71620  0.60900  Biso   1.000  C
  C27      1.0000 0.79480  0.78380  0.10900  Biso   1.000  C
  C28      1.0000 0.70520  0.28380  0.39100  Biso   1.000  C
  C29      1.0000 0.16050  0.40020  0.86690  Biso   1.000  C
  C30      1.0000 0.33950  0.90020  0.63310  Biso   1.000  C
  C31      1.0000 0.83950  0.59980  0.13310  Biso   1.000  C
  C32      1.0000 0.66050  0.09980  0.36690  Biso   1.000  C
  H1       1.0000 0.07490  0.95620  0.29130  Biso   1.000  H
  H2       1.0000 0.42510  0.45620  0.20870  Biso   1.000  H
  H3       1.0000 0.92510  0.04380  0.70870  Biso   1.000  H
  H4       1.0000 0.57490  0.54380  0.79130  Biso   1.000  H
  H5       1.0000 0.07540  0.10400  0.43590  Biso   1.000  H
  H6       1.0000 0.42460  0.60400  0.06410  Biso   1.000  H
  H7       1.0000 0.92460  0.89600  0.56410  Biso   1.000  H
  H8       1.0000 0.57540  0.39600  0.93590  Biso   1.000  H
  H9       1.0000 0.19360  0.00620  0.30150  Biso   1.000  H
  H10      1.0000 0.30640  0.50620  0.19850  Biso   1.000  H
  H11      1.0000 0.80640  0.99380  0.69850  Biso   1.000  H
  H12      1.0000 0.69360  0.49380  0.80150  Biso   1.000  H
  H13      1.0000 0.19440  0.02330  0.47600  Biso   1.000  H
  H14      1.0000 0.30560  0.52330  0.02400  Biso   1.000  H
  H15      1.0000 0.80560  0.97670  0.52400  Biso   1.000  H
  H16      1.0000 0.69440  0.47670  0.97600  Biso   1.000  H
  H17      1.0000 0.15700  0.57830  0.31050  Biso   1.000  H
  H18      1.0000 0.34300  0.07830  0.18950  Biso   1.000  H
  H19      1.0000 0.84300  0.42170  0.68950  Biso   1.000  H
  H20      1.0000 0.65700  0.92170  0.81050  Biso   1.000  H
  H21      1.0000 0.18050  0.43250  0.18210  Biso   1.000  H
  H22      1.0000 0.31950  0.93250  0.31790  Biso   1.000  H
  H23      1.0000 0.81950  0.56750  0.81790  Biso   1.000  H
  H24      1.0000 0.68050  0.06750  0.68210  Biso   1.000  H
  H25      1.0000 0.07450  0.08140  0.63460  Biso   1.000  H
  H26      1.0000 0.42550  0.58140  0.86540  Biso   1.000  H
  H27      1.0000 0.92550  0.91860  0.36540  Biso   1.000  H
  H28      1.0000 0.57450  0.41860  0.13460  Biso   1.000  H
  H29      1.0000 0.07300  0.94460  0.78310  Biso   1.000  H
  H30      1.0000 0.42700  0.44460  0.71690  Biso   1.000  H
  H31      1.0000 0.92700  0.05540  0.21690  Biso   1.000  H
  H32      1.0000 0.57300  0.55540  0.28310  Biso   1.000  H
  H33      1.0000 0.19640  0.10580  0.68980  Biso   1.000  H
  H34      1.0000 0.30360  0.60580  0.81020  Biso   1.000  H
  H35      1.0000 0.80360  0.89420  0.31020  Biso   1.000  H
  H36      1.0000 0.69640  0.39420  0.18980  Biso   1.000  H
  H37      1.0000 0.19440  0.91860  0.81160  Biso   1.000  H
  H38      1.0000 0.30560  0.41860  0.68840  Biso   1.000  H
  H39      1.0000 0.80560  0.08140  0.18840  Biso   1.000  H
  H40      1.0000 0.69440  0.58140  0.31160  Biso   1.000  H
  H41      1.0000 0.25940  0.25110  0.89250  Biso   1.000  H
  H42      1.0000 0.24060  0.75110  0.60750  Biso   1.000  H
  H43      1.0000 0.74060  0.74890  0.10750  Biso   1.000  H
  H44      1.0000 0.75940  0.24890  0.39250  Biso   1.000  H
  H45      1.0000 0.20160  0.15120  0.98780  Biso   1.000  H
  H46      1.0000 0.29840  0.65120  0.51220  Biso   1.000  H
  H47      1.0000 0.79840  0.84880  0.01220  Biso   1.000  H
  H48      1.0000 0.70160  0.34880  0.48780  Biso   1.000  H
  H49      1.0000 0.16910  0.49290  0.95560  Biso   1.000  H
  H50      1.0000 0.33090  0.99290  0.54440  Biso   1.000  H
  H51      1.0000 0.83090  0.50710  0.04440  Biso   1.000  H
  H52      1.0000 0.66910  0.00710  0.45560  Biso   1.000  H
  H53      1.0000 0.17210  0.48500  0.78260  Biso   1.000  H
  H54      1.0000 0.32790  0.98500  0.71740  Biso   1.000  H
  H55      1.0000 0.82790  0.51500  0.21740  Biso   1.000  H
  H56      1.0000 0.67210  0.01500  0.28260  Biso   1.000  H
  C33      1.0000 0.21270  0.26350  0.31950  Biso   1.000  C
  C34      1.0000 0.28730  0.76350  0.18050  Biso   1.000  C
  C35      1.0000 0.78730  0.73650  0.68050  Biso   1.000  C
  C36      1.0000 0.71270  0.23650  0.81950  Biso   1.000  C
