data_image0
_cell_length_a       7.293
_cell_length_b       17.947
_cell_length_c       7.398
_cell_angle_alpha    90
_cell_angle_beta     93.56
_cell_angle_gamma    90

_symmetry_space_group_name_H-M    "P 1"
_symmetry_int_tables_number       1

loop_
  _symmetry_equiv_pos_as_xyz
  'x, y, z'

loop_
  _atom_site_label
  _atom_site_occupancy
  _atom_site_fract_x
  _atom_site_fract_y
  _atom_site_fract_z
  _atom_site_thermal_displace_type
  _atom_site_B_iso_or_equiv
  _atom_site_type_symbol
  Cu1      1.0000 0.37590  0.08060  0.91360  Biso   1.000  Cu
  Cu2      1.0000 0.62410  0.58060  0.58640  Biso   1.000  Cu
  Cu3      1.0000 0.62410  0.91940  0.08640  Biso   1.000  Cu
  Cu4      1.0000 0.37590  0.41940  0.41360  Biso   1.000  Cu
  Cl1      1.0000 0.31090  0.00560  0.15560  Biso   1.000  Cl
  Cl2      1.0000 0.68910  0.50560  0.34440  Biso   1.000  Cl
  Cl3      1.0000 0.68910  0.99440  0.84440  Biso   1.000  Cl
  Cl4      1.0000 0.31090  0.49440  0.65560  Biso   1.000  Cl
  N1       1.0000 0.51190  0.29350  0.05590  Biso   1.000  N
  N2       1.0000 0.48810  0.79350  0.44410  Biso   1.000  N
  N3       1.0000 0.48810  0.70650  0.94410  Biso   1.000  N
  N4       1.0000 0.51190  0.20650  0.55590  Biso   1.000  N
  N5       1.0000 0.40620  0.23880  0.98230  Biso   1.000  N
  N6       1.0000 0.59380  0.73880  0.51770  Biso   1.000  N
  N7       1.0000 0.59380  0.76120  0.01770  Biso   1.000  N
  N8       1.0000 0.40620  0.26120  0.48230  Biso   1.000  N
  N9       1.0000 0.48780  0.17490  0.01450  Biso   1.000  N
  N10      1.0000 0.51220  0.67490  0.48550  Biso   1.000  N
  N11      1.0000 0.51220  0.82510  0.98550  Biso   1.000  N
  N12      1.0000 0.48780  0.32510  0.51450  Biso   1.000  N
  C1       1.0000 0.22580  0.45590  0.18170  Biso   1.000  C
  C2       1.0000 0.77420  0.95590  0.31830  Biso   1.000  C
  C3       1.0000 0.77420  0.54410  0.81830  Biso   1.000  C
  C4       1.0000 0.22580  0.04410  0.68170  Biso   1.000  C
  C5       1.0000 0.29000  0.38680  0.15120  Biso   1.000  C
  C6       1.0000 0.71000  0.88680  0.34880  Biso   1.000  C
  C7       1.0000 0.71000  0.61320  0.84880  Biso   1.000  C
  C8       1.0000 0.29000  0.11320  0.65120  Biso   1.000  C
  C9       1.0000 0.44890  0.37060  0.03840  Biso   1.000  C
  C10      1.0000 0.55110  0.87060  0.46160  Biso   1.000  C
  C11      1.0000 0.55110  0.62940  0.96160  Biso   1.000  C
  C12      1.0000 0.44890  0.12940  0.53840  Biso   1.000  C
  C13      1.0000 0.79270  0.13940  0.16990  Biso   1.000  C
  C14      1.0000 0.20730  0.63940  0.33010  Biso   1.000  C
  C15      1.0000 0.20730  0.86060  0.83010  Biso   1.000  C
  C16      1.0000 0.79270  0.36060  0.66990  Biso   1.000  C
  C17      1.0000 0.94160  0.17160  0.25950  Biso   1.000  C
  C18      1.0000 0.05840  0.67160  0.24050  Biso   1.000  C
  C19      1.0000 0.05840  0.82840  0.74050  Biso   1.000  C
  C20      1.0000 0.94160  0.32840  0.75950  Biso   1.000  C
  C21      1.0000 0.95610  0.24780  0.29290  Biso   1.000  C
  C22      1.0000 0.04390  0.74780  0.20710  Biso   1.000  C
  C23      1.0000 0.04390  0.75220  0.70710  Biso   1.000  C
  C24      1.0000 0.95610  0.25220  0.79290  Biso   1.000  C
  C25      1.0000 0.81960  0.29760  0.23100  Biso   1.000  C
  C26      1.0000 0.18040  0.79760  0.26900  Biso   1.000  C
  C27      1.0000 0.18040  0.70240  0.76900  Biso   1.000  C
  C28      1.0000 0.81960  0.20240  0.73100  Biso   1.000  C
  C29      1.0000 0.66830  0.26410  0.13840  Biso   1.000  C
  C30      1.0000 0.33170  0.76410  0.36160  Biso   1.000  C
  C31      1.0000 0.33170  0.73590  0.86160  Biso   1.000  C
  C32      1.0000 0.66830  0.23590  0.63840  Biso   1.000  C
  C33      1.0000 0.65270  0.18850  0.11190  Biso   1.000  C
  C34      1.0000 0.34730  0.68850  0.38810  Biso   1.000  C
  C35      1.0000 0.34730  0.81150  0.88810  Biso   1.000  C
  C36      1.0000 0.65270  0.31150  0.61190  Biso   1.000  C
  H1       1.0000 0.29700  0.49500  0.12400  Biso   1.000  H
  H2       1.0000 0.70300  0.99500  0.37600  Biso   1.000  H
  H3       1.0000 0.70300  0.50500  0.87600  Biso   1.000  H
  H4       1.0000 0.29700  0.00500  0.62400  Biso   1.000  H
  H5       1.0000 0.13400  0.46500  0.22800  Biso   1.000  H
  H6       1.0000 0.86600  0.96500  0.27200  Biso   1.000  H
  H7       1.0000 0.86600  0.53500  0.77200  Biso   1.000  H
  H8       1.0000 0.13400  0.03500  0.72800  Biso   1.000  H
  H9       1.0000 0.23900  0.35000  0.18900  Biso   1.000  H
  H10      1.0000 0.76100  0.85000  0.31100  Biso   1.000  H
  H11      1.0000 0.76100  0.65000  0.81100  Biso   1.000  H
  H12      1.0000 0.23900  0.15000  0.68900  Biso   1.000  H
  H13      1.0000 0.56400  0.40100  0.07600  Biso   1.000  H
  H14      1.0000 0.43600  0.90100  0.42400  Biso   1.000  H
  H15      1.0000 0.43600  0.59900  0.92400  Biso   1.000  H
  H16      1.0000 0.56400  0.09900  0.57600  Biso   1.000  H
  H17      1.0000 0.41000  0.38200  0.92300  Biso   1.000  H
  H18      1.0000 0.59000  0.88200  0.57700  Biso   1.000  H
  H19      1.0000 0.59000  0.61800  0.07700  Biso   1.000  H
  H20      1.0000 0.41000  0.11800  0.42300  Biso   1.000  H
  H21      1.0000 0.79200  0.08900  0.14200  Biso   1.000  H
  H22      1.0000 0.20800  0.58900  0.35800  Biso   1.000  H
  H23      1.0000 0.20800  0.91100  0.85800  Biso   1.000  H
  H24      1.0000 0.79200  0.41100  0.64200  Biso   1.000  H
  H25      1.0000 0.03200  0.13900  0.27100  Biso   1.000  H
  H26      1.0000 0.96800  0.63900  0.22900  Biso   1.000  H
  H27      1.0000 0.96800  0.86100  0.72900  Biso   1.000  H
  H28      1.0000 0.03200  0.36100  0.77100  Biso   1.000  H
  H29      1.0000 0.04200  0.27500  0.34700  Biso   1.000  H
  H30      1.0000 0.95800  0.77500  0.15300  Biso   1.000  H
  H31      1.0000 0.95800  0.72500  0.65300  Biso   1.000  H
  H32      1.0000 0.04200  0.22500  0.84700  Biso   1.000  H
  H33      1.0000 0.84000  0.35500  0.25500  Biso   1.000  H
  H34      1.0000 0.16000  0.85500  0.24500  Biso   1.000  H
  H35      1.0000 0.16000  0.64500  0.74500  Biso   1.000  H
  H36      1.0000 0.84000  0.14500  0.75500  Biso   1.000  H
