data_image0
_cell_length_a       15.9327
_cell_length_b       15.9327
_cell_length_c       12.4522
_cell_angle_alpha    90
_cell_angle_beta     90
_cell_angle_gamma    90

_symmetry_space_group_name_H-M    "P 1"
_symmetry_int_tables_number       1

loop_
  _symmetry_equiv_pos_as_xyz
  'x, y, z'

loop_
  _atom_site_label
  _atom_site_occupancy
  _atom_site_fract_x
  _atom_site_fract_y
  _atom_site_fract_z
  _atom_site_thermal_displace_type
  _atom_site_B_iso_or_equiv
  _atom_site_type_symbol
  Cu1      1.0000 0.48435  0.99789  0.37624  Biso   1.000  Cu
  Cu2      1.0000 0.51565  0.00211  0.87624  Biso   1.000  Cu
  Cu3      1.0000 0.98435  0.50211  0.87376  Biso   1.000  Cu
  Cu4      1.0000 0.01565  0.49789  0.37376  Biso   1.000  Cu
  Cu5      1.0000 0.00211  0.51565  0.12376  Biso   1.000  Cu
  Cu6      1.0000 0.99789  0.48435  0.62376  Biso   1.000  Cu
  Cu7      1.0000 0.49789  0.01565  0.62624  Biso   1.000  Cu
  Cu8      1.0000 0.50211  0.98435  0.12624  Biso   1.000  Cu
  Cl1      1.0000 0.56266  0.07777  0.25180  Biso   1.000  Cl
  Cl2      1.0000 0.43734  0.92223  0.75180  Biso   1.000  Cl
  Cl3      1.0000 0.06266  0.42223  0.99820  Biso   1.000  Cl
  Cl4      1.0000 0.93734  0.57777  0.49820  Biso   1.000  Cl
  Cl5      1.0000 0.92223  0.43734  0.24820  Biso   1.000  Cl
  Cl6      1.0000 0.07777  0.56266  0.74820  Biso   1.000  Cl
  Cl7      1.0000 0.57777  0.93734  0.50180  Biso   1.000  Cl
  Cl8      1.0000 0.42223  0.06266  0.00180  Biso   1.000  Cl
  N1       1.0000 0.39980  0.07910  0.44610  Biso   1.000  N
  N2       1.0000 0.60020  0.92090  0.94610  Biso   1.000  N
  N3       1.0000 0.89980  0.42090  0.80390  Biso   1.000  N
  N4       1.0000 0.10020  0.57910  0.30390  Biso   1.000  N
  N5       1.0000 0.92090  0.60020  0.05390  Biso   1.000  N
  N6       1.0000 0.07910  0.39980  0.55390  Biso   1.000  N
  N7       1.0000 0.57910  0.10020  0.69610  Biso   1.000  N
  N8       1.0000 0.42090  0.89980  0.19610  Biso   1.000  N
  N9       1.0000 0.40230  0.08260  0.55750  Biso   1.000  N
  N10      1.0000 0.59770  0.91740  0.05750  Biso   1.000  N
  N11      1.0000 0.90230  0.41740  0.69250  Biso   1.000  N
  N12      1.0000 0.09770  0.58260  0.19250  Biso   1.000  N
  N13      1.0000 0.91740  0.59770  0.94250  Biso   1.000  N
  N14      1.0000 0.08260  0.40230  0.44250  Biso   1.000  N
  N15      1.0000 0.58260  0.09770  0.80750  Biso   1.000  N
  N16      1.0000 0.41740  0.90230  0.30750  Biso   1.000  N
  C1       1.0000 0.34480  0.12540  0.39240  Biso   1.000  C
  C2       1.0000 0.65520  0.87460  0.89240  Biso   1.000  C
  C3       1.0000 0.84480  0.37460  0.85760  Biso   1.000  C
  C4       1.0000 0.15520  0.62540  0.35760  Biso   1.000  C
  C5       1.0000 0.87460  0.65520  0.10760  Biso   1.000  C
  C6       1.0000 0.12540  0.34480  0.60760  Biso   1.000  C
  C7       1.0000 0.62540  0.15520  0.64240  Biso   1.000  C
  C8       1.0000 0.37460  0.84480  0.14240  Biso   1.000  C
  C9       1.0000 0.28960  0.18240  0.44410  Biso   1.000  C
  C10      1.0000 0.71040  0.81760  0.94410  Biso   1.000  C
  C11      1.0000 0.78960  0.31760  0.80590  Biso   1.000  C
  C12      1.0000 0.21040  0.68240  0.30590  Biso   1.000  C
  C13      1.0000 0.81760  0.71040  0.05590  Biso   1.000  C
  C14      1.0000 0.18240  0.28960  0.55590  Biso   1.000  C
  C15      1.0000 0.68240  0.21040  0.69410  Biso   1.000  C
  C16      1.0000 0.31760  0.78960  0.19410  Biso   1.000  C
  C17      1.0000 0.23640  0.23760  0.38510  Biso   1.000  C
  C18      1.0000 0.76360  0.76240  0.88510  Biso   1.000  C
  C19      1.0000 0.73640  0.26240  0.86490  Biso   1.000  C
  C20      1.0000 0.26360  0.73760  0.36490  Biso   1.000  C
  C21      1.0000 0.76240  0.76360  0.11490  Biso   1.000  C
  C22      1.0000 0.23760  0.23640  0.61490  Biso   1.000  C
  C23      1.0000 0.73760  0.26360  0.63510  Biso   1.000  C
  C24      1.0000 0.26240  0.73640  0.13510  Biso   1.000  C
  C25      1.0000 0.28990  0.18510  0.55640  Biso   1.000  C
  C26      1.0000 0.71010  0.81490  0.05640  Biso   1.000  C
  C27      1.0000 0.78990  0.31490  0.69360  Biso   1.000  C
  C28      1.0000 0.21010  0.68510  0.19360  Biso   1.000  C
  C29      1.0000 0.81490  0.71010  0.94360  Biso   1.000  C
  C30      1.0000 0.18510  0.28990  0.44360  Biso   1.000  C
  C31      1.0000 0.68510  0.21010  0.80640  Biso   1.000  C
  C32      1.0000 0.31490  0.78990  0.30640  Biso   1.000  C
  C33      1.0000 0.35100  0.13210  0.61060  Biso   1.000  C
  C34      1.0000 0.64900  0.86790  0.11060  Biso   1.000  C
  C35      1.0000 0.85100  0.36790  0.63940  Biso   1.000  C
  C36      1.0000 0.14900  0.63210  0.13940  Biso   1.000  C
  C37      1.0000 0.86790  0.64900  0.88940  Biso   1.000  C
  C38      1.0000 0.13210  0.35100  0.38940  Biso   1.000  C
  C39      1.0000 0.63210  0.14900  0.86060  Biso   1.000  C
  C40      1.0000 0.36790  0.85100  0.36060  Biso   1.000  C
  C41      1.0000 0.35500  0.13230  0.72910  Biso   1.000  C
  C42      1.0000 0.64500  0.86770  0.22910  Biso   1.000  C
  C43      1.0000 0.85500  0.36770  0.52090  Biso   1.000  C
  C44      1.0000 0.14500  0.63230  0.02090  Biso   1.000  C
  C45      1.0000 0.86770  0.64500  0.77090  Biso   1.000  C
  C46      1.0000 0.13230  0.35500  0.27090  Biso   1.000  C
  C47      1.0000 0.63230  0.14500  0.97910  Biso   1.000  C
  C48      1.0000 0.36770  0.85500  0.47910  Biso   1.000  C
  H1       1.0000 0.39710  0.17120  0.75260  Biso   1.000  H
  H2       1.0000 0.60290  0.82880  0.25260  Biso   1.000  H
  H3       1.0000 0.89710  0.32880  0.49740  Biso   1.000  H
  H4       1.0000 0.10290  0.67120  0.99740  Biso   1.000  H
  H5       1.0000 0.82880  0.60290  0.74740  Biso   1.000  H
  H6       1.0000 0.17120  0.39710  0.24740  Biso   1.000  H
  H7       1.0000 0.67120  0.10290  0.00260  Biso   1.000  H
  H8       1.0000 0.32880  0.89710  0.50260  Biso   1.000  H
  H9       1.0000 0.37010  0.07740  0.75420  Biso   1.000  H
  H10      1.0000 0.62990  0.92260  0.25420  Biso   1.000  H
  H11      1.0000 0.87010  0.42260  0.49580  Biso   1.000  H
  H12      1.0000 0.12990  0.57740  0.99580  Biso   1.000  H
  H13      1.0000 0.92260  0.62990  0.74580  Biso   1.000  H
  H14      1.0000 0.07740  0.37010  0.24580  Biso   1.000  H
  H15      1.0000 0.57740  0.12990  0.00420  Biso   1.000  H
  H16      1.0000 0.42260  0.87010  0.50420  Biso   1.000  H
  C49      1.0000 0.23840  0.23820  0.26290  Biso   1.000  C
  C50      1.0000 0.76160  0.76180  0.76290  Biso   1.000  C
  C51      1.0000 0.73840  0.26180  0.98710  Biso   1.000  C
  C52      1.0000 0.26160  0.73820  0.48710  Biso   1.000  C
  C53      1.0000 0.76180  0.76160  0.23710  Biso   1.000  C
  C54      1.0000 0.23820  0.23840  0.73710  Biso   1.000  C
  C55      1.0000 0.73820  0.26160  0.51290  Biso   1.000  C
  C56      1.0000 0.26180  0.73840  0.01290  Biso   1.000  C
  H17      1.0000 0.28100  0.27700  0.24050  Biso   1.000  H
  H18      1.0000 0.71900  0.72300  0.74050  Biso   1.000  H
  H19      1.0000 0.78100  0.22300  0.00950  Biso   1.000  H
  H20      1.0000 0.21900  0.77700  0.50950  Biso   1.000  H
  H21      1.0000 0.72300  0.71900  0.25950  Biso   1.000  H
  H22      1.0000 0.27700  0.28100  0.75950  Biso   1.000  H
  H23      1.0000 0.77700  0.21900  0.49050  Biso   1.000  H
  H24      1.0000 0.22300  0.78100  0.99050  Biso   1.000  H
  C57      1.0000 0.34410  0.11770  0.26960  Biso   1.000  C
  C58      1.0000 0.65590  0.88230  0.76960  Biso   1.000  C
  C59      1.0000 0.84410  0.38230  0.98040  Biso   1.000  C
  C60      1.0000 0.15590  0.61770  0.48040  Biso   1.000  C
  C61      1.0000 0.88230  0.65590  0.23040  Biso   1.000  C
  C62      1.0000 0.11770  0.34410  0.73040  Biso   1.000  C
  C63      1.0000 0.61770  0.15590  0.51960  Biso   1.000  C
  C64      1.0000 0.38230  0.84410  0.01960  Biso   1.000  C
  H25      1.0000 0.35050  0.05990  0.24940  Biso   1.000  H
  H26      1.0000 0.64950  0.94010  0.74940  Biso   1.000  H
  H27      1.0000 0.85050  0.44010  0.00060  Biso   1.000  H
  H28      1.0000 0.14950  0.55990  0.50060  Biso   1.000  H
  H29      1.0000 0.94010  0.64950  0.25060  Biso   1.000  H
  H30      1.0000 0.05990  0.35050  0.75060  Biso   1.000  H
  H31      1.0000 0.55990  0.14950  0.49940  Biso   1.000  H
  H32      1.0000 0.44010  0.85050  0.99940  Biso   1.000  H
  H33      1.0000 0.39050  0.14850  0.24020  Biso   1.000  H
  H34      1.0000 0.60950  0.85150  0.74020  Biso   1.000  H
  H35      1.0000 0.89050  0.35150  0.00980  Biso   1.000  H
  H36      1.0000 0.10950  0.64850  0.50980  Biso   1.000  H
  H37      1.0000 0.85150  0.60950  0.25980  Biso   1.000  H
  H38      1.0000 0.14850  0.39050  0.75980  Biso   1.000  H
  H39      1.0000 0.64850  0.10950  0.49020  Biso   1.000  H
  H40      1.0000 0.35150  0.89050  0.99020  Biso   1.000  H
  C65      1.0000 0.27430  0.15920  0.78000  Biso   1.000  C
  C66      1.0000 0.72570  0.84080  0.28000  Biso   1.000  C
  C67      1.0000 0.77430  0.34080  0.47000  Biso   1.000  C
  C68      1.0000 0.22570  0.65920  0.97000  Biso   1.000  C
  C69      1.0000 0.84080  0.72570  0.72000  Biso   1.000  C
  C70      1.0000 0.15920  0.27430  0.22000  Biso   1.000  C
  C71      1.0000 0.65920  0.22570  0.03000  Biso   1.000  C
  C72      1.0000 0.34080  0.77430  0.53000  Biso   1.000  C
  H41      1.0000 0.27850  0.16130  0.85680  Biso   1.000  H
  H42      1.0000 0.72150  0.83870  0.35680  Biso   1.000  H
  H43      1.0000 0.77850  0.33870  0.39320  Biso   1.000  H
  H44      1.0000 0.22150  0.66130  0.89320  Biso   1.000  H
  H45      1.0000 0.83870  0.72150  0.64320  Biso   1.000  H
  H46      1.0000 0.16130  0.27850  0.14320  Biso   1.000  H
  H47      1.0000 0.66130  0.22150  0.10680  Biso   1.000  H
  H48      1.0000 0.33870  0.77850  0.60680  Biso   1.000  H
  H49      1.0000 0.23420  0.11650  0.76210  Biso   1.000  H
  H50      1.0000 0.76580  0.88350  0.26210  Biso   1.000  H
  H51      1.0000 0.73420  0.38350  0.48790  Biso   1.000  H
  H52      1.0000 0.26580  0.61650  0.98790  Biso   1.000  H
  H53      1.0000 0.88350  0.76580  0.73790  Biso   1.000  H
  H54      1.0000 0.11650  0.23420  0.23790  Biso   1.000  H
  H55      1.0000 0.61650  0.26580  0.01210  Biso   1.000  H
  H56      1.0000 0.38350  0.73420  0.51210  Biso   1.000  H
  C73      1.0000 0.26630  0.15490  0.22240  Biso   1.000  C
  C74      1.0000 0.73370  0.84510  0.72240  Biso   1.000  C
  C75      1.0000 0.76630  0.34510  0.02760  Biso   1.000  C
  C76      1.0000 0.23370  0.65490  0.52760  Biso   1.000  C
  C77      1.0000 0.84510  0.73370  0.27760  Biso   1.000  C
  C78      1.0000 0.15490  0.26630  0.77760  Biso   1.000  C
  C79      1.0000 0.65490  0.23370  0.47240  Biso   1.000  C
  C80      1.0000 0.34510  0.76630  0.97240  Biso   1.000  C
  H57      1.0000 0.27120  0.15630  0.14560  Biso   1.000  H
  H58      1.0000 0.72880  0.84370  0.64560  Biso   1.000  H
  H59      1.0000 0.77120  0.34370  0.10440  Biso   1.000  H
  H60      1.0000 0.22880  0.65630  0.60440  Biso   1.000  H
  H61      1.0000 0.84370  0.72880  0.35440  Biso   1.000  H
  H62      1.0000 0.15630  0.27120  0.85440  Biso   1.000  H
  H63      1.0000 0.65630  0.22880  0.39560  Biso   1.000  H
  H64      1.0000 0.34370  0.77120  0.89560  Biso   1.000  H
  H65      1.0000 0.22190  0.11640  0.23980  Biso   1.000  H
  H66      1.0000 0.77810  0.88360  0.73980  Biso   1.000  H
  H67      1.0000 0.72190  0.38360  0.01020  Biso   1.000  H
  H68      1.0000 0.27810  0.61640  0.51020  Biso   1.000  H
  H69      1.0000 0.88360  0.77810  0.26020  Biso   1.000  H
  H70      1.0000 0.11640  0.22190  0.76020  Biso   1.000  H
  H71      1.0000 0.61640  0.27810  0.48980  Biso   1.000  H
  H72      1.0000 0.38360  0.72190  0.98980  Biso   1.000  H
  N17      1.0000 0.32840  0.50730  0.23620  Biso   1.000  N
  N18      1.0000 0.67160  0.49270  0.73620  Biso   1.000  N
  N19      1.0000 0.82840  0.99270  0.01380  Biso   1.000  N
  N20      1.0000 0.17160  0.00730  0.51380  Biso   1.000  N
  N21      1.0000 0.49270  0.67160  0.26380  Biso   1.000  N
  N22      1.0000 0.50730  0.32840  0.76380  Biso   1.000  N
  N23      1.0000 0.00730  0.17160  0.48620  Biso   1.000  N
  N24      1.0000 0.99270  0.82840  0.98620  Biso   1.000  N
  C81      1.0000 0.31270  0.48380  0.32340  Biso   1.000  C
  C82      1.0000 0.68730  0.51620  0.82340  Biso   1.000  C
  C83      1.0000 0.81270  0.01620  0.92660  Biso   1.000  C
  C84      1.0000 0.18730  0.98380  0.42660  Biso   1.000  C
  C85      1.0000 0.51620  0.68730  0.17660  Biso   1.000  C
  C86      1.0000 0.48380  0.31270  0.67660  Biso   1.000  C
  C87      1.0000 0.98380  0.18730  0.57340  Biso   1.000  C
  C88      1.0000 0.01620  0.81270  0.07340  Biso   1.000  C
  C89      1.0000 0.31910  0.46460  0.44020  Biso   1.000  C
  C90      1.0000 0.68090  0.53540  0.94020  Biso   1.000  C
  C91      1.0000 0.81910  0.03540  0.80980  Biso   1.000  C
  C92      1.0000 0.18090  0.96460  0.30980  Biso   1.000  C
  C93      1.0000 0.53540  0.68090  0.05980  Biso   1.000  C
  C94      1.0000 0.46460  0.31910  0.55980  Biso   1.000  C
  C95      1.0000 0.96460  0.18090  0.69020  Biso   1.000  C
  C96      1.0000 0.03540  0.81910  0.19020  Biso   1.000  C
  H73      1.0000 0.35990  0.42100  0.45100  Biso   1.000  H
  H74      1.0000 0.64010  0.57900  0.95100  Biso   1.000  H
  H75      1.0000 0.85990  0.07900  0.79900  Biso   1.000  H
  H76      1.0000 0.14010  0.92100  0.29900  Biso   1.000  H
  H77      1.0000 0.57900  0.64010  0.04900  Biso   1.000  H
  H78      1.0000 0.42100  0.35990  0.54900  Biso   1.000  H
  H79      1.0000 0.92100  0.14010  0.70100  Biso   1.000  H
  H80      1.0000 0.07900  0.85990  0.20100  Biso   1.000  H
  H81      1.0000 0.26550  0.44620  0.46630  Biso   1.000  H
  H82      1.0000 0.73450  0.55380  0.96630  Biso   1.000  H
  H83      1.0000 0.76550  0.05380  0.78370  Biso   1.000  H
  H84      1.0000 0.23450  0.94620  0.28370  Biso   1.000  H
  H85      1.0000 0.55380  0.73450  0.03370  Biso   1.000  H
  H86      1.0000 0.44620  0.26550  0.53370  Biso   1.000  H
  H87      1.0000 0.94620  0.23450  0.71630  Biso   1.000  H
  H88      1.0000 0.05380  0.76550  0.21630  Biso   1.000  H
  H89      1.0000 0.33610  0.51410  0.47840  Biso   1.000  H
  H90      1.0000 0.66390  0.48590  0.97840  Biso   1.000  H
  H91      1.0000 0.83610  0.98590  0.77160  Biso   1.000  H
  H92      1.0000 0.16390  0.01410  0.27160  Biso   1.000  H
  H93      1.0000 0.48590  0.66390  0.02160  Biso   1.000  H
  H94      1.0000 0.51410  0.33610  0.52160  Biso   1.000  H
  H95      1.0000 0.01410  0.16390  0.72840  Biso   1.000  H
  H96      1.0000 0.98590  0.83610  0.22840  Biso   1.000  H
  C97      1.0000 0.35250  0.52060  0.27470  Biso   1.000  C
  C98      1.0000 0.64750  0.47940  0.77470  Biso   1.000  C
  C99      1.0000 0.85250  0.97940  0.97530  Biso   1.000  C
  C100     1.0000 0.14750  0.02060  0.47530  Biso   1.000  C
  C101     1.0000 0.47940  0.64750  0.22530  Biso   1.000  C
  C102     1.0000 0.52060  0.35250  0.72530  Biso   1.000  C
  C103     1.0000 0.02060  0.14750  0.52470  Biso   1.000  C
  C104     1.0000 0.97940  0.85250  0.02470  Biso   1.000  C
  C105     1.0000 0.35300  0.50750  0.15630  Biso   1.000  C
  C106     1.0000 0.64700  0.49250  0.65630  Biso   1.000  C
  C107     1.0000 0.85300  0.99250  0.09370  Biso   1.000  C
  C108     1.0000 0.14700  0.00750  0.59370  Biso   1.000  C
  C109     1.0000 0.49250  0.64700  0.34370  Biso   1.000  C
  C110     1.0000 0.50750  0.35300  0.84370  Biso   1.000  C
  C111     1.0000 0.00750  0.14700  0.40630  Biso   1.000  C
  C112     1.0000 0.99250  0.85300  0.90630  Biso   1.000  C
  C113     1.0000 0.21080  0.32130  0.22100  Biso   1.000  C
  C114     1.0000 0.78920  0.67870  0.72100  Biso   1.000  C
  C115     1.0000 0.71080  0.17870  0.02900  Biso   1.000  C
  C116     1.0000 0.28920  0.82130  0.52900  Biso   1.000  C
  C117     1.0000 0.67870  0.78920  0.27900  Biso   1.000  C
  C118     1.0000 0.32130  0.21080  0.77900  Biso   1.000  C
  C119     1.0000 0.82130  0.28920  0.47100  Biso   1.000  C
  C120     1.0000 0.17870  0.71080  0.97100  Biso   1.000  C
  C121     1.0000 0.32110  0.20330  0.22340  Biso   1.000  C
  C122     1.0000 0.67890  0.79670  0.72340  Biso   1.000  C
  C123     1.0000 0.82110  0.29670  0.02660  Biso   1.000  C
  C124     1.0000 0.17890  0.70330  0.52660  Biso   1.000  C
  C125     1.0000 0.79670  0.67890  0.27660  Biso   1.000  C
  C126     1.0000 0.20330  0.32110  0.77660  Biso   1.000  C
  C127     1.0000 0.70330  0.17890  0.47340  Biso   1.000  C
  C128     1.0000 0.29670  0.82110  0.97340  Biso   1.000  C
  H97      1.0000 0.30510  0.07490  0.24830  Biso   1.000  H
  H98      1.0000 0.69490  0.92510  0.74830  Biso   1.000  H
  H99      1.0000 0.80510  0.42510  0.00170  Biso   1.000  H
  H100     1.0000 0.19490  0.57490  0.50170  Biso   1.000  H
  H101     1.0000 0.92510  0.69490  0.25170  Biso   1.000  H
  H102     1.0000 0.07490  0.30510  0.75170  Biso   1.000  H
  H103     1.0000 0.57490  0.19490  0.49830  Biso   1.000  H
  H104     1.0000 0.42510  0.80510  0.99830  Biso   1.000  H
  H105     1.0000 0.39880  0.10220  0.24400  Biso   1.000  H
  H106     1.0000 0.60120  0.89780  0.74400  Biso   1.000  H
  H107     1.0000 0.89880  0.39780  0.00600  Biso   1.000  H
  H108     1.0000 0.10120  0.60220  0.50600  Biso   1.000  H
  H109     1.0000 0.89780  0.60120  0.25600  Biso   1.000  H
  H110     1.0000 0.10220  0.39880  0.75600  Biso   1.000  H
  H111     1.0000 0.60220  0.10120  0.49400  Biso   1.000  H
  H112     1.0000 0.39780  0.89880  0.99400  Biso   1.000  H
  H113     1.0000 0.35960  0.44870  0.14150  Biso   1.000  H
  H114     1.0000 0.64040  0.55130  0.64150  Biso   1.000  H
  H115     1.0000 0.85960  0.05130  0.10850  Biso   1.000  H
  H116     1.0000 0.14040  0.94870  0.60850  Biso   1.000  H
  H117     1.0000 0.55130  0.64040  0.35850  Biso   1.000  H
  H118     1.0000 0.44870  0.35960  0.85850  Biso   1.000  H
  H119     1.0000 0.94870  0.14040  0.39150  Biso   1.000  H
  H120     1.0000 0.05130  0.85960  0.89150  Biso   1.000  H
  H121     1.0000 0.39870  0.53800  0.12470  Biso   1.000  H
  H122     1.0000 0.60130  0.46200  0.62470  Biso   1.000  H
  H123     1.0000 0.89870  0.96200  0.12530  Biso   1.000  H
  H124     1.0000 0.10130  0.03800  0.62530  Biso   1.000  H
  H125     1.0000 0.46200  0.60130  0.37530  Biso   1.000  H
  H126     1.0000 0.53800  0.39870  0.87530  Biso   1.000  H
  H127     1.0000 0.03800  0.10130  0.37470  Biso   1.000  H
  H128     1.0000 0.96200  0.89870  0.87470  Biso   1.000  H
  H129     1.0000 0.30090  0.52680  0.12640  Biso   1.000  H
  H130     1.0000 0.69910  0.47320  0.62640  Biso   1.000  H
  H131     1.0000 0.80090  0.97320  0.12360  Biso   1.000  H
  H132     1.0000 0.19910  0.02680  0.62360  Biso   1.000  H
  H133     1.0000 0.47320  0.69910  0.37360  Biso   1.000  H
  H134     1.0000 0.52680  0.30090  0.87360  Biso   1.000  H
  H135     1.0000 0.02680  0.19910  0.37640  Biso   1.000  H
  H136     1.0000 0.97320  0.80090  0.87640  Biso   1.000  H
  H137     1.0000 0.12270  0.41180  0.24850  Biso   1.000  H
  H138     1.0000 0.87730  0.58820  0.74850  Biso   1.000  H
  H139     1.0000 0.62270  0.08820  0.00150  Biso   1.000  H
  H140     1.0000 0.37730  0.91180  0.50150  Biso   1.000  H
  H141     1.0000 0.58820  0.87730  0.25150  Biso   1.000  H
  H142     1.0000 0.41180  0.12270  0.75150  Biso   1.000  H
  H143     1.0000 0.91180  0.37730  0.49850  Biso   1.000  H
  H144     1.0000 0.08820  0.62270  0.99850  Biso   1.000  H
  H145     1.0000 0.08780  0.32070  0.24280  Biso   1.000  H
  H146     1.0000 0.91220  0.67930  0.74280  Biso   1.000  H
  H147     1.0000 0.58780  0.17930  0.00720  Biso   1.000  H
  H148     1.0000 0.41220  0.82070  0.50720  Biso   1.000  H
  H149     1.0000 0.67930  0.91220  0.25720  Biso   1.000  H
  H150     1.0000 0.32070  0.08780  0.75720  Biso   1.000  H
  H151     1.0000 0.82070  0.41220  0.49280  Biso   1.000  H
  H152     1.0000 0.17930  0.58780  0.99280  Biso   1.000  H
  H153     1.0000 0.20830  0.32110  0.14400  Biso   1.000  H
  H154     1.0000 0.79170  0.67890  0.64400  Biso   1.000  H
  H155     1.0000 0.70830  0.17890  0.10600  Biso   1.000  H
  H156     1.0000 0.29170  0.82110  0.60600  Biso   1.000  H
  H157     1.0000 0.67890  0.79170  0.35600  Biso   1.000  H
  H158     1.0000 0.32110  0.20830  0.85600  Biso   1.000  H
  H159     1.0000 0.82110  0.29170  0.39400  Biso   1.000  H
  H160     1.0000 0.17890  0.70830  0.89400  Biso   1.000  H
  H161     1.0000 0.25350  0.36050  0.24190  Biso   1.000  H
  H162     1.0000 0.74650  0.63950  0.74190  Biso   1.000  H
  H163     1.0000 0.75350  0.13950  0.00810  Biso   1.000  H
  H164     1.0000 0.24650  0.86050  0.50810  Biso   1.000  H
  H165     1.0000 0.63950  0.74650  0.25810  Biso   1.000  H
  H166     1.0000 0.36050  0.25350  0.75810  Biso   1.000  H
  H167     1.0000 0.86050  0.24650  0.49190  Biso   1.000  H
  H168     1.0000 0.13950  0.75350  0.99190  Biso   1.000  H
  H169     1.0000 0.19450  0.20090  0.24030  Biso   1.000  H
  H170     1.0000 0.80550  0.79910  0.74030  Biso   1.000  H
  H171     1.0000 0.69450  0.29910  0.00970  Biso   1.000  H
  H172     1.0000 0.30550  0.70090  0.50970  Biso   1.000  H
  H173     1.0000 0.79910  0.80550  0.25970  Biso   1.000  H
  H174     1.0000 0.20090  0.19450  0.75970  Biso   1.000  H
  H175     1.0000 0.70090  0.30550  0.49030  Biso   1.000  H
  H176     1.0000 0.29910  0.69450  0.99030  Biso   1.000  H
  H177     1.0000 0.31610  0.19630  0.14710  Biso   1.000  H
  H178     1.0000 0.68390  0.80370  0.64710  Biso   1.000  H
  H179     1.0000 0.81610  0.30370  0.10290  Biso   1.000  H
  H180     1.0000 0.18390  0.69630  0.60290  Biso   1.000  H
  H181     1.0000 0.80370  0.68390  0.35290  Biso   1.000  H
  H182     1.0000 0.19630  0.31610  0.85290  Biso   1.000  H
  H183     1.0000 0.69630  0.18390  0.39710  Biso   1.000  H
  H184     1.0000 0.30370  0.81610  0.89710  Biso   1.000  H
  H185     1.0000 0.36540  0.24290  0.23580  Biso   1.000  H
  H186     1.0000 0.63460  0.75710  0.73580  Biso   1.000  H
  H187     1.0000 0.86540  0.25710  0.01420  Biso   1.000  H
  H188     1.0000 0.13460  0.74290  0.51420  Biso   1.000  H
  H189     1.0000 0.75710  0.63460  0.26420  Biso   1.000  H
  H190     1.0000 0.24290  0.36540  0.76420  Biso   1.000  H
  H191     1.0000 0.74290  0.13460  0.48580  Biso   1.000  H
  H192     1.0000 0.25710  0.86540  0.98580  Biso   1.000  H
  N25      1.0000 0.34670  0.50790  0.36590  Biso   1.000  N
  N26      1.0000 0.65330  0.49210  0.86590  Biso   1.000  N
  N27      1.0000 0.84670  0.99210  0.88410  Biso   1.000  N
  N28      1.0000 0.15330  0.00790  0.38410  Biso   1.000  N
  N29      1.0000 0.49210  0.65330  0.13410  Biso   1.000  N
  N30      1.0000 0.50790  0.34670  0.63410  Biso   1.000  N
  N31      1.0000 0.00790  0.15330  0.61590  Biso   1.000  N
  N32      1.0000 0.99210  0.84670  0.11590  Biso   1.000  N
