data_image0
_cell_length_a       19.1704
_cell_length_b       10.4373
_cell_length_c       9.3657
_cell_angle_alpha    90
_cell_angle_beta     93.285
_cell_angle_gamma    90

_symmetry_space_group_name_H-M    "P 1"
_symmetry_int_tables_number       1

loop_
  _symmetry_equiv_pos_as_xyz
  'x, y, z'

loop_
  _atom_site_label
  _atom_site_occupancy
  _atom_site_fract_x
  _atom_site_fract_y
  _atom_site_fract_z
  _atom_site_thermal_displace_type
  _atom_site_B_iso_or_equiv
  _atom_site_type_symbol
  Cu1      1.0000 0.06162  0.57824  0.12585  Biso   1.000  Cu
  Cu2      1.0000 0.93838  0.07824  0.37415  Biso   1.000  Cu
  Cu3      1.0000 0.93838  0.42176  0.87415  Biso   1.000  Cu
  Cu4      1.0000 0.06162  0.92176  0.62585  Biso   1.000  Cu
  Cu5      1.0000 0.56374  0.89936  0.62608  Biso   1.000  Cu
  Cu6      1.0000 0.43626  0.39936  0.87392  Biso   1.000  Cu
  Cu7      1.0000 0.43626  0.10064  0.37392  Biso   1.000  Cu
  Cu8      1.0000 0.56374  0.60064  0.12608  Biso   1.000  Cu
  N1       1.0000 0.53916  0.72220  0.71583  Biso   1.000  N
  N2       1.0000 0.46084  0.22220  0.78417  Biso   1.000  N
  N3       1.0000 0.46084  0.27780  0.28417  Biso   1.000  N
  N4       1.0000 0.53916  0.77780  0.21583  Biso   1.000  N
  N5       1.0000 0.96860  0.24254  0.26612  Biso   1.000  N
  N6       1.0000 0.03140  0.74254  0.23388  Biso   1.000  N
  N7       1.0000 0.03140  0.75746  0.73388  Biso   1.000  N
  N8       1.0000 0.96860  0.25746  0.76612  Biso   1.000  N
  N9       1.0000 0.93249  0.26989  0.14174  Biso   1.000  N
  N10      1.0000 0.06751  0.76989  0.35826  Biso   1.000  N
  N11      1.0000 0.06751  0.73011  0.85826  Biso   1.000  N
  N12      1.0000 0.93249  0.23011  0.64174  Biso   1.000  N
  N13      1.0000 0.00878  0.42276  0.17788  Biso   1.000  N
  N14      1.0000 0.99122  0.92276  0.32212  Biso   1.000  N
  N15      1.0000 0.99122  0.57724  0.82212  Biso   1.000  N
  N16      1.0000 0.00878  0.07724  0.67788  Biso   1.000  N
  N17      1.0000 0.95675  0.37650  0.08949  Biso   1.000  N
  N18      1.0000 0.04325  0.87650  0.41051  Biso   1.000  N
  N19      1.0000 0.04325  0.62350  0.91051  Biso   1.000  N
  N20      1.0000 0.95675  0.12350  0.58949  Biso   1.000  N
  N21      1.0000 0.49513  0.54795  0.81147  Biso   1.000  N
  N22      1.0000 0.50487  0.04795  0.68853  Biso   1.000  N
  N23      1.0000 0.50487  0.45205  0.18853  Biso   1.000  N
  N24      1.0000 0.49513  0.95205  0.31147  Biso   1.000  N
  N25      1.0000 0.54912  0.59348  0.89740  Biso   1.000  N
  N26      1.0000 0.45088  0.09348  0.60260  Biso   1.000  N
  N27      1.0000 0.45088  0.40652  0.10260  Biso   1.000  N
  N28      1.0000 0.54912  0.90652  0.39740  Biso   1.000  N
  N29      1.0000 0.16817  0.59837  0.15837  Biso   1.000  N
  N30      1.0000 0.83183  0.09837  0.34163  Biso   1.000  N
  N31      1.0000 0.83183  0.40163  0.84163  Biso   1.000  N
  N32      1.0000 0.16817  0.90163  0.65837  Biso   1.000  N
  C1       1.0000 0.28988  0.34830  0.73713  Biso   1.000  C
  C2       1.0000 0.71012  0.84830  0.76287  Biso   1.000  C
  C3       1.0000 0.71012  0.65170  0.26287  Biso   1.000  C
  C4       1.0000 0.28988  0.15170  0.23713  Biso   1.000  C
  H1       1.0000 0.30580  0.29310  0.66820  Biso   1.000  H
  H2       1.0000 0.69420  0.79310  0.83180  Biso   1.000  H
  H3       1.0000 0.69420  0.70690  0.33180  Biso   1.000  H
  H4       1.0000 0.30580  0.20690  0.16820  Biso   1.000  H
  N33      1.0000 0.22339  0.39384  0.73786  Biso   1.000  N
  N34      1.0000 0.77661  0.89384  0.76214  Biso   1.000  N
  N35      1.0000 0.77661  0.60616  0.26214  Biso   1.000  N
  N36      1.0000 0.22339  0.10616  0.23786  Biso   1.000  N
  C5       1.0000 0.21419  0.56059  0.25909  Biso   1.000  C
  C6       1.0000 0.78581  0.06059  0.24091  Biso   1.000  C
  C7       1.0000 0.78581  0.43941  0.74091  Biso   1.000  C
  C8       1.0000 0.21419  0.93941  0.75909  Biso   1.000  C
  H5       1.0000 0.20780  0.49110  0.31920  Biso   1.000  H
  H6       1.0000 0.79220  0.99110  0.18080  Biso   1.000  H
  H7       1.0000 0.79220  0.50890  0.68080  Biso   1.000  H
  H8       1.0000 0.20780  0.00890  0.81920  Biso   1.000  H
  C9       1.0000 0.41947  0.73875  0.50913  Biso   1.000  C
  C10      1.0000 0.58053  0.23875  0.99087  Biso   1.000  C
  C11      1.0000 0.58053  0.26125  0.49087  Biso   1.000  C
  C12      1.0000 0.41947  0.76125  0.00913  Biso   1.000  C
  H9       1.0000 0.44290  0.81410  0.53460  Biso   1.000  H
  H10      1.0000 0.55710  0.31410  0.96540  Biso   1.000  H
  H11      1.0000 0.55710  0.18590  0.46540  Biso   1.000  H
  H12      1.0000 0.44290  0.68590  0.03460  Biso   1.000  H
  C13      1.0000 0.08021  0.46927  0.46975  Biso   1.000  C
  C14      1.0000 0.91979  0.96927  0.03025  Biso   1.000  C
  C15      1.0000 0.91979  0.53073  0.53025  Biso   1.000  C
  C16      1.0000 0.08021  0.03073  0.96975  Biso   1.000  C
  H13      1.0000 0.05540  0.54060  0.43580  Biso   1.000  H
  H14      1.0000 0.94460  0.04060  0.06420  Biso   1.000  H
  H15      1.0000 0.94460  0.45940  0.56420  Biso   1.000  H
  H16      1.0000 0.05540  0.95940  0.93580  Biso   1.000  H
  C17      1.0000 0.01517  0.33825  0.28585  Biso   1.000  C
  C18      1.0000 0.98483  0.83825  0.21415  Biso   1.000  C
  C19      1.0000 0.98483  0.66175  0.71415  Biso   1.000  C
  C20      1.0000 0.01517  0.16175  0.78585  Biso   1.000  C
  C21      1.0000 0.36717  0.74073  0.40097  Biso   1.000  C
  C22      1.0000 0.63283  0.24073  0.09903  Biso   1.000  C
  C23      1.0000 0.63283  0.25927  0.59903  Biso   1.000  C
  C24      1.0000 0.36717  0.75927  0.90097  Biso   1.000  C
  H17      1.0000 0.35620  0.81650  0.35260  Biso   1.000  H
  H18      1.0000 0.64380  0.31650  0.14740  Biso   1.000  H
  H19      1.0000 0.64380  0.18350  0.64740  Biso   1.000  H
  H20      1.0000 0.35620  0.68350  0.85260  Biso   1.000  H
  N37      1.0000 0.27238  0.63590  0.26453  Biso   1.000  N
  N38      1.0000 0.72762  0.13590  0.23547  Biso   1.000  N
  N39      1.0000 0.72762  0.36410  0.73547  Biso   1.000  N
  N40      1.0000 0.27238  0.86410  0.76453  Biso   1.000  N
  C25      1.0000 0.13028  0.48266  0.58193  Biso   1.000  C
  C26      1.0000 0.86972  0.98266  0.91807  Biso   1.000  C
  C27      1.0000 0.86972  0.51734  0.41807  Biso   1.000  C
  C28      1.0000 0.13028  0.01734  0.08193  Biso   1.000  C
  H21      1.0000 0.13800  0.56200  0.62510  Biso   1.000  H
  H22      1.0000 0.86200  0.06200  0.87490  Biso   1.000  H
  H23      1.0000 0.86200  0.43800  0.37490  Biso   1.000  H
  H24      1.0000 0.13800  0.93800  0.12510  Biso   1.000  H
  N41      1.0000 0.57535  0.69596  0.83971  Biso   1.000  N
  N42      1.0000 0.42465  0.19596  0.66029  Biso   1.000  N
  N43      1.0000 0.42465  0.30404  0.16029  Biso   1.000  N
  N44      1.0000 0.57535  0.80404  0.33971  Biso   1.000  N
  C29      1.0000 0.49045  0.62954  0.70023  Biso   1.000  C
  C30      1.0000 0.50955  0.12954  0.79977  Biso   1.000  C
  C31      1.0000 0.50955  0.37046  0.29977  Biso   1.000  C
  C32      1.0000 0.49045  0.87046  0.20023  Biso   1.000  C
  C33      1.0000 0.35059  0.51298  0.43005  Biso   1.000  C
  C34      1.0000 0.64941  0.01298  0.06995  Biso   1.000  C
  C35      1.0000 0.64941  0.48702  0.56995  Biso   1.000  C
  C36      1.0000 0.35059  0.98702  0.93005  Biso   1.000  C
  H25      1.0000 0.32830  0.43730  0.40170  Biso   1.000  H
  H26      1.0000 0.67170  0.93730  0.09830  Biso   1.000  H
  H27      1.0000 0.67170  0.56270  0.59830  Biso   1.000  H
  H28      1.0000 0.32830  0.06270  0.90170  Biso   1.000  H
  C37      1.0000 0.10391  0.24293  0.45984  Biso   1.000  C
  C38      1.0000 0.89609  0.74293  0.04016  Biso   1.000  C
  C39      1.0000 0.89609  0.75707  0.54016  Biso   1.000  C
  C40      1.0000 0.10391  0.25707  0.95984  Biso   1.000  C
  H29      1.0000 0.09420  0.16250  0.42080  Biso   1.000  H
  H30      1.0000 0.90580  0.66250  0.07920  Biso   1.000  H
  H31      1.0000 0.90580  0.83750  0.57920  Biso   1.000  H
  H32      1.0000 0.09420  0.33750  0.92080  Biso   1.000  H
  C41      1.0000 0.15539  0.25600  0.57030  Biso   1.000  C
  C42      1.0000 0.84461  0.75600  0.92970  Biso   1.000  C
  C43      1.0000 0.84461  0.74400  0.42970  Biso   1.000  C
  C44      1.0000 0.15539  0.24400  0.07030  Biso   1.000  C
  H33      1.0000 0.18050  0.18500  0.60410  Biso   1.000  H
  H34      1.0000 0.81950  0.68500  0.89590  Biso   1.000  H
  H35      1.0000 0.81950  0.81500  0.39590  Biso   1.000  H
  H36      1.0000 0.18050  0.31500  0.10410  Biso   1.000  H
  C45      1.0000 0.43754  0.62500  0.58044  Biso   1.000  C
  C46      1.0000 0.56246  0.12500  0.91956  Biso   1.000  C
  C47      1.0000 0.56246  0.37500  0.41956  Biso   1.000  C
  C48      1.0000 0.43754  0.87500  0.08044  Biso   1.000  C
  C49      1.0000 0.06690  0.34946  0.40762  Biso   1.000  C
  C50      1.0000 0.93310  0.84946  0.09238  Biso   1.000  C
  C51      1.0000 0.93310  0.65054  0.59238  Biso   1.000  C
  C52      1.0000 0.06690  0.15054  0.90762  Biso   1.000  C
  N45      1.0000 0.32875  0.39252  0.84665  Biso   1.000  N
  N46      1.0000 0.67125  0.89252  0.65335  Biso   1.000  N
  N47      1.0000 0.67125  0.60748  0.15335  Biso   1.000  N
  N48      1.0000 0.32875  0.10748  0.34665  Biso   1.000  N
  C53      1.0000 0.40374  0.51150  0.53776  Biso   1.000  C
  C54      1.0000 0.59626  0.01150  0.96224  Biso   1.000  C
  C55      1.0000 0.59626  0.48850  0.46224  Biso   1.000  C
  C56      1.0000 0.40374  0.98850  0.03776  Biso   1.000  C
  H37      1.0000 0.41680  0.43450  0.58160  Biso   1.000  H
  H38      1.0000 0.58320  0.93450  0.91840  Biso   1.000  H
  H39      1.0000 0.58320  0.56550  0.41840  Biso   1.000  H
  H40      1.0000 0.41680  0.06550  0.08160  Biso   1.000  H
  C57      1.0000 0.26136  0.72898  0.16075  Biso   1.000  C
  C58      1.0000 0.73864  0.22898  0.33925  Biso   1.000  C
  C59      1.0000 0.73864  0.27102  0.83925  Biso   1.000  C
  C60      1.0000 0.26136  0.77102  0.66075  Biso   1.000  C
  H41      1.0000 0.29130  0.79560  0.14000  Biso   1.000  H
  H42      1.0000 0.70870  0.29560  0.36000  Biso   1.000  H
  H43      1.0000 0.70870  0.20440  0.86000  Biso   1.000  H
  H44      1.0000 0.29130  0.70440  0.64000  Biso   1.000  H
  C61      1.0000 0.28529  0.46866  0.92324  Biso   1.000  C
  C62      1.0000 0.71471  0.96866  0.57676  Biso   1.000  C
  C63      1.0000 0.71471  0.53134  0.07676  Biso   1.000  C
  C64      1.0000 0.28529  0.03134  0.42324  Biso   1.000  C
  H45      1.0000 0.29840  0.51080  0.00810  Biso   1.000  H
  H46      1.0000 0.70160  0.01080  0.49190  Biso   1.000  H
  H47      1.0000 0.70160  0.48920  0.99190  Biso   1.000  H
  H48      1.0000 0.29840  0.98920  0.50810  Biso   1.000  H
  C65      1.0000 0.16870  0.37630  0.62917  Biso   1.000  C
  C66      1.0000 0.83130  0.87630  0.87083  Biso   1.000  C
  C67      1.0000 0.83130  0.62370  0.37083  Biso   1.000  C
  C68      1.0000 0.16870  0.12370  0.12917  Biso   1.000  C
  C69      1.0000 0.33112  0.62860  0.36516  Biso   1.000  C
  C70      1.0000 0.66888  0.12860  0.13484  Biso   1.000  C
  C71      1.0000 0.66888  0.37140  0.63484  Biso   1.000  C
  C72      1.0000 0.33112  0.87140  0.86516  Biso   1.000  C
  C73      1.0000 0.19802  0.70349  0.09531  Biso   1.000  C
  C74      1.0000 0.80198  0.20349  0.40469  Biso   1.000  C
  C75      1.0000 0.80198  0.29651  0.90469  Biso   1.000  C
  C76      1.0000 0.19802  0.79651  0.59531  Biso   1.000  C
  H49      1.0000 0.17760  0.74980  0.01910  Biso   1.000  H
  H50      1.0000 0.82240  0.24980  0.48090  Biso   1.000  H
  H51      1.0000 0.82240  0.25020  0.98090  Biso   1.000  H
  H52      1.0000 0.17760  0.75020  0.51910  Biso   1.000  H
  C77      1.0000 0.22056  0.47296  0.85634  Biso   1.000  C
  C78      1.0000 0.77944  0.97296  0.64366  Biso   1.000  C
  C79      1.0000 0.77944  0.52704  0.14366  Biso   1.000  C
  C80      1.0000 0.22056  0.02704  0.35634  Biso   1.000  C
  H53      1.0000 0.18220  0.51940  0.88430  Biso   1.000  H
  H54      1.0000 0.81780  0.01940  0.61570  Biso   1.000  H
  H55      1.0000 0.81780  0.48060  0.11570  Biso   1.000  H
  H56      1.0000 0.18220  0.98060  0.38430  Biso   1.000  H
