data_image0
_cell_length_a       19.2859
_cell_length_b       10.4603
_cell_length_c       9.4438
_cell_angle_alpha    90
_cell_angle_beta     94.048
_cell_angle_gamma    90

_symmetry_space_group_name_H-M    "P 1"
_symmetry_int_tables_number       1

loop_
  _symmetry_equiv_pos_as_xyz
  'x, y, z'

loop_
  _atom_site_label
  _atom_site_occupancy
  _atom_site_fract_x
  _atom_site_fract_y
  _atom_site_fract_z
  _atom_site_thermal_displace_type
  _atom_site_B_iso_or_equiv
  _atom_site_type_symbol
  N1       1.0000 0.27215  0.36550  0.26520  Biso   1.000  N
  N2       1.0000 0.72785  0.86550  0.23480  Biso   1.000  N
  N3       1.0000 0.72785  0.63450  0.73480  Biso   1.000  N
  N4       1.0000 0.27215  0.13450  0.76520  Biso   1.000  N
  C1       1.0000 0.26110  0.27340  0.16020  Biso   1.000  C
  C2       1.0000 0.73890  0.77340  0.33980  Biso   1.000  C
  C3       1.0000 0.73890  0.72660  0.83980  Biso   1.000  C
  C4       1.0000 0.26110  0.22660  0.66020  Biso   1.000  C
  H1       1.0000 0.29110  0.20780  0.13860  Biso   1.000  H
  H2       1.0000 0.70890  0.70780  0.36140  Biso   1.000  H
  H3       1.0000 0.70890  0.79220  0.86140  Biso   1.000  H
  H4       1.0000 0.29110  0.29220  0.63860  Biso   1.000  H
  C5       1.0000 0.19820  0.29870  0.09620  Biso   1.000  C
  C6       1.0000 0.80180  0.79870  0.40380  Biso   1.000  C
  C7       1.0000 0.80180  0.70130  0.90380  Biso   1.000  C
  C8       1.0000 0.19820  0.20130  0.59620  Biso   1.000  C
  H5       1.0000 0.17770  0.25310  0.01970  Biso   1.000  H
  H6       1.0000 0.82230  0.75310  0.48030  Biso   1.000  H
  H7       1.0000 0.82230  0.74690  0.98030  Biso   1.000  H
  H8       1.0000 0.17770  0.24690  0.51970  Biso   1.000  H
  C9       1.0000 0.21389  0.43890  0.25990  Biso   1.000  C
  C10      1.0000 0.78611  0.93890  0.24010  Biso   1.000  C
  C11      1.0000 0.78611  0.56110  0.74010  Biso   1.000  C
  C12      1.0000 0.21389  0.06110  0.75990  Biso   1.000  C
  H9       1.0000 0.20730  0.50740  0.32020  Biso   1.000  H
  H10      1.0000 0.79270  0.00740  0.17980  Biso   1.000  H
  H11      1.0000 0.79270  0.49260  0.67980  Biso   1.000  H
  H12      1.0000 0.20730  0.99260  0.82020  Biso   1.000  H
  C13      1.0000 0.33092  0.37240  0.36610  Biso   1.000  C
  C14      1.0000 0.66908  0.87240  0.13390  Biso   1.000  C
  C15      1.0000 0.66908  0.62760  0.63390  Biso   1.000  C
  C16      1.0000 0.33092  0.12760  0.86610  Biso   1.000  C
  C17      1.0000 0.36695  0.26170  0.40090  Biso   1.000  C
  C18      1.0000 0.63305  0.76170  0.09910  Biso   1.000  C
  C19      1.0000 0.63305  0.73830  0.59910  Biso   1.000  C
  C20      1.0000 0.36695  0.23830  0.90090  Biso   1.000  C
  H13      1.0000 0.35620  0.18630  0.35190  Biso   1.000  H
  H14      1.0000 0.64380  0.68630  0.14810  Biso   1.000  H
  H15      1.0000 0.64380  0.81370  0.64810  Biso   1.000  H
  H16      1.0000 0.35620  0.31370  0.85190  Biso   1.000  H
  C21      1.0000 0.41940  0.26330  0.50920  Biso   1.000  C
  C22      1.0000 0.58060  0.76330  0.99080  Biso   1.000  C
  C23      1.0000 0.58060  0.73670  0.49080  Biso   1.000  C
  C24      1.0000 0.41940  0.23670  0.00920  Biso   1.000  C
  H17      1.0000 0.44290  0.18810  0.53410  Biso   1.000  H
  H18      1.0000 0.55710  0.68810  0.96590  Biso   1.000  H
  H19      1.0000 0.55710  0.81190  0.46590  Biso   1.000  H
  H20      1.0000 0.44290  0.31190  0.03410  Biso   1.000  H
  C25      1.0000 0.43710  0.37570  0.58090  Biso   1.000  C
  C26      1.0000 0.56290  0.87570  0.91910  Biso   1.000  C
  C27      1.0000 0.56290  0.62430  0.41910  Biso   1.000  C
  C28      1.0000 0.43710  0.12430  0.08090  Biso   1.000  C
  C29      1.0000 0.40320  0.48840  0.53890  Biso   1.000  C
  C30      1.0000 0.59680  0.98840  0.96110  Biso   1.000  C
  C31      1.0000 0.59680  0.51160  0.46110  Biso   1.000  C
  C32      1.0000 0.40320  0.01160  0.03890  Biso   1.000  C
  H21      1.0000 0.41630  0.56510  0.58280  Biso   1.000  H
  H22      1.0000 0.58370  0.06510  0.91720  Biso   1.000  H
  H23      1.0000 0.58370  0.43490  0.41720  Biso   1.000  H
  H24      1.0000 0.41630  0.93490  0.08280  Biso   1.000  H
  C33      1.0000 0.35010  0.48710  0.43230  Biso   1.000  C
  C34      1.0000 0.64990  0.98710  0.06770  Biso   1.000  C
  C35      1.0000 0.64990  0.51290  0.56770  Biso   1.000  C
  C36      1.0000 0.35010  0.01290  0.93230  Biso   1.000  C
  H25      1.0000 0.32740  0.56250  0.40520  Biso   1.000  H
  H26      1.0000 0.67260  0.06250  0.09480  Biso   1.000  H
  H27      1.0000 0.67260  0.43750  0.59480  Biso   1.000  H
  H28      1.0000 0.32740  0.93750  0.90520  Biso   1.000  H
  C37      1.0000 0.49040  0.37170  0.70050  Biso   1.000  C
  C38      1.0000 0.50960  0.87170  0.79950  Biso   1.000  C
  C39      1.0000 0.50960  0.62830  0.29950  Biso   1.000  C
  C40      1.0000 0.49040  0.12830  0.20050  Biso   1.000  C
  N5       1.0000 0.22419  0.60770  0.73720  Biso   1.000  N
  N6       1.0000 0.77581  0.10770  0.76280  Biso   1.000  N
  N7       1.0000 0.77581  0.39230  0.26280  Biso   1.000  N
  N8       1.0000 0.22419  0.89230  0.23720  Biso   1.000  N
  C41      1.0000 0.28970  0.65290  0.73780  Biso   1.000  C
  C42      1.0000 0.71030  0.15290  0.76220  Biso   1.000  C
  C43      1.0000 0.71030  0.34710  0.26220  Biso   1.000  C
  C44      1.0000 0.28970  0.84710  0.23780  Biso   1.000  C
  H29      1.0000 0.30500  0.70810  0.66940  Biso   1.000  H
  H30      1.0000 0.69500  0.20810  0.83060  Biso   1.000  H
  H31      1.0000 0.69500  0.29190  0.33060  Biso   1.000  H
  H32      1.0000 0.30500  0.79190  0.16940  Biso   1.000  H
  C45      1.0000 0.28640  0.53510  0.92210  Biso   1.000  C
  C46      1.0000 0.71360  0.03510  0.57790  Biso   1.000  C
  C47      1.0000 0.71360  0.46490  0.07790  Biso   1.000  C
  C48      1.0000 0.28640  0.96490  0.42210  Biso   1.000  C
  H33      1.0000 0.29990  0.49430  0.00710  Biso   1.000  H
  H34      1.0000 0.70010  0.99430  0.49290  Biso   1.000  H
  H35      1.0000 0.70010  0.50570  0.99290  Biso   1.000  H
  H36      1.0000 0.29990  0.00570  0.50710  Biso   1.000  H
  C49      1.0000 0.22240  0.52950  0.85560  Biso   1.000  C
  C50      1.0000 0.77760  0.02950  0.64440  Biso   1.000  C
  C51      1.0000 0.77760  0.47050  0.14440  Biso   1.000  C
  C52      1.0000 0.22240  0.97050  0.35560  Biso   1.000  C
  H37      1.0000 0.18470  0.48280  0.88330  Biso   1.000  H
  H38      1.0000 0.81530  0.98280  0.61670  Biso   1.000  H
  H39      1.0000 0.81530  0.51720  0.11670  Biso   1.000  H
  H40      1.0000 0.18470  0.01720  0.38330  Biso   1.000  H
  C53      1.0000 0.16896  0.62430  0.62940  Biso   1.000  C
  C54      1.0000 0.83104  0.12430  0.87060  Biso   1.000  C
  C55      1.0000 0.83104  0.37570  0.37060  Biso   1.000  C
  C56      1.0000 0.16896  0.87570  0.12940  Biso   1.000  C
  C57      1.0000 0.15510  0.74330  0.57100  Biso   1.000  C
  C58      1.0000 0.84490  0.24330  0.92900  Biso   1.000  C
  C59      1.0000 0.84490  0.25670  0.42900  Biso   1.000  C
  C60      1.0000 0.15510  0.75670  0.07100  Biso   1.000  C
  H41      1.0000 0.17970  0.81470  0.60530  Biso   1.000  H
  H42      1.0000 0.82030  0.31470  0.89470  Biso   1.000  H
  H43      1.0000 0.82030  0.18530  0.39470  Biso   1.000  H
  H44      1.0000 0.17970  0.68530  0.10530  Biso   1.000  H
  C61      1.0000 0.10384  0.75560  0.46000  Biso   1.000  C
  C62      1.0000 0.89616  0.25560  0.04000  Biso   1.000  C
  C63      1.0000 0.89616  0.24440  0.54000  Biso   1.000  C
  C64      1.0000 0.10384  0.74440  0.96000  Biso   1.000  C
  H45      1.0000 0.09400  0.83570  0.42080  Biso   1.000  H
  H46      1.0000 0.90600  0.33570  0.07920  Biso   1.000  H
  H47      1.0000 0.90600  0.16430  0.57920  Biso   1.000  H
  H48      1.0000 0.09400  0.66430  0.92080  Biso   1.000  H
  C65      1.0000 0.06735  0.64910  0.40740  Biso   1.000  C
  C66      1.0000 0.93265  0.14910  0.09260  Biso   1.000  C
  C67      1.0000 0.93265  0.35090  0.59260  Biso   1.000  C
  C68      1.0000 0.06735  0.85090  0.90740  Biso   1.000  C
  C69      1.0000 0.08139  0.53040  0.46960  Biso   1.000  C
  C70      1.0000 0.91861  0.03040  0.03040  Biso   1.000  C
  C71      1.0000 0.91861  0.46960  0.53040  Biso   1.000  C
  C72      1.0000 0.08139  0.96960  0.96960  Biso   1.000  C
  H49      1.0000 0.05720  0.45860  0.43510  Biso   1.000  H
  H50      1.0000 0.94280  0.95860  0.06490  Biso   1.000  H
  H51      1.0000 0.94280  0.54140  0.56490  Biso   1.000  H
  H52      1.0000 0.05720  0.04140  0.93510  Biso   1.000  H
  C73      1.0000 0.13092  0.51810  0.58200  Biso   1.000  C
  C74      1.0000 0.86908  0.01810  0.91800  Biso   1.000  C
  C75      1.0000 0.86908  0.48190  0.41800  Biso   1.000  C
  C76      1.0000 0.13092  0.98190  0.08200  Biso   1.000  C
  H53      1.0000 0.13870  0.43910  0.62550  Biso   1.000  H
  H54      1.0000 0.86130  0.93910  0.87450  Biso   1.000  H
  H55      1.0000 0.86130  0.56090  0.37450  Biso   1.000  H
  H56      1.0000 0.13870  0.06090  0.12550  Biso   1.000  H
  C77      1.0000 0.01546  0.66040  0.28650  Biso   1.000  C
  C78      1.0000 0.98454  0.16040  0.21350  Biso   1.000  C
  C79      1.0000 0.98454  0.33960  0.71350  Biso   1.000  C
  C80      1.0000 0.01546  0.83960  0.78650  Biso   1.000  C
  Cu1      1.0000 0.43641  0.60189  0.87254  Biso   1.000  Cu
  Cu2      1.0000 0.56359  0.10189  0.62746  Biso   1.000  Cu
  Cu3      1.0000 0.56359  0.39811  0.12746  Biso   1.000  Cu
  Cu4      1.0000 0.43641  0.89811  0.37254  Biso   1.000  Cu
  Cu5      1.0000 0.06133  0.42090  0.12655  Biso   1.000  Cu
  Cu6      1.0000 0.93867  0.92090  0.37345  Biso   1.000  Cu
  Cu7      1.0000 0.93867  0.57910  0.87345  Biso   1.000  Cu
  Cu8      1.0000 0.06133  0.07910  0.62655  Biso   1.000  Cu
  N9       1.0000 0.16809  0.40150  0.15940  Biso   1.000  N
  N10      1.0000 0.83191  0.90150  0.34060  Biso   1.000  N
  N11      1.0000 0.83191  0.59850  0.84060  Biso   1.000  N
  N12      1.0000 0.16809  0.09850  0.65940  Biso   1.000  N
  N13      1.0000 0.49489  0.45280  0.81110  Biso   1.000  N
  N14      1.0000 0.50511  0.95280  0.68890  Biso   1.000  N
  N15      1.0000 0.50511  0.54720  0.18890  Biso   1.000  N
  N16      1.0000 0.49489  0.04720  0.31110  Biso   1.000  N
  N17      1.0000 0.54919  0.40840  0.89690  Biso   1.000  N
  N18      1.0000 0.45081  0.90840  0.60310  Biso   1.000  N
  N19      1.0000 0.45081  0.59160  0.10310  Biso   1.000  N
  N20      1.0000 0.54919  0.09160  0.39690  Biso   1.000  N
  N21      1.0000 0.57531  0.30630  0.83990  Biso   1.000  N
  N22      1.0000 0.42469  0.80630  0.66010  Biso   1.000  N
  N23      1.0000 0.42469  0.69370  0.16010  Biso   1.000  N
  N24      1.0000 0.57531  0.19370  0.33990  Biso   1.000  N
  N25      1.0000 0.53872  0.27960  0.71630  Biso   1.000  N
  N26      1.0000 0.46128  0.77960  0.78370  Biso   1.000  N
  N27      1.0000 0.46128  0.72040  0.28370  Biso   1.000  N
  N28      1.0000 0.53872  0.22040  0.21630  Biso   1.000  N
  N29      1.0000 0.32922  0.61030  0.84570  Biso   1.000  N
  N30      1.0000 0.67078  0.11030  0.65430  Biso   1.000  N
  N31      1.0000 0.67078  0.38970  0.15430  Biso   1.000  N
  N32      1.0000 0.32922  0.88970  0.34570  Biso   1.000  N
  N33      1.0000 0.96900  0.75510  0.26640  Biso   1.000  N
  N34      1.0000 0.03100  0.25510  0.23360  Biso   1.000  N
  N35      1.0000 0.03100  0.24490  0.73360  Biso   1.000  N
  N36      1.0000 0.96900  0.74490  0.76640  Biso   1.000  N
  N37      1.0000 0.93325  0.72870  0.14150  Biso   1.000  N
  N38      1.0000 0.06675  0.22870  0.35850  Biso   1.000  N
  N39      1.0000 0.06675  0.27130  0.85850  Biso   1.000  N
  N40      1.0000 0.93325  0.77130  0.64150  Biso   1.000  N
  N41      1.0000 0.95713  0.62250  0.09000  Biso   1.000  N
  N42      1.0000 0.04287  0.12250  0.41000  Biso   1.000  N
  N43      1.0000 0.04287  0.37750  0.91000  Biso   1.000  N
  N44      1.0000 0.95713  0.87750  0.59000  Biso   1.000  N
  N45      1.0000 0.00906  0.57630  0.17830  Biso   1.000  N
  N46      1.0000 0.99094  0.07630  0.32170  Biso   1.000  N
  N47      1.0000 0.99094  0.42370  0.82170  Biso   1.000  N
  N48      1.0000 0.00906  0.92370  0.67830  Biso   1.000  N
