data_image0
_cell_length_a       8.3518
_cell_length_b       9.4925
_cell_length_c       10.4159
_cell_angle_alpha    71.745
_cell_angle_beta     81.017
_cell_angle_gamma    86.474

_symmetry_space_group_name_H-M    "P 1"
_symmetry_int_tables_number       1

loop_
  _symmetry_equiv_pos_as_xyz
  'x, y, z'

loop_
  _atom_site_label
  _atom_site_occupancy
  _atom_site_fract_x
  _atom_site_fract_y
  _atom_site_fract_z
  _atom_site_thermal_displace_type
  _atom_site_B_iso_or_equiv
  _atom_site_type_symbol
  I1       1.0000 0.14383  0.14641  0.30830  Biso   1.000  I
  I2       1.0000 0.85617  0.85359  0.69170  Biso   1.000  I
  I3       1.0000 0.64037  0.19015  0.35364  Biso   1.000  I
  I4       1.0000 0.35963  0.80985  0.64636  Biso   1.000  I
  Cu1      1.0000 0.40723  0.99500  0.39676  Biso   1.000  Cu
  Cu2      1.0000 0.59277  0.00500  0.60324  Biso   1.000  Cu
  Cu3      1.0000 0.87762  0.99131  0.42586  Biso   1.000  Cu
  Cu4      1.0000 0.12238  0.00869  0.57414  Biso   1.000  Cu
  S1       1.0000 0.21992  0.55276  0.04745  Biso   1.000  S
  S2       1.0000 0.78008  0.44724  0.95255  Biso   1.000  S
  N1       1.0000 0.47020  0.87540  0.26270  Biso   1.000  N
  N2       1.0000 0.52980  0.12460  0.73730  Biso   1.000  N
  N3       1.0000 0.87890  0.81880  0.34650  Biso   1.000  N
  N4       1.0000 0.12110  0.18120  0.65350  Biso   1.000  N
  C1       1.0000 0.97440  0.81830  0.23020  Biso   1.000  C
  C2       1.0000 0.02560  0.18170  0.76980  Biso   1.000  C
  H1       1.0000 0.04180  0.90150  0.18460  Biso   1.000  H
  H2       1.0000 0.95820  0.09850  0.81540  Biso   1.000  H
  C3       1.0000 0.09180  0.71500  0.03950  Biso   1.000  C
  C4       1.0000 0.90820  0.28500  0.96050  Biso   1.000  C
  H3       1.0000 0.16120  0.80300  0.01550  Biso   1.000  H
  H4       1.0000 0.83880  0.19700  0.98450  Biso   1.000  H
  H5       1.0000 0.02470  0.72980  0.96590  Biso   1.000  H
  H6       1.0000 0.97530  0.27020  0.03410  Biso   1.000  H
  C5       1.0000 0.78240  0.58260  0.36140  Biso   1.000  C
  C6       1.0000 0.21760  0.41740  0.63860  Biso   1.000  C
  H7       1.0000 0.71360  0.50100  0.40990  Biso   1.000  H
  H8       1.0000 0.28640  0.49900  0.59010  Biso   1.000  H
  C7       1.0000 0.38520  0.75540  0.27110  Biso   1.000  C
  C8       1.0000 0.61480  0.24460  0.72890  Biso   1.000  C
  H9       1.0000 0.30120  0.72170  0.34590  Biso   1.000  H
  H10      1.0000 0.69880  0.27830  0.65410  Biso   1.000  H
  C9       1.0000 0.41440  0.67890  0.17590  Biso   1.000  C
  C10      1.0000 0.58560  0.32110  0.82410  Biso   1.000  C
  C11      1.0000 0.53660  0.73100  0.06600  Biso   1.000  C
  C12      1.0000 0.46340  0.26900  0.93400  Biso   1.000  C
  H11      1.0000 0.55780  0.68380  0.99680  Biso   1.000  H
  H12      1.0000 0.44220  0.31620  0.00320  Biso   1.000  H
  C13      1.0000 0.58930  0.91930  0.15830  Biso   1.000  C
  C14      1.0000 0.41070  0.08070  0.84170  Biso   1.000  C
  H13      1.0000 0.65180  0.00190  0.15230  Biso   1.000  H
  H14      1.0000 0.34820  0.99810  0.84770  Biso   1.000  H
  C15      1.0000 0.31740  0.54250  0.19390  Biso   1.000  C
  C16      1.0000 0.68260  0.45750  0.80610  Biso   1.000  C
  H15      1.0000 0.23340  0.52840  0.27510  Biso   1.000  H
  H16      1.0000 0.76660  0.47160  0.72490  Biso   1.000  H
  H17      1.0000 0.39060  0.45460  0.21170  Biso   1.000  H
  H18      1.0000 0.60940  0.54540  0.78830  Biso   1.000  H
  C17      1.0000 0.98140  0.70420  0.17200  Biso   1.000  C
  C18      1.0000 0.01860  0.29580  0.82800  Biso   1.000  C
  C19      1.0000 0.78330  0.70180  0.41030  Biso   1.000  C
  C20      1.0000 0.21670  0.29820  0.58970  Biso   1.000  C
  H19      1.0000 0.71390  0.70080  0.49200  Biso   1.000  H
  H20      1.0000 0.28610  0.29920  0.50800  Biso   1.000  H
  C21      1.0000 0.88090  0.58140  0.24250  Biso   1.000  C
  C22      1.0000 0.11910  0.41860  0.75750  Biso   1.000  C
  H21      1.0000 0.88120  0.49940  0.20860  Biso   1.000  H
  H22      1.0000 0.11880  0.50060  0.79140  Biso   1.000  H
  C23      1.0000 0.62640  0.85040  0.05780  Biso   1.000  C
  C24      1.0000 0.37360  0.14960  0.94220  Biso   1.000  C
  H23      1.0000 0.71230  0.88520  0.98490  Biso   1.000  H
  H24      1.0000 0.28770  0.11480  0.01510  Biso   1.000  H
