data_image0
_cell_length_a       8.222
_cell_length_b       8.701
_cell_length_c       11.963
_cell_angle_alpha    101.95
_cell_angle_beta     96.102
_cell_angle_gamma    116.891

_symmetry_space_group_name_H-M    "P 1"
_symmetry_int_tables_number       1

loop_
  _symmetry_equiv_pos_as_xyz
  'x, y, z'

loop_
  _atom_site_label
  _atom_site_occupancy
  _atom_site_fract_x
  _atom_site_fract_y
  _atom_site_fract_z
  _atom_site_thermal_displace_type
  _atom_site_B_iso_or_equiv
  _atom_site_type_symbol
  C1       1.0000 0.21430  0.90300  0.86280  Biso   1.000  C
  C2       1.0000 0.78570  0.09700  0.13720  Biso   1.000  C
  H1       1.0000 0.09800  0.89120  0.87010  Biso   1.000  H
  H2       1.0000 0.90200  0.10880  0.12990  Biso   1.000  H
  C3       1.0000 0.33670  0.04860  0.83290  Biso   1.000  C
  C4       1.0000 0.66330  0.95140  0.16710  Biso   1.000  C
  H3       1.0000 0.30440  0.13490  0.82190  Biso   1.000  H
  H4       1.0000 0.69560  0.86510  0.17810  Biso   1.000  H
  C5       1.0000 0.50820  0.06750  0.81900  Biso   1.000  C
  C6       1.0000 0.49180  0.93250  0.18100  Biso   1.000  C
  H5       1.0000 0.59230  0.16520  0.79740  Biso   1.000  H
  H6       1.0000 0.40770  0.83480  0.20260  Biso   1.000  H
  C7       1.0000 0.55330  0.93670  0.83800  Biso   1.000  C
  C8       1.0000 0.44670  0.06330  0.16200  Biso   1.000  C
  C9       1.0000 0.42220  0.79440  0.87000  Biso   1.000  C
  C10      1.0000 0.57780  0.20560  0.13000  Biso   1.000  C
  H7       1.0000 0.45220  0.70780  0.88360  Biso   1.000  H
  H8       1.0000 0.54780  0.29220  0.11640  Biso   1.000  H
  C11      1.0000 0.73900  0.95050  0.82470  Biso   1.000  C
  C12      1.0000 0.26100  0.04950  0.17530  Biso   1.000  C
  H9       1.0000 0.78730  0.91980  0.88920  Biso   1.000  H
  H10      1.0000 0.21270  0.08020  0.11080  Biso   1.000  H
  H11      1.0000 0.82650  0.07450  0.83070  Biso   1.000  H
  H12      1.0000 0.17350  0.92550  0.16930  Biso   1.000  H
  C13      1.0000 0.34090  0.65640  0.54420  Biso   1.000  C
  C14      1.0000 0.65910  0.34360  0.45580  Biso   1.000  C
  H13      1.0000 0.33790  0.54340  0.51060  Biso   1.000  H
  H14      1.0000 0.66210  0.45660  0.48940  Biso   1.000  H
  H15      1.0000 0.30920  0.65600  0.62000  Biso   1.000  H
  H16      1.0000 0.69080  0.34400  0.38000  Biso   1.000  H
  C15      1.0000 0.20200  0.67560  0.46500  Biso   1.000  C
  C16      1.0000 0.79800  0.32440  0.53500  Biso   1.000  C
  C17      1.0000 0.10360  0.76040  0.50840  Biso   1.000  C
  C18      1.0000 0.89640  0.23960  0.49160  Biso   1.000  C
  H17      1.0000 0.12470  0.80940  0.58880  Biso   1.000  H
  H18      1.0000 0.87530  0.19060  0.41120  Biso   1.000  H
  C19      1.0000 0.97480  0.77120  0.43130  Biso   1.000  C
  C20      1.0000 0.02520  0.22880  0.56870  Biso   1.000  C
  H19      1.0000 0.90770  0.82700  0.45920  Biso   1.000  H
  H20      1.0000 0.09230  0.17300  0.54080  Biso   1.000  H
  C21      1.0000 0.94670  0.69890  0.31310  Biso   1.000  C
  C22      1.0000 0.05330  0.30110  0.68690  Biso   1.000  C
  H21      1.0000 0.85900  0.70630  0.26180  Biso   1.000  H
  H22      1.0000 0.14100  0.29370  0.73820  Biso   1.000  H
  C23      1.0000 0.16540  0.60750  0.34360  Biso   1.000  C
  C24      1.0000 0.83460  0.39250  0.65640  Biso   1.000  C
  H23      1.0000 0.23140  0.55190  0.31340  Biso   1.000  H
  H24      1.0000 0.76860  0.44810  0.68660  Biso   1.000  H
  N1       1.0000 0.25440  0.77480  0.88240  Biso   1.000  N
  N2       1.0000 0.74560  0.22520  0.11760  Biso   1.000  N
  N3       1.0000 0.04110  0.61730  0.26780  Biso   1.000  N
  N4       1.0000 0.95890  0.38270  0.73220  Biso   1.000  N
  S1       1.0000 0.72990  0.80660  0.68703  Biso   1.000  S
  S2       1.0000 0.27010  0.19340  0.31297  Biso   1.000  S
  S3       1.0000 0.57700  0.84550  0.56237  Biso   1.000  S
  S4       1.0000 0.42300  0.15450  0.43763  Biso   1.000  S
  Cu1      1.0000 0.05354  0.54211  0.90687  Biso   1.000  Cu
  Cu2      1.0000 0.94646  0.45789  0.09313  Biso   1.000  Cu
  I1       1.0000 0.78218  0.59051  0.97144  Biso   1.000  I
  I2       1.0000 0.21782  0.40949  0.02856  Biso   1.000  I
