data_image0
_cell_length_a       8.777
_cell_length_b       6.641
_cell_length_c       12.716
_cell_angle_alpha    90
_cell_angle_beta     90
_cell_angle_gamma    90

_symmetry_space_group_name_H-M    "P 1"
_symmetry_int_tables_number       1

loop_
  _symmetry_equiv_pos_as_xyz
  'x, y, z'

loop_
  _atom_site_label
  _atom_site_occupancy
  _atom_site_fract_x
  _atom_site_fract_y
  _atom_site_fract_z
  _atom_site_thermal_displace_type
  _atom_site_B_iso_or_equiv
  _atom_site_type_symbol
  Cu1      1.0000 0.14400  0.25000  0.66473  Biso   1.000  Cu
  Cu2      1.0000 0.35600  0.75000  0.16473  Biso   1.000  Cu
  Cu3      1.0000 0.64400  0.25000  0.83527  Biso   1.000  Cu
  Cu4      1.0000 0.85600  0.75000  0.33527  Biso   1.000  Cu
  C1       1.0000 0.05180  0.25000  0.43020  Biso   1.000  C
  C2       1.0000 0.44820  0.75000  0.93020  Biso   1.000  C
  C3       1.0000 0.55180  0.25000  0.06980  Biso   1.000  C
  C4       1.0000 0.94820  0.75000  0.56980  Biso   1.000  C
  C5       1.0000 0.91890  0.25000  0.37150  Biso   1.000  C
  C6       1.0000 0.58110  0.75000  0.87150  Biso   1.000  C
  C7       1.0000 0.41890  0.25000  0.12850  Biso   1.000  C
  C8       1.0000 0.08110  0.75000  0.62850  Biso   1.000  C
  H1       1.0000 0.91080  0.25000  0.29700  Biso   1.000  H
  H2       1.0000 0.58920  0.75000  0.79700  Biso   1.000  H
  H3       1.0000 0.41080  0.25000  0.20300  Biso   1.000  H
  H4       1.0000 0.08920  0.75000  0.70300  Biso   1.000  H
  C9       1.0000 0.80120  0.25000  0.44250  Biso   1.000  C
  C10      1.0000 0.69880  0.75000  0.94250  Biso   1.000  C
  C11      1.0000 0.30120  0.25000  0.05750  Biso   1.000  C
  C12      1.0000 0.19880  0.75000  0.55750  Biso   1.000  C
  C13      1.0000 0.21330  0.25000  0.39430  Biso   1.000  C
  C14      1.0000 0.28670  0.75000  0.89430  Biso   1.000  C
  C15      1.0000 0.71330  0.25000  0.10570  Biso   1.000  C
  C16      1.0000 0.78670  0.75000  0.60570  Biso   1.000  C
  H5       1.0000 0.28110  0.25000  0.45550  Biso   1.000  H
  H6       1.0000 0.21890  0.75000  0.95550  Biso   1.000  H
  H7       1.0000 0.78110  0.25000  0.04450  Biso   1.000  H
  H8       1.0000 0.71890  0.75000  0.54450  Biso   1.000  H
  H9       1.0000 0.23260  0.37050  0.35180  Biso   1.000  H
  H10      1.0000 0.26740  0.62950  0.85180  Biso   1.000  H
  H11      1.0000 0.73260  0.12950  0.14820  Biso   1.000  H
  H12      1.0000 0.76740  0.87050  0.64820  Biso   1.000  H
  H13      1.0000 0.76740  0.62950  0.64820  Biso   1.000  H
  H14      1.0000 0.73260  0.37050  0.14820  Biso   1.000  H
  H15      1.0000 0.26740  0.87050  0.85180  Biso   1.000  H
  H16      1.0000 0.23260  0.12950  0.35180  Biso   1.000  H
  C17      1.0000 0.62950  0.25000  0.43120  Biso   1.000  C
  C18      1.0000 0.87050  0.75000  0.93120  Biso   1.000  C
  C19      1.0000 0.12950  0.25000  0.06880  Biso   1.000  C
  C20      1.0000 0.37050  0.75000  0.56880  Biso   1.000  C
  H17      1.0000 0.58240  0.25000  0.50110  Biso   1.000  H
  H18      1.0000 0.91760  0.75000  0.00110  Biso   1.000  H
  H19      1.0000 0.08240  0.25000  0.99890  Biso   1.000  H
  H20      1.0000 0.41760  0.75000  0.49890  Biso   1.000  H
  H21      1.0000 0.59750  0.12950  0.39260  Biso   1.000  H
  H22      1.0000 0.90250  0.87050  0.89260  Biso   1.000  H
  H23      1.0000 0.09750  0.37050  0.10740  Biso   1.000  H
  H24      1.0000 0.40250  0.62950  0.60740  Biso   1.000  H
  H25      1.0000 0.40250  0.87050  0.60740  Biso   1.000  H
  H26      1.0000 0.09750  0.12950  0.10740  Biso   1.000  H
  H27      1.0000 0.90250  0.62950  0.89260  Biso   1.000  H
  H28      1.0000 0.59750  0.37050  0.39260  Biso   1.000  H
  N1       1.0000 0.02350  0.25000  0.53230  Biso   1.000  N
  N2       1.0000 0.47650  0.75000  0.03230  Biso   1.000  N
  N3       1.0000 0.52350  0.25000  0.96770  Biso   1.000  N
  N4       1.0000 0.97650  0.75000  0.46770  Biso   1.000  N
  N5       1.0000 0.86590  0.25000  0.53850  Biso   1.000  N
  N6       1.0000 0.63410  0.75000  0.03850  Biso   1.000  N
  N7       1.0000 0.36590  0.25000  0.96150  Biso   1.000  N
  N8       1.0000 0.13410  0.75000  0.46150  Biso   1.000  N
  H29      1.0000 0.81440  0.25000  0.59790  Biso   1.000  H
  H30      1.0000 0.68560  0.75000  0.09790  Biso   1.000  H
  H31      1.0000 0.31440  0.25000  0.90210  Biso   1.000  H
  H32      1.0000 0.18560  0.75000  0.40210  Biso   1.000  H
  C21      1.0000 0.35030  0.25000  0.70140  Biso   1.000  C
  C22      1.0000 0.14970  0.75000  0.20140  Biso   1.000  C
  C23      1.0000 0.85030  0.25000  0.79860  Biso   1.000  C
  C24      1.0000 0.64970  0.75000  0.29860  Biso   1.000  C
  C25      1.0000 0.47200  0.25000  0.73380  Biso   1.000  C
  C26      1.0000 0.02800  0.75000  0.23380  Biso   1.000  C
  C27      1.0000 0.97200  0.25000  0.76620  Biso   1.000  C
  C28      1.0000 0.52800  0.75000  0.26620  Biso   1.000  C
