data_image0
_cell_length_a       11.123
_cell_length_b       12.78
_cell_length_c       8.133
_cell_angle_alpha    90
_cell_angle_beta     125.231
_cell_angle_gamma    90

_symmetry_space_group_name_H-M    "P 1"
_symmetry_int_tables_number       1

loop_
  _symmetry_equiv_pos_as_xyz
  'x, y, z'

loop_
  _atom_site_label
  _atom_site_occupancy
  _atom_site_fract_x
  _atom_site_fract_y
  _atom_site_fract_z
  _atom_site_thermal_displace_type
  _atom_site_B_iso_or_equiv
  _atom_site_type_symbol
  N1       1.0000 0.04030  0.47372  0.99650  Biso   1.000  N
  N2       1.0000 0.54030  0.97372  0.99650  Biso   1.000  N
  N3       1.0000 0.95970  0.47372  0.50350  Biso   1.000  N
  N4       1.0000 0.45970  0.97372  0.50350  Biso   1.000  N
  N5       1.0000 0.95970  0.52628  0.00350  Biso   1.000  N
  N6       1.0000 0.45970  0.02628  0.00350  Biso   1.000  N
  N7       1.0000 0.04030  0.52628  0.49650  Biso   1.000  N
  N8       1.0000 0.54030  0.02628  0.49650  Biso   1.000  N
  N9       1.0000 0.07092  0.24695  0.81920  Biso   1.000  N
  N10      1.0000 0.57092  0.74695  0.81920  Biso   1.000  N
  N11      1.0000 0.92908  0.24695  0.68080  Biso   1.000  N
  N12      1.0000 0.42908  0.74695  0.68080  Biso   1.000  N
  N13      1.0000 0.92908  0.75305  0.18080  Biso   1.000  N
  N14      1.0000 0.42908  0.25305  0.18080  Biso   1.000  N
  N15      1.0000 0.07092  0.75305  0.31920  Biso   1.000  N
  N16      1.0000 0.57092  0.25305  0.31920  Biso   1.000  N
  N17      1.0000 0.11948  0.14761  0.86570  Biso   1.000  N
  N18      1.0000 0.61948  0.64761  0.86570  Biso   1.000  N
  N19      1.0000 0.88052  0.14761  0.63430  Biso   1.000  N
  N20      1.0000 0.38052  0.64761  0.63430  Biso   1.000  N
  N21      1.0000 0.88052  0.85239  0.13430  Biso   1.000  N
  N22      1.0000 0.38052  0.35239  0.13430  Biso   1.000  N
  N23      1.0000 0.11948  0.85239  0.36570  Biso   1.000  N
  N24      1.0000 0.61948  0.35239  0.36570  Biso   1.000  N
  Cu1      1.0000 0.16909  0.38273  0.98789  Biso   1.000  Cu
  Cu2      1.0000 0.66909  0.88273  0.98789  Biso   1.000  Cu
  Cu3      1.0000 0.83091  0.38273  0.51211  Biso   1.000  Cu
  Cu4      1.0000 0.33091  0.88273  0.51211  Biso   1.000  Cu
  Cu5      1.0000 0.83091  0.61727  0.01211  Biso   1.000  Cu
  Cu6      1.0000 0.33091  0.11727  0.01211  Biso   1.000  Cu
  Cu7      1.0000 0.16909  0.61727  0.48789  Biso   1.000  Cu
  Cu8      1.0000 0.66909  0.11727  0.48789  Biso   1.000  Cu
  C1       1.0000 0.00000  0.75550  0.75000  Biso   1.000  C
  C2       1.0000 0.50000  0.25550  0.75000  Biso   1.000  C
  C3       1.0000 0.00000  0.24450  0.25000  Biso   1.000  C
  C4       1.0000 0.50000  0.74450  0.25000  Biso   1.000  C
  H1       1.0000 0.00000  0.68270  0.75000  Biso   1.000  H
  H2       1.0000 0.50000  0.18270  0.75000  Biso   1.000  H
  H3       1.0000 0.00000  0.31730  0.25000  Biso   1.000  H
  H4       1.0000 0.50000  0.81730  0.25000  Biso   1.000  H
  C5       1.0000 0.90630  0.80918  0.57250  Biso   1.000  C
  C6       1.0000 0.40630  0.30918  0.57250  Biso   1.000  C
  C7       1.0000 0.09370  0.80918  0.92750  Biso   1.000  C
  C8       1.0000 0.59370  0.30918  0.92750  Biso   1.000  C
  C9       1.0000 0.09370  0.19082  0.42750  Biso   1.000  C
  C10      1.0000 0.59370  0.69082  0.42750  Biso   1.000  C
  C11      1.0000 0.90630  0.19082  0.07250  Biso   1.000  C
  C12      1.0000 0.40630  0.69082  0.07250  Biso   1.000  C
  H5       1.0000 0.84470  0.77240  0.45310  Biso   1.000  H
  H6       1.0000 0.34470  0.27240  0.45310  Biso   1.000  H
  H7       1.0000 0.15530  0.77240  0.04690  Biso   1.000  H
  H8       1.0000 0.65530  0.27240  0.04690  Biso   1.000  H
  H9       1.0000 0.15530  0.22760  0.54690  Biso   1.000  H
  H10      1.0000 0.65530  0.72760  0.54690  Biso   1.000  H
  H11      1.0000 0.84470  0.22760  0.95310  Biso   1.000  H
  H12      1.0000 0.34470  0.72760  0.95310  Biso   1.000  H
  C13      1.0000 0.90360  0.91770  0.57140  Biso   1.000  C
  C14      1.0000 0.40360  0.41770  0.57140  Biso   1.000  C
  C15      1.0000 0.09640  0.91770  0.92860  Biso   1.000  C
  C16      1.0000 0.59640  0.41770  0.92860  Biso   1.000  C
  C17      1.0000 0.09640  0.08230  0.42860  Biso   1.000  C
  C18      1.0000 0.59640  0.58230  0.42860  Biso   1.000  C
  C19      1.0000 0.90360  0.08230  0.07140  Biso   1.000  C
  C20      1.0000 0.40360  0.58230  0.07140  Biso   1.000  C
  H13      1.0000 0.83810  0.95380  0.45250  Biso   1.000  H
  H14      1.0000 0.33810  0.45380  0.45250  Biso   1.000  H
  H15      1.0000 0.16190  0.95380  0.04750  Biso   1.000  H
  H16      1.0000 0.66190  0.45380  0.04750  Biso   1.000  H
  H17      1.0000 0.16190  0.04620  0.54750  Biso   1.000  H
  H18      1.0000 0.66190  0.54620  0.54750  Biso   1.000  H
  H19      1.0000 0.83810  0.04620  0.95250  Biso   1.000  H
  H20      1.0000 0.33810  0.54620  0.95250  Biso   1.000  H
  C21      1.0000 0.00000  0.97240  0.75000  Biso   1.000  C
  C22      1.0000 0.50000  0.47240  0.75000  Biso   1.000  C
  C23      1.0000 0.00000  0.02760  0.25000  Biso   1.000  C
  C24      1.0000 0.50000  0.52760  0.25000  Biso   1.000  C
  C25      1.0000 0.00000  0.08720  0.75000  Biso   1.000  C
  C26      1.0000 0.50000  0.58720  0.75000  Biso   1.000  C
  C27      1.0000 0.00000  0.91280  0.25000  Biso   1.000  C
  C28      1.0000 0.50000  0.41280  0.25000  Biso   1.000  C
