data_image0
_cell_length_a       6.9901
_cell_length_b       8.5874
_cell_length_c       13.0732
_cell_angle_alpha    90
_cell_angle_beta     90
_cell_angle_gamma    90

_symmetry_space_group_name_H-M    "P 1"
_symmetry_int_tables_number       1

loop_
  _symmetry_equiv_pos_as_xyz
  'x, y, z'

loop_
  _atom_site_label
  _atom_site_occupancy
  _atom_site_fract_x
  _atom_site_fract_y
  _atom_site_fract_z
  _atom_site_thermal_displace_type
  _atom_site_B_iso_or_equiv
  _atom_site_type_symbol
  C1       1.0000 0.88920  0.12560  0.66800  Biso   1.000  C
  C2       1.0000 0.61080  0.87440  0.16800  Biso   1.000  C
  C3       1.0000 0.11080  0.62560  0.33200  Biso   1.000  C
  C4       1.0000 0.38920  0.37440  0.83200  Biso   1.000  C
  C5       1.0000 0.11080  0.87440  0.33200  Biso   1.000  C
  C6       1.0000 0.38920  0.12560  0.83200  Biso   1.000  C
  C7       1.0000 0.88920  0.37440  0.66800  Biso   1.000  C
  C8       1.0000 0.61080  0.62560  0.16800  Biso   1.000  C
  C9       1.0000 0.86600  0.25000  0.32410  Biso   1.000  C
  C10      1.0000 0.63400  0.75000  0.82410  Biso   1.000  C
  C11      1.0000 0.13400  0.75000  0.67590  Biso   1.000  C
  C12      1.0000 0.36600  0.25000  0.17590  Biso   1.000  C
  N1       1.0000 0.87770  0.25000  0.60750  Biso   1.000  N
  N2       1.0000 0.62230  0.75000  0.10750  Biso   1.000  N
  N3       1.0000 0.12230  0.75000  0.39250  Biso   1.000  N
  N4       1.0000 0.37770  0.25000  0.89250  Biso   1.000  N
  C13      1.0000 0.91010  0.16900  0.76480  Biso   1.000  C
  C14      1.0000 0.58990  0.83100  0.26480  Biso   1.000  C
  C15      1.0000 0.08990  0.66900  0.23520  Biso   1.000  C
  C16      1.0000 0.41010  0.33100  0.73520  Biso   1.000  C
  C17      1.0000 0.08990  0.83100  0.23520  Biso   1.000  C
  C18      1.0000 0.41010  0.16900  0.73520  Biso   1.000  C
  C19      1.0000 0.91010  0.33100  0.76480  Biso   1.000  C
  C20      1.0000 0.58990  0.66900  0.26480  Biso   1.000  C
  Cu1      1.0000 0.84877  0.25000  0.46480  Biso   1.000  Cu
  Cu2      1.0000 0.65123  0.75000  0.96480  Biso   1.000  Cu
  Cu3      1.0000 0.15123  0.75000  0.53520  Biso   1.000  Cu
  Cu4      1.0000 0.34877  0.25000  0.03520  Biso   1.000  Cu
  C21      1.0000 0.88870  0.25000  0.23640  Biso   1.000  C
  C22      1.0000 0.61130  0.75000  0.73640  Biso   1.000  C
  C23      1.0000 0.11130  0.75000  0.76360  Biso   1.000  C
  C24      1.0000 0.38870  0.25000  0.26360  Biso   1.000  C
  Cu5      1.0000 0.45969  0.25000  0.40514  Biso   1.000  Cu
  Cu6      1.0000 0.04031  0.75000  0.90514  Biso   1.000  Cu
  Cu7      1.0000 0.54031  0.75000  0.59486  Biso   1.000  Cu
  Cu8      1.0000 0.95969  0.25000  0.09486  Biso   1.000  Cu
  N5       1.0000 0.99000  0.05630  0.02330  Biso   1.000  N
  N6       1.0000 0.51000  0.94370  0.52330  Biso   1.000  N
  N7       1.0000 0.01000  0.55630  0.97670  Biso   1.000  N
  N8       1.0000 0.49000  0.44370  0.47670  Biso   1.000  N
  N9       1.0000 0.01000  0.94370  0.97670  Biso   1.000  N
  N10      1.0000 0.49000  0.05630  0.47670  Biso   1.000  N
  N11      1.0000 0.99000  0.44370  0.02330  Biso   1.000  N
  N12      1.0000 0.51000  0.55630  0.52330  Biso   1.000  N
