data_image0
_cell_length_a       13.2679
_cell_length_b       13.765
_cell_length_c       23.3329
_cell_angle_alpha    79.509
_cell_angle_beta     84.731
_cell_angle_gamma    88.464

_symmetry_space_group_name_H-M    "P 1"
_symmetry_int_tables_number       1

loop_
  _symmetry_equiv_pos_as_xyz
  'x, y, z'

loop_
  _atom_site_label
  _atom_site_occupancy
  _atom_site_fract_x
  _atom_site_fract_y
  _atom_site_fract_z
  _atom_site_thermal_displace_type
  _atom_site_B_iso_or_equiv
  _atom_site_type_symbol
  Mo1      1.0000 0.66803  0.70223  0.45380  Biso   1.000  Mo
  Mo2      1.0000 0.33197  0.29777  0.54620  Biso   1.000  Mo
  P1       1.0000 0.50000  0.50000  0.50000  Biso   1.000  P
  O1       1.0000 0.61440  0.52820  0.49380  Biso   1.000  O
  O2       1.0000 0.38560  0.47180  0.50620  Biso   1.000  O
  O3       1.0000 0.44060  0.56310  0.53820  Biso   1.000  O
  O4       1.0000 0.55940  0.43690  0.46180  Biso   1.000  O
  Mo3      1.0000 0.25554  0.53980  0.56988  Biso   1.000  Mo
  Mo4      1.0000 0.74446  0.46020  0.43012  Biso   1.000  Mo
  O5       1.0000 0.46360  0.50880  0.44100  Biso   1.000  O
  O6       1.0000 0.53640  0.49120  0.55900  Biso   1.000  O
  O7       1.0000 0.49510  0.39080  0.53190  Biso   1.000  O
  O8       1.0000 0.50490  0.60920  0.46810  Biso   1.000  O
  Mo5      1.0000 0.27864  0.48505  0.42599  Biso   1.000  Mo
  Mo6      1.0000 0.72136  0.51495  0.57401  Biso   1.000  Mo
  O9       1.0000 0.44990  0.74320  0.30680  Biso   1.000  O
  O10      1.0000 0.55010  0.25680  0.69320  Biso   1.000  O
  Mo7      1.0000 0.46977  0.66422  0.36694  Biso   1.000  Mo
  Mo8      1.0000 0.53023  0.33578  0.63306  Biso   1.000  Mo
  O11      1.0000 0.53030  0.37170  0.30310  Biso   1.000  O
  O12      1.0000 0.46970  0.62830  0.69690  Biso   1.000  O
  Mo9      1.0000 0.41019  0.74534  0.50299  Biso   1.000  Mo
  Mo10     1.0000 0.58981  0.25466  0.49701  Biso   1.000  Mo
  O13      1.0000 0.17870  0.47330  0.39030  Biso   1.000  O
  O14      1.0000 0.82130  0.52670  0.60970  Biso   1.000  O
  Mo11     1.0000 0.51994  0.40949  0.36682  Biso   1.000  Mo
  Mo12     1.0000 0.48006  0.59051  0.63318  Biso   1.000  Mo
  O15      1.0000 0.37550  0.85980  0.50650  Biso   1.000  O
  O16      1.0000 0.62450  0.14020  0.49350  Biso   1.000  O
  O17      1.0000 0.74620  0.79420  0.42810  Biso   1.000  O
  O18      1.0000 0.25380  0.20580  0.57190  Biso   1.000  O
  O19      1.0000 0.14120  0.56300  0.59920  Biso   1.000  O
  O20      1.0000 0.85880  0.43700  0.40080  Biso   1.000  O
  O21      1.0000 0.59000  0.70290  0.38490  Biso   1.000  O
  O22      1.0000 0.41000  0.29710  0.61510  Biso   1.000  O
  O23      1.0000 0.73790  0.59330  0.41910  Biso   1.000  O
  O24      1.0000 0.26210  0.40670  0.58090  Biso   1.000  O
  O25      1.0000 0.29680  0.67530  0.53060  Biso   1.000  O
  O26      1.0000 0.70320  0.32470  0.46940  Biso   1.000  O
  O27      1.0000 0.51690  0.55490  0.33910  Biso   1.000  O
  O28      1.0000 0.48310  0.44510  0.66090  Biso   1.000  O
  O29      1.0000 0.38420  0.41510  0.38200  Biso   1.000  O
  O30      1.0000 0.61580  0.58490  0.61800  Biso   1.000  O
  O31      1.0000 0.33660  0.59830  0.38460  Biso   1.000  O
  O32      1.0000 0.66340  0.40170  0.61540  Biso   1.000  O
  O33      1.0000 0.40640  0.74020  0.42630  Biso   1.000  O
  O34      1.0000 0.59360  0.25980  0.57370  Biso   1.000  O
  O35      1.0000 0.22570  0.53660  0.48810  Biso   1.000  O
  O36      1.0000 0.77430  0.46340  0.51190  Biso   1.000  O
  O37      1.0000 0.66550  0.44460  0.37250  Biso   1.000  O
  O38      1.0000 0.33450  0.55540  0.62750  Biso   1.000  O
  O39      1.0000 0.56010  0.76070  0.48580  Biso   1.000  O
  O40      1.0000 0.43990  0.23930  0.51420  Biso   1.000  O
  O41      1.0000 0.71920  0.64560  0.52150  Biso   1.000  O
  O42      1.0000 0.28080  0.35440  0.47850  Biso   1.000  O
  O43      1.0000 0.54280  0.29820  0.41840  Biso   1.000  O
  O44      1.0000 0.45720  0.70180  0.58160  Biso   1.000  O
  Cu1      1.0000 0.79387  0.44117  0.27340  Biso   1.000  Cu
  Cu2      1.0000 0.20613  0.55883  0.72660  Biso   1.000  Cu
  N1       1.0000 0.89350  0.54110  0.26930  Biso   1.000  N
  N2       1.0000 0.10650  0.45890  0.73070  Biso   1.000  N
  C1       1.0000 0.87630  0.63630  0.27780  Biso   1.000  C
  C2       1.0000 0.12370  0.36370  0.72220  Biso   1.000  C
  Cu3      1.0000 0.54431  0.05936  0.22732  Biso   1.000  Cu
  Cu4      1.0000 0.45569  0.94064  0.77268  Biso   1.000  Cu
  N3       1.0000 0.05390  0.66950  0.26030  Biso   1.000  N
  N4       1.0000 0.94610  0.33050  0.73970  Biso   1.000  N
  C3       1.0000 0.98720  0.51250  0.25460  Biso   1.000  C
  C4       1.0000 0.01280  0.48750  0.74540  Biso   1.000  C
  N5       1.0000 0.72990  0.32320  0.26080  Biso   1.000  N
  N6       1.0000 0.27010  0.67680  0.73920  Biso   1.000  N
  C5       1.0000 0.06940  0.57930  0.24720  Biso   1.000  C
  C6       1.0000 0.93060  0.42070  0.75280  Biso   1.000  C
  Cu5      1.0000 0.16618  0.75489  0.24778  Biso   1.000  Cu
  Cu6      1.0000 0.83382  0.24511  0.75222  Biso   1.000  Cu
  C7       1.0000 0.95750  0.70050  0.27570  Biso   1.000  C
  C8       1.0000 0.04250  0.29950  0.72430  Biso   1.000  C
  N7       1.0000 0.62810  0.16250  0.24120  Biso   1.000  N
  N8       1.0000 0.37190  0.83750  0.75880  Biso   1.000  N
  C9       1.0000 0.94010  0.79760  0.28440  Biso   1.000  C
  C10      1.0000 0.05990  0.20240  0.71560  Biso   1.000  C
  H1       1.0000 0.99430  0.83850  0.28560  Biso   1.000  H
  H2       1.0000 0.00570  0.16150  0.71440  Biso   1.000  H
  N9       1.0000 0.43930  0.96600  0.22970  Biso   1.000  N
  N10      1.0000 0.56070  0.03400  0.77030  Biso   1.000  N
  C11      1.0000 0.84400  0.83160  0.29110  Biso   1.000  C
  C12      1.0000 0.15600  0.16840  0.70890  Biso   1.000  C
  H3       1.0000 0.83240  0.89670  0.29570  Biso   1.000  H
  H4       1.0000 0.16760  0.10330  0.70430  Biso   1.000  H
  N11      1.0000 0.27970  0.83830  0.23840  Biso   1.000  N
  N12      1.0000 0.72030  0.16170  0.76160  Biso   1.000  N
  C13      1.0000 0.76200  0.77010  0.29110  Biso   1.000  C
  C14      1.0000 0.23800  0.22990  0.70890  Biso   1.000  C
  H5       1.0000 0.69650  0.79550  0.29470  Biso   1.000  H
  H6       1.0000 0.30350  0.20450  0.70530  Biso   1.000  H
  C15      1.0000 0.77660  0.67330  0.28610  Biso   1.000  C
  C16      1.0000 0.22340  0.32670  0.71390  Biso   1.000  C
  H7       1.0000 0.72150  0.63210  0.28810  Biso   1.000  H
  H8       1.0000 0.27850  0.36790  0.71190  Biso   1.000  H
  C17      1.0000 0.00490  0.40770  0.24680  Biso   1.000  C
  C18      1.0000 0.99510  0.59230  0.75320  Biso   1.000  C
  C19      1.0000 0.05640  0.34380  0.28730  Biso   1.000  C
  C20      1.0000 0.94360  0.65620  0.71270  Biso   1.000  C
  H9       1.0000 0.08310  0.36660  0.31780  Biso   1.000  H
  H10      1.0000 0.91690  0.63340  0.68220  Biso   1.000  H
  C21      1.0000 0.06760  0.24540  0.28190  Biso   1.000  C
  C22      1.0000 0.93240  0.75460  0.71810  Biso   1.000  C
  H11      1.0000 0.10210  0.20170  0.30880  Biso   1.000  H
  H12      1.0000 0.89790  0.79830  0.69120  Biso   1.000  H
  C23      1.0000 0.02790  0.21300  0.23710  Biso   1.000  C
  C24      1.0000 0.97210  0.78700  0.76290  Biso   1.000  C
  H13      1.0000 0.03510  0.14670  0.23420  Biso   1.000  H
  H14      1.0000 0.96490  0.85330  0.76580  Biso   1.000  H
  C25      1.0000 0.97850  0.27370  0.19710  Biso   1.000  C
  C26      1.0000 0.02150  0.72630  0.80290  Biso   1.000  C
  H15      1.0000 0.95260  0.24930  0.16690  Biso   1.000  H
  H16      1.0000 0.04740  0.75070  0.83310  Biso   1.000  H
  C27      1.0000 0.96590  0.37390  0.20070  Biso   1.000  C
  C28      1.0000 0.03410  0.62610  0.79930  Biso   1.000  C
  H17      1.0000 0.93230  0.41670  0.17300  Biso   1.000  H
  H18      1.0000 0.06770  0.58330  0.82700  Biso   1.000  H
  C29      1.0000 0.17020  0.55760  0.21950  Biso   1.000  C
  C30      1.0000 0.82980  0.44240  0.78050  Biso   1.000  C
  C31      1.0000 0.25790  0.55740  0.24810  Biso   1.000  C
  C32      1.0000 0.74210  0.44260  0.75190  Biso   1.000  C
  H19      1.0000 0.25340  0.56550  0.28690  Biso   1.000  H
  H20      1.0000 0.74660  0.43450  0.71310  Biso   1.000  H
  C33      1.0000 0.35090  0.54520  0.21930  Biso   1.000  C
  C34      1.0000 0.64910  0.45480  0.78070  Biso   1.000  C
  H21      1.0000 0.40890  0.54460  0.23900  Biso   1.000  H
  H22      1.0000 0.59110  0.45540  0.76100  Biso   1.000  H
  C35      1.0000 0.35940  0.53390  0.16210  Biso   1.000  C
  C36      1.0000 0.64060  0.46610  0.83790  Biso   1.000  C
  H23      1.0000 0.42290  0.52530  0.14300  Biso   1.000  H
  H24      1.0000 0.57710  0.47470  0.85700  Biso   1.000  H
  C37      1.0000 0.27310  0.53540  0.13230  Biso   1.000  C
  C38      1.0000 0.72690  0.46460  0.86770  Biso   1.000  C
  H25      1.0000 0.27860  0.52930  0.09310  Biso   1.000  H
  H26      1.0000 0.72140  0.47070  0.90690  Biso   1.000  H
  C39      1.0000 0.17910  0.54600  0.16140  Biso   1.000  C
  C40      1.0000 0.82090  0.45400  0.83860  Biso   1.000  C
  H27      1.0000 0.12120  0.54520  0.14190  Biso   1.000  H
  H28      1.0000 0.87880  0.45480  0.85810  Biso   1.000  H
  C41      1.0000 0.73600  0.23560  0.29840  Biso   1.000  C
  C42      1.0000 0.26400  0.76440  0.70160  Biso   1.000  C
  C43      1.0000 0.67590  0.33120  0.21470  Biso   1.000  C
  C44      1.0000 0.32410  0.66880  0.78530  Biso   1.000  C
  C45      1.0000 0.62280  0.24770  0.20550  Biso   1.000  C
  C46      1.0000 0.37720  0.75230  0.79450  Biso   1.000  C
  C47      1.0000 0.68600  0.15230  0.28800  Biso   1.000  C
  C48      1.0000 0.31400  0.84770  0.71200  Biso   1.000  C
  C49      1.0000 0.69100  0.06220  0.32810  Biso   1.000  C
  C50      1.0000 0.30900  0.93780  0.67190  Biso   1.000  C
  H29      1.0000 0.65570  0.00750  0.32280  Biso   1.000  H
  H30      1.0000 0.34430  0.99250  0.67720  Biso   1.000  H
  C51      1.0000 0.74660  0.05600  0.37350  Biso   1.000  C
  C52      1.0000 0.25340  0.94400  0.62650  Biso   1.000  C
  H31      1.0000 0.75180  0.99570  0.39870  Biso   1.000  H
  H32      1.0000 0.24820  0.00430  0.60130  Biso   1.000  H
  C53      1.0000 0.79670  0.13690  0.38400  Biso   1.000  C
  C54      1.0000 0.20330  0.86310  0.61600  Biso   1.000  C
  H33      1.0000 0.83260  0.13070  0.41690  Biso   1.000  H
  H34      1.0000 0.16740  0.86930  0.58310  Biso   1.000  H
  C55      1.0000 0.79420  0.22420  0.34740  Biso   1.000  C
  C56      1.0000 0.20580  0.77580  0.65260  Biso   1.000  C
  H35      1.0000 0.83050  0.27720  0.35420  Biso   1.000  H
  H36      1.0000 0.16950  0.72280  0.64580  Biso   1.000  H
  C57      1.0000 0.67550  0.42760  0.17500  Biso   1.000  C
  C58      1.0000 0.32450  0.57240  0.82500  Biso   1.000  C
  C59      1.0000 0.64850  0.51440  0.19670  Biso   1.000  C
  C60      1.0000 0.35150  0.48560  0.80330  Biso   1.000  C
  H37      1.0000 0.62470  0.51060  0.23580  Biso   1.000  H
  H38      1.0000 0.37530  0.48940  0.76420  Biso   1.000  H
  C61      1.0000 0.65710  0.60470  0.16030  Biso   1.000  C
  C62      1.0000 0.34290  0.39530  0.83970  Biso   1.000  C
  H39      1.0000 0.63940  0.66190  0.17500  Biso   1.000  H
  H40      1.0000 0.36060  0.33810  0.82500  Biso   1.000  H
  C63      1.0000 0.69250  0.61150  0.10130  Biso   1.000  C
  C64      1.0000 0.30750  0.38850  0.89870  Biso   1.000  C
  H41      1.0000 0.69930  0.67310  0.07710  Biso   1.000  H
  H42      1.0000 0.30070  0.32690  0.92290  Biso   1.000  H
  C65      1.0000 0.71740  0.52610  0.07880  Biso   1.000  C
  C66      1.0000 0.28260  0.47390  0.92120  Biso   1.000  C
  H43      1.0000 0.74030  0.52990  0.03960  Biso   1.000  H
  H44      1.0000 0.25970  0.47010  0.96040  Biso   1.000  H
  C67      1.0000 0.70750  0.43440  0.11640  Biso   1.000  C
  C68      1.0000 0.29250  0.56560  0.88360  Biso   1.000  C
  H45      1.0000 0.72270  0.37690  0.10150  Biso   1.000  H
  H46      1.0000 0.27730  0.62310  0.89850  Biso   1.000  H
  C69      1.0000 0.55400  0.25090  0.15770  Biso   1.000  C
  C70      1.0000 0.44600  0.74910  0.84230  Biso   1.000  C
  C71      1.0000 0.46570  0.30490  0.15810  Biso   1.000  C
  C72      1.0000 0.53430  0.69510  0.84190  Biso   1.000  C
  H47      1.0000 0.45290  0.34680  0.18510  Biso   1.000  H
  H48      1.0000 0.54710  0.65320  0.81490  Biso   1.000  H
  C73      1.0000 0.39620  0.29780  0.11920  Biso   1.000  C
  C74      1.0000 0.60380  0.70220  0.88080  Biso   1.000  C
  H49      1.0000 0.33550  0.33310  0.12060  Biso   1.000  H
  H50      1.0000 0.66450  0.66690  0.87940  Biso   1.000  H
  C75      1.0000 0.41610  0.23870  0.07840  Biso   1.000  C
  C76      1.0000 0.58390  0.76130  0.92160  Biso   1.000  C
  H51      1.0000 0.36920  0.23470  0.05160  Biso   1.000  H
  H52      1.0000 0.63080  0.76530  0.94840  Biso   1.000  H
  C77      1.0000 0.50490  0.18480  0.07640  Biso   1.000  C
  C78      1.0000 0.49510  0.81520  0.92360  Biso   1.000  C
  H53      1.0000 0.51890  0.14560  0.04810  Biso   1.000  H
  H54      1.0000 0.48110  0.85440  0.95190  Biso   1.000  H
  C79      1.0000 0.57290  0.18990  0.11730  Biso   1.000  C
  C80      1.0000 0.42710  0.81010  0.88270  Biso   1.000  C
  H55      1.0000 0.63180  0.15170  0.11740  Biso   1.000  H
  H56      1.0000 0.36820  0.84830  0.88260  Biso   1.000  H
  C81      1.0000 0.43660  0.90490  0.18890  Biso   1.000  C
  C82      1.0000 0.56340  0.09510  0.81110  Biso   1.000  C
  C83      1.0000 0.36510  0.96360  0.27220  Biso   1.000  C
  C84      1.0000 0.63490  0.03640  0.72780  Biso   1.000  C
  C85      1.0000 0.28490  0.89550  0.27880  Biso   1.000  C
  C86      1.0000 0.71510  0.10450  0.72120  Biso   1.000  C
  C87      1.0000 0.35290  0.84190  0.19320  Biso   1.000  C
  C88      1.0000 0.64710  0.15810  0.80680  Biso   1.000  C
  C89      1.0000 0.34590  0.78540  0.15010  Biso   1.000  C
  C90      1.0000 0.65410  0.21460  0.84990  Biso   1.000  C
  H57      1.0000 0.28970  0.74590  0.15140  Biso   1.000  H
  H58      1.0000 0.71030  0.25410  0.84860  Biso   1.000  H
  C91      1.0000 0.42140  0.78760  0.10580  Biso   1.000  C
  C92      1.0000 0.57860  0.21240  0.89420  Biso   1.000  C
  H59      1.0000 0.41610  0.74970  0.07700  Biso   1.000  H
  H60      1.0000 0.58390  0.25030  0.92300  Biso   1.000  H
  C93      1.0000 0.50600  0.84590  0.10350  Biso   1.000  C
  C94      1.0000 0.49400  0.15410  0.89650  Biso   1.000  C
  H61      1.0000 0.55790  0.84520  0.07400  Biso   1.000  H
  H62      1.0000 0.44210  0.15480  0.92600  Biso   1.000  H
  C95      1.0000 0.51350  0.90430  0.14420  Biso   1.000  C
  C96      1.0000 0.48650  0.09570  0.85580  Biso   1.000  C
  H63      1.0000 0.57000  0.94370  0.14200  Biso   1.000  H
  H64      1.0000 0.43000  0.05630  0.85800  Biso   1.000  H
  C97      1.0000 0.36780  0.03530  0.31260  Biso   1.000  C
  C98      1.0000 0.63220  0.96470  0.68740  Biso   1.000  C
  C99      1.0000 0.38630  0.00440  0.36950  Biso   1.000  C
  C100     1.0000 0.61370  0.99560  0.63050  Biso   1.000  C
  H65      1.0000 0.40020  0.93820  0.38360  Biso   1.000  H
  H66      1.0000 0.59980  0.06180  0.61640  Biso   1.000  H
  C101     1.0000 0.38410  0.07450  0.40650  Biso   1.000  C
  C102     1.0000 0.61590  0.92550  0.59350  Biso   1.000  C
  H67      1.0000 0.39640  0.05450  0.44550  Biso   1.000  H
  H68      1.0000 0.60360  0.94550  0.55450  Biso   1.000  H
  C103     1.0000 0.36420  0.17120  0.38580  Biso   1.000  C
  C104     1.0000 0.63580  0.82880  0.61420  Biso   1.000  C
  H69      1.0000 0.36200  0.21680  0.41080  Biso   1.000  H
  H70      1.0000 0.63800  0.78320  0.58920  Biso   1.000  H
  C105     1.0000 0.34790  0.20130  0.32970  Biso   1.000  C
  C106     1.0000 0.65210  0.79870  0.67030  Biso   1.000  C
  H71      1.0000 0.33450  0.26770  0.31600  Biso   1.000  H
  H72      1.0000 0.66550  0.73230  0.68400  Biso   1.000  H
  C107     1.0000 0.35060  0.13390  0.29140  Biso   1.000  C
  C108     1.0000 0.64940  0.86610  0.70860  Biso   1.000  C
  H73      1.0000 0.34100  0.15530  0.25210  Biso   1.000  H
  H74      1.0000 0.65900  0.84470  0.74790  Biso   1.000  H
  C109     1.0000 0.20550  0.88410  0.32730  Biso   1.000  C
  C110     1.0000 0.79450  0.11590  0.67270  Biso   1.000  C
  C111     1.0000 0.14390  0.96330  0.33870  Biso   1.000  C
  C112     1.0000 0.85610  0.03670  0.66130  Biso   1.000  C
  H75      1.0000 0.15530  0.02610  0.31670  Biso   1.000  H
  H76      1.0000 0.84470  0.97390  0.68330  Biso   1.000  H
  C113     1.0000 0.06540  0.94830  0.38300  Biso   1.000  C
  C114     1.0000 0.93460  0.05170  0.61700  Biso   1.000  C
  H77      1.0000 0.02300  0.00080  0.38940  Biso   1.000  H
  H78      1.0000 0.97700  0.99920  0.61060  Biso   1.000  H
  C115     1.0000 0.04970  0.85770  0.41710  Biso   1.000  C
  C116     1.0000 0.95030  0.14230  0.58290  Biso   1.000  C
  H79      1.0000 0.99750  0.84840  0.44700  Biso   1.000  H
  H80      1.0000 0.00250  0.15160  0.55300  Biso   1.000  H
  C117     1.0000 0.11140  0.78080  0.40690  Biso   1.000  C
  C118     1.0000 0.88860  0.21920  0.59310  Biso   1.000  C
  H81      1.0000 0.10140  0.71890  0.43030  Biso   1.000  H
  H82      1.0000 0.89860  0.28110  0.56970  Biso   1.000  H
  C119     1.0000 0.18820  0.79320  0.36250  Biso   1.000  C
  C120     1.0000 0.81180  0.20680  0.63750  Biso   1.000  C
  H83      1.0000 0.22910  0.73960  0.35620  Biso   1.000  H
  H84      1.0000 0.77090  0.26040  0.64380  Biso   1.000  H
  P2       1.0000 0.00000  0.00000  0.00000  Biso   1.000  P
  Mo13     1.0000 0.15674  0.78830  0.99128  Biso   1.000  Mo
  Mo14     1.0000 0.84326  0.21170  0.00872  Biso   1.000  Mo
  Mo15     1.0000 0.95811  0.78045  0.10497  Biso   1.000  Mo
  Mo16     1.0000 0.04189  0.21955  0.89503  Biso   1.000  Mo
  Mo17     1.0000 0.26323  0.01257  0.01335  Biso   1.000  Mo
  Mo18     1.0000 0.73677  0.98743  0.98665  Biso   1.000  Mo
  Mo19     1.0000 0.89994  0.78717  0.95861  Biso   1.000  Mo
  Mo20     1.0000 0.10006  0.21283  0.04139  Biso   1.000  Mo
  Mo21     1.0000 0.08841  0.98257  0.13989  Biso   1.000  Mo
  Mo22     1.0000 0.91159  0.01743  0.86011  Biso   1.000  Mo
  Mo23     1.0000 0.82369  0.00150  0.12486  Biso   1.000  Mo
  Mo24     1.0000 0.17631  0.99850  0.87514  Biso   1.000  Mo
  O45      1.0000 0.00370  0.88550  0.00750  Biso   1.000  O
  O46      1.0000 0.99630  0.11450  0.99250  Biso   1.000  O
  O47      1.0000 0.89730  0.03440  0.01870  Biso   1.000  O
  O48      1.0000 0.10270  0.96560  0.98130  Biso   1.000  O
  O49      1.0000 0.08060  0.03560  0.03230  Biso   1.000  O
  O50      1.0000 0.91940  0.96440  0.96770  Biso   1.000  O
  O51      1.0000 0.02340  0.04120  0.93260  Biso   1.000  O
  O52      1.0000 0.97660  0.95880  0.06740  Biso   1.000  O
  O53      1.0000 0.94560  0.67640  0.15270  Biso   1.000  O
  O54      1.0000 0.05440  0.32360  0.84730  Biso   1.000  O
  O55      1.0000 0.22950  0.69120  0.98420  Biso   1.000  O
  O56      1.0000 0.77050  0.30880  0.01580  Biso   1.000  O
  O57      1.0000 0.38510  0.01300  0.02150  Biso   1.000  O
  O58      1.0000 0.61490  0.98700  0.97850  Biso   1.000  O
  O59      1.0000 0.84750  0.68980  0.94180  Biso   1.000  O
  O60      1.0000 0.15250  0.31020  0.05820  Biso   1.000  O
  O61      1.0000 0.73740  0.99620  0.18220  Biso   1.000  O
  O62      1.0000 0.26260  0.00380  0.81780  Biso   1.000  O
  O63      1.0000 0.12480  0.98180  0.20570  Biso   1.000  O
  O64      1.0000 0.87520  0.01820  0.79430  Biso   1.000  O
  O65      1.0000 0.20740  0.97410  0.09560  Biso   1.000  O
  O66      1.0000 0.79260  0.02590  0.90440  Biso   1.000  O
  O67      1.0000 0.09170  0.12640  0.11040  Biso   1.000  O
  O68      1.0000 0.90830  0.87360  0.88960  Biso   1.000  O
  O69      1.0000 0.24320  0.87110  0.01450  Biso   1.000  O
  O70      1.0000 0.75680  0.12890  0.98550  Biso   1.000  O
  O71      1.0000 0.77520  0.85990  0.98120  Biso   1.000  O
  O72      1.0000 0.22480  0.14010  0.01880  Biso   1.000  O
  O73      1.0000 0.05290  0.85400  0.14310  Biso   1.000  O
  O74      1.0000 0.94710  0.14600  0.85690  Biso   1.000  O
  O75      1.0000 0.94260  0.01230  0.15610  Biso   1.000  O
  O76      1.0000 0.05740  0.98770  0.84390  Biso   1.000  O
  O77      1.0000 0.89660  0.75120  0.04400  Biso   1.000  O
  O78      1.0000 0.10340  0.24880  0.95600  Biso   1.000  O
  O79      1.0000 0.03450  0.75720  0.95610  Biso   1.000  O
  O80      1.0000 0.96550  0.24280  0.04390  Biso   1.000  O
  O81      1.0000 0.85710  0.85840  0.12950  Biso   1.000  O
  O82      1.0000 0.14290  0.14160  0.87050  Biso   1.000  O
  O83      1.0000 0.08830  0.75170  0.06220  Biso   1.000  O
  O84      1.0000 0.91170  0.24830  0.93780  Biso   1.000  O
  O85      1.0000 0.73660  0.97040  0.06680  Biso   1.000  O
  O86      1.0000 0.26340  0.02960  0.93320  Biso   1.000  O
  O87      1.0000 0.81810  0.13020  0.08930  Biso   1.000  O
  O88      1.0000 0.18190  0.86980  0.91070  Biso   1.000  O
