data_image0
_cell_length_a       8.2636
_cell_length_b       11.937
_cell_length_c       12.5848
_cell_angle_alpha    114.788
_cell_angle_beta     95.567
_cell_angle_gamma    100.159

_symmetry_space_group_name_H-M    "P 1"
_symmetry_int_tables_number       1

loop_
  _symmetry_equiv_pos_as_xyz
  'x, y, z'

loop_
  _atom_site_label
  _atom_site_occupancy
  _atom_site_fract_x
  _atom_site_fract_y
  _atom_site_fract_z
  _atom_site_thermal_displace_type
  _atom_site_B_iso_or_equiv
  _atom_site_type_symbol
  Mo1      1.0000 0.17657  0.36910  0.47736  Biso   1.000  Mo
  Mo2      1.0000 0.82343  0.63090  0.52264  Biso   1.000  Mo
  Mo3      1.0000 0.56814  0.36495  0.48611  Biso   1.000  Mo
  Mo4      1.0000 0.43186  0.63505  0.51389  Biso   1.000  Mo
  Mo5      1.0000 0.43942  0.33144  0.23087  Biso   1.000  Mo
  Mo6      1.0000 0.56058  0.66856  0.76913  Biso   1.000  Mo
  Mo7      1.0000 0.16313  0.66862  0.76060  Biso   1.000  Mo
  Mo8      1.0000 0.83687  0.33138  0.23940  Biso   1.000  Mo
  Cu1      1.0000 0.18669  0.48843  0.09641  Biso   1.000  Cu
  Cu2      1.0000 0.81331  0.51157  0.90359  Biso   1.000  Cu
  Cu3      1.0000 0.26808  0.08411  0.53769  Biso   1.000  Cu
  Cu4      1.0000 0.73192  0.91589  0.46231  Biso   1.000  Cu
  N1       1.0000 0.21000  0.36340  0.93460  Biso   1.000  N
  N2       1.0000 0.79000  0.63660  0.06540  Biso   1.000  N
  N3       1.0000 0.25800  0.19250  0.70730  Biso   1.000  N
  N4       1.0000 0.74200  0.80750  0.29270  Biso   1.000  N
  N5       1.0000 0.24800  0.91720  0.40160  Biso   1.000  N
  N6       1.0000 0.75200  0.08280  0.59840  Biso   1.000  N
  N7       1.0000 0.19390  0.66750  0.21200  Biso   1.000  N
  N8       1.0000 0.80610  0.33250  0.78800  Biso   1.000  N
  C1       1.0000 0.13640  0.23440  0.88590  Biso   1.000  C
  C2       1.0000 0.86360  0.76560  0.11410  Biso   1.000  C
  C3       1.0000 0.03360  0.18820  0.94800  Biso   1.000  C
  C4       1.0000 0.96640  0.81180  0.05200  Biso   1.000  C
  H1       1.0000 0.01760  0.24390  0.02210  Biso   1.000  H
  H2       1.0000 0.98240  0.75610  0.97790  Biso   1.000  H
  C5       1.0000 0.95680  0.06210  0.90030  Biso   1.000  C
  C6       1.0000 0.04320  0.93790  0.09970  Biso   1.000  C
  H3       1.0000 0.88710  0.03220  0.94130  Biso   1.000  H
  H4       1.0000 0.11290  0.96780  0.05870  Biso   1.000  H
  C7       1.0000 0.98310  0.97750  0.78920  Biso   1.000  C
  C8       1.0000 0.01690  0.02250  0.21080  Biso   1.000  C
  H5       1.0000 0.93050  0.89160  0.75740  Biso   1.000  H
  H6       1.0000 0.06950  0.10840  0.24260  Biso   1.000  H
  C9       1.0000 0.08450  0.01930  0.72710  Biso   1.000  C
  C10      1.0000 0.91550  0.98070  0.27290  Biso   1.000  C
  H7       1.0000 0.10210  0.96180  0.65440  Biso   1.000  H
  H8       1.0000 0.89790  0.03820  0.34560  Biso   1.000  H
  C11      1.0000 0.16240  0.14950  0.77320  Biso   1.000  C
  C12      1.0000 0.83760  0.85050  0.22680  Biso   1.000  C
  C13      1.0000 0.32880  0.31510  0.75740  Biso   1.000  C
  C14      1.0000 0.67120  0.68490  0.24260  Biso   1.000  C
  H9       1.0000 0.39640  0.34720  0.71670  Biso   1.000  H
  H10      1.0000 0.60360  0.65280  0.28330  Biso   1.000  H
  C15      1.0000 0.30590  0.39990  0.87050  Biso   1.000  C
  C16      1.0000 0.69410  0.60010  0.12950  Biso   1.000  C
  H11      1.0000 0.36060  0.48530  0.90150  Biso   1.000  H
  H12      1.0000 0.63940  0.51470  0.09850  Biso   1.000  H
  C17      1.0000 0.31920  0.89560  0.30220  Biso   1.000  C
  C18      1.0000 0.68080  0.10440  0.69780  Biso   1.000  C
  C19      1.0000 0.42110  0.99800  0.29300  Biso   1.000  C
  C20      1.0000 0.57890  0.00200  0.70700  Biso   1.000  C
  H13      1.0000 0.44270  0.07960  0.35520  Biso   1.000  H
  H14      1.0000 0.55730  0.92040  0.64480  Biso   1.000  H
  C21      1.0000 0.48780  0.97840  0.19380  Biso   1.000  C
  C22      1.0000 0.51220  0.02160  0.80620  Biso   1.000  C
  H15      1.0000 0.55540  0.04670  0.18920  Biso   1.000  H
  H16      1.0000 0.44460  0.95330  0.81080  Biso   1.000  H
  C23      1.0000 0.45590  0.85620  0.09830  Biso   1.000  C
  C24      1.0000 0.54410  0.14380  0.90170  Biso   1.000  C
  H17      1.0000 0.50120  0.84420  0.03060  Biso   1.000  H
  H18      1.0000 0.49880  0.15580  0.96940  Biso   1.000  H
  C25      1.0000 0.35820  0.75500  0.10480  Biso   1.000  C
  C26      1.0000 0.64180  0.24500  0.89520  Biso   1.000  C
  H19      1.0000 0.33650  0.67440  0.04100  Biso   1.000  H
  H20      1.0000 0.66350  0.32560  0.95900  Biso   1.000  H
  C27      1.0000 0.29030  0.77150  0.20700  Biso   1.000  C
  C28      1.0000 0.70970  0.22850  0.79300  Biso   1.000  C
  C29      1.0000 0.12750  0.69160  0.30830  Biso   1.000  C
  C30      1.0000 0.87250  0.30840  0.69170  Biso   1.000  C
  H21      1.0000 0.06030  0.62440  0.31480  Biso   1.000  H
  H22      1.0000 0.93970  0.37560  0.68520  Biso   1.000  H
  C31      1.0000 0.15480  0.81530  0.40160  Biso   1.000  C
  C32      1.0000 0.84520  0.18470  0.59840  Biso   1.000  C
  H23      1.0000 0.10420  0.82570  0.46690  Biso   1.000  H
  H24      1.0000 0.89580  0.17430  0.53310  Biso   1.000  H
  O1       1.0000 0.11740  0.47440  0.60380  Biso   1.000  O
  O2       1.0000 0.88260  0.52560  0.39620  Biso   1.000  O
  O3       1.0000 0.42190  0.46620  0.57360  Biso   1.000  O
  O4       1.0000 0.57810  0.53380  0.42640  Biso   1.000  O
  O5       1.0000 0.16980  0.23560  0.50010  Biso   1.000  O
  O6       1.0000 0.83020  0.76440  0.49990  Biso   1.000  O
  O7       1.0000 0.34390  0.31330  0.36090  Biso   1.000  O
  O8       1.0000 0.65610  0.68670  0.63910  Biso   1.000  O
  O9       1.0000 0.23870  0.53230  0.43120  Biso   1.000  O
  O10      1.0000 0.76130  0.46770  0.56880  Biso   1.000  O
  O11      1.0000 0.53810  0.24770  0.53180  Biso   1.000  O
  O12      1.0000 0.46190  0.75230  0.46820  Biso   1.000  O
  O13      1.0000 0.33850  0.43350  0.20170  Biso   1.000  O
  O14      1.0000 0.66150  0.56650  0.79830  Biso   1.000  O
  O15      1.0000 0.64330  0.37570  0.18360  Biso   1.000  O
  O16      1.0000 0.35670  0.62430  0.81640  Biso   1.000  O
  O17      1.0000 0.63220  0.29540  0.33590  Biso   1.000  O
  O18      1.0000 0.36780  0.70460  0.66410  Biso   1.000  O
  O19      1.0000 0.34840  0.18570  0.11940  Biso   1.000  O
  O20      1.0000 0.65160  0.81430  0.88060  Biso   1.000  O
  O21      1.0000 0.20450  0.82400  0.85990  Biso   1.000  O
  O22      1.0000 0.79550  0.17600  0.14010  Biso   1.000  O
  O23      1.0000 0.02520  0.59540  0.81860  Biso   1.000  O
  O24      1.0000 0.97480  0.40460  0.18140  Biso   1.000  O
  O25      1.0000 0.99180  0.31600  0.36020  Biso   1.000  O
  O26      1.0000 0.00820  0.68400  0.63980  Biso   1.000  O
