data_image0
_cell_length_a       8.7226
_cell_length_b       22.6889
_cell_length_c       29.436
_cell_angle_alpha    90
_cell_angle_beta     90.592
_cell_angle_gamma    90

_symmetry_space_group_name_H-M    "P 1"
_symmetry_int_tables_number       1

loop_
  _symmetry_equiv_pos_as_xyz
  'x, y, z'

loop_
  _atom_site_label
  _atom_site_occupancy
  _atom_site_fract_x
  _atom_site_fract_y
  _atom_site_fract_z
  _atom_site_thermal_displace_type
  _atom_site_B_iso_or_equiv
  _atom_site_type_symbol
  Mo1      1.0000 0.50899  0.39732  0.05721  Biso   1.000  Mo
  Mo2      1.0000 0.49101  0.39732  0.94279  Biso   1.000  Mo
  Mo3      1.0000 0.00899  0.89732  0.55721  Biso   1.000  Mo
  Mo4      1.0000 0.99101  0.89732  0.44279  Biso   1.000  Mo
  Mo5      1.0000 0.49101  0.60268  0.94279  Biso   1.000  Mo
  Mo6      1.0000 0.50899  0.60268  0.05721  Biso   1.000  Mo
  Mo7      1.0000 0.99101  0.10268  0.44279  Biso   1.000  Mo
  Mo8      1.0000 0.00899  0.10268  0.55721  Biso   1.000  Mo
  Mo9      1.0000 0.30167  0.50000  0.01196  Biso   1.000  Mo
  Mo10     1.0000 0.69833  0.50000  0.98804  Biso   1.000  Mo
  Mo11     1.0000 0.80167  0.00000  0.51196  Biso   1.000  Mo
  Mo12     1.0000 0.19833  0.00000  0.48804  Biso   1.000  Mo
  Mo13     1.0000 0.71408  0.50000  0.10481  Biso   1.000  Mo
  Mo14     1.0000 0.28592  0.50000  0.89519  Biso   1.000  Mo
  Mo15     1.0000 0.21408  0.00000  0.60481  Biso   1.000  Mo
  Mo16     1.0000 0.78592  0.00000  0.39519  Biso   1.000  Mo
  O1       1.0000 0.35700  0.41660  0.00844  Biso   1.000  O
  O2       1.0000 0.64300  0.41660  0.99156  Biso   1.000  O
  O3       1.0000 0.85700  0.91660  0.50844  Biso   1.000  O
  O4       1.0000 0.14300  0.91660  0.49156  Biso   1.000  O
  O5       1.0000 0.64300  0.58340  0.99156  Biso   1.000  O
  O6       1.0000 0.35700  0.58340  0.00844  Biso   1.000  O
  O7       1.0000 0.14300  0.08340  0.49156  Biso   1.000  O
  O8       1.0000 0.85700  0.08340  0.50844  Biso   1.000  O
  O9       1.0000 0.69530  0.41920  0.08714  Biso   1.000  O
  O10      1.0000 0.30470  0.41920  0.91286  Biso   1.000  O
  O11      1.0000 0.19530  0.91920  0.58714  Biso   1.000  O
  O12      1.0000 0.80470  0.91920  0.41286  Biso   1.000  O
  O13      1.0000 0.30470  0.58080  0.91286  Biso   1.000  O
  O14      1.0000 0.69530  0.58080  0.08714  Biso   1.000  O
  O15      1.0000 0.80470  0.08080  0.41286  Biso   1.000  O
  O16      1.0000 0.19530  0.08080  0.58714  Biso   1.000  O
  O17      1.0000 0.51710  0.50000  0.04670  Biso   1.000  O
  O18      1.0000 0.48290  0.50000  0.95330  Biso   1.000  O
  O19      1.0000 0.01710  0.00000  0.54670  Biso   1.000  O
  O20      1.0000 0.98290  0.00000  0.45330  Biso   1.000  O
  O21      1.0000 0.17740  0.50000  0.96500  Biso   1.000  O
  O22      1.0000 0.82260  0.50000  0.03500  Biso   1.000  O
  O23      1.0000 0.67740  0.00000  0.46500  Biso   1.000  O
  O24      1.0000 0.32260  0.00000  0.53500  Biso   1.000  O
  O25      1.0000 0.54050  0.32430  0.04890  Biso   1.000  O
  O26      1.0000 0.45950  0.32430  0.95110  Biso   1.000  O
  O27      1.0000 0.04050  0.82430  0.54890  Biso   1.000  O
  O28      1.0000 0.95950  0.82430  0.45110  Biso   1.000  O
  O29      1.0000 0.45950  0.67570  0.95110  Biso   1.000  O
  O30      1.0000 0.54050  0.67570  0.04890  Biso   1.000  O
  O31      1.0000 0.95950  0.17570  0.45110  Biso   1.000  O
  O32      1.0000 0.04050  0.17570  0.54890  Biso   1.000  O
  O33      1.0000 0.38510  0.40070  0.10140  Biso   1.000  O
  O34      1.0000 0.61490  0.40070  0.89860  Biso   1.000  O
  O35      1.0000 0.88510  0.90070  0.60140  Biso   1.000  O
  O36      1.0000 0.11490  0.90070  0.39860  Biso   1.000  O
  O37      1.0000 0.61490  0.59930  0.89860  Biso   1.000  O
  O38      1.0000 0.38510  0.59930  0.10140  Biso   1.000  O
  O39      1.0000 0.11490  0.09930  0.39860  Biso   1.000  O
  O40      1.0000 0.88510  0.09930  0.60140  Biso   1.000  O
  O41      1.0000 0.19110  0.50000  0.05820  Biso   1.000  O
  O42      1.0000 0.80890  0.50000  0.94180  Biso   1.000  O
  O43      1.0000 0.69110  0.00000  0.55820  Biso   1.000  O
  O44      1.0000 0.30890  0.00000  0.44180  Biso   1.000  O
  O45      1.0000 0.58770  0.50000  0.14670  Biso   1.000  O
  O46      1.0000 0.41230  0.50000  0.85330  Biso   1.000  O
  O47      1.0000 0.08770  0.00000  0.64670  Biso   1.000  O
  O48      1.0000 0.91230  0.00000  0.35330  Biso   1.000  O
  O49      1.0000 0.88910  0.50000  0.13160  Biso   1.000  O
  O50      1.0000 0.11090  0.50000  0.86840  Biso   1.000  O
  O51      1.0000 0.38910  0.00000  0.63160  Biso   1.000  O
  O52      1.0000 0.61090  0.00000  0.36840  Biso   1.000  O
  Mo17     1.0000 0.96632  0.10330  0.05674  Biso   1.000  Mo
  Mo18     1.0000 0.03368  0.10330  0.94326  Biso   1.000  Mo
  Mo19     1.0000 0.46632  0.60330  0.55674  Biso   1.000  Mo
  Mo20     1.0000 0.53368  0.60330  0.44326  Biso   1.000  Mo
  Mo21     1.0000 0.03368  0.89670  0.94326  Biso   1.000  Mo
  Mo22     1.0000 0.96632  0.89670  0.05674  Biso   1.000  Mo
  Mo23     1.0000 0.53368  0.39670  0.44326  Biso   1.000  Mo
  Mo24     1.0000 0.46632  0.39670  0.55674  Biso   1.000  Mo
  Mo25     1.0000 0.79820  0.00000  0.99953  Biso   1.000  Mo
  Mo26     1.0000 0.20180  0.00000  0.00047  Biso   1.000  Mo
  Mo27     1.0000 0.29820  0.50000  0.49953  Biso   1.000  Mo
  Mo28     1.0000 0.70180  0.50000  0.50047  Biso   1.000  Mo
  Mo29     1.0000 0.13512  0.00000  0.11429  Biso   1.000  Mo
  Mo30     1.0000 0.86488  0.00000  0.88571  Biso   1.000  Mo
  Mo31     1.0000 0.63512  0.50000  0.61429  Biso   1.000  Mo
  Mo32     1.0000 0.36488  0.50000  0.38571  Biso   1.000  Mo
  O53      1.0000 0.98460  0.00000  0.04660  Biso   1.000  O
  O54      1.0000 0.01540  0.00000  0.95340  Biso   1.000  O
  O55      1.0000 0.48460  0.50000  0.54660  Biso   1.000  O
  O56      1.0000 0.51540  0.50000  0.45340  Biso   1.000  O
  O57      1.0000 0.85300  0.08360  0.99920  Biso   1.000  O
  O58      1.0000 0.14700  0.08360  0.00080  Biso   1.000  O
  O59      1.0000 0.35300  0.58360  0.49920  Biso   1.000  O
  O60      1.0000 0.64700  0.58360  0.50080  Biso   1.000  O
  O61      1.0000 0.14700  0.91640  0.00080  Biso   1.000  O
  O62      1.0000 0.85300  0.91640  0.99920  Biso   1.000  O
  O63      1.0000 0.64700  0.41640  0.50080  Biso   1.000  O
  O64      1.0000 0.35300  0.41640  0.49920  Biso   1.000  O
  O65      1.0000 0.13310  0.08180  0.09620  Biso   1.000  O
  O66      1.0000 0.86690  0.08180  0.90380  Biso   1.000  O
  O67      1.0000 0.63310  0.58180  0.59620  Biso   1.000  O
  O68      1.0000 0.36690  0.58180  0.40380  Biso   1.000  O
  O69      1.0000 0.86690  0.91820  0.90380  Biso   1.000  O
  O70      1.0000 0.13310  0.91820  0.09620  Biso   1.000  O
  O71      1.0000 0.36690  0.41820  0.40380  Biso   1.000  O
  O72      1.0000 0.63310  0.41820  0.59620  Biso   1.000  O
  O73      1.0000 0.99470  0.17650  0.05090  Biso   1.000  O
  O74      1.0000 0.00530  0.17650  0.94910  Biso   1.000  O
  O75      1.0000 0.49470  0.67650  0.55090  Biso   1.000  O
  O76      1.0000 0.50530  0.67650  0.44910  Biso   1.000  O
  O77      1.0000 0.00530  0.82350  0.94910  Biso   1.000  O
  O78      1.0000 0.99470  0.82350  0.05090  Biso   1.000  O
  O79      1.0000 0.50530  0.32350  0.44910  Biso   1.000  O
  O80      1.0000 0.49470  0.32350  0.55090  Biso   1.000  O
  O81      1.0000 0.81970  0.09830  0.09290  Biso   1.000  O
  O82      1.0000 0.18030  0.09830  0.90710  Biso   1.000  O
  O83      1.0000 0.31970  0.59830  0.59290  Biso   1.000  O
  O84      1.0000 0.68030  0.59830  0.40710  Biso   1.000  O
  O85      1.0000 0.18030  0.90170  0.90710  Biso   1.000  O
  O86      1.0000 0.81970  0.90170  0.09290  Biso   1.000  O
  O87      1.0000 0.68030  0.40170  0.40710  Biso   1.000  O
  O88      1.0000 0.31970  0.40170  0.59290  Biso   1.000  O
  O89      1.0000 0.70420  0.00000  0.94550  Biso   1.000  O
  O90      1.0000 0.29580  0.00000  0.05450  Biso   1.000  O
  O91      1.0000 0.20420  0.50000  0.44550  Biso   1.000  O
  O92      1.0000 0.79580  0.50000  0.55450  Biso   1.000  O
  O93      1.0000 0.66120  0.00000  0.03670  Biso   1.000  O
  O94      1.0000 0.33880  0.00000  0.96330  Biso   1.000  O
  O95      1.0000 0.16120  0.50000  0.53670  Biso   1.000  O
  O96      1.0000 0.83880  0.50000  0.46330  Biso   1.000  O
  O97      1.0000 0.28880  0.00000  0.14990  Biso   1.000  O
  O98      1.0000 0.71120  0.00000  0.85010  Biso   1.000  O
  O99      1.0000 0.78880  0.50000  0.64990  Biso   1.000  O
  O100     1.0000 0.21120  0.50000  0.35010  Biso   1.000  O
  O101     1.0000 0.98280  0.00000  0.14990  Biso   1.000  O
  O102     1.0000 0.01720  0.00000  0.85010  Biso   1.000  O
  O103     1.0000 0.48280  0.50000  0.64990  Biso   1.000  O
  O104     1.0000 0.51720  0.50000  0.35010  Biso   1.000  O
  Mo33     1.0000 0.99980  0.07701  0.09355  Biso   1.000  Mo
  Mo34     1.0000 0.00020  0.07701  0.90645  Biso   1.000  Mo
  Mo35     1.0000 0.49980  0.57701  0.59355  Biso   1.000  Mo
  Mo36     1.0000 0.50020  0.57701  0.40645  Biso   1.000  Mo
  Mo37     1.0000 0.00020  0.92299  0.90645  Biso   1.000  Mo
  Mo38     1.0000 0.99980  0.92299  0.09355  Biso   1.000  Mo
  Mo39     1.0000 0.50020  0.42299  0.40645  Biso   1.000  Mo
  Mo40     1.0000 0.49980  0.42299  0.59355  Biso   1.000  Mo
  Mo41     1.0000 0.00000  0.15430  0.00000  Biso   1.000  Mo
  Mo42     1.0000 0.50000  0.65430  0.50000  Biso   1.000  Mo
  Mo43     1.0000 0.00000  0.84570  0.00000  Biso   1.000  Mo
  Mo44     1.0000 0.50000  0.34570  0.50000  Biso   1.000  Mo
  Mo45     1.0000 0.81200  0.00000  0.01450  Biso   1.000  Mo
  Mo46     1.0000 0.18800  0.00000  0.98550  Biso   1.000  Mo
  Mo47     1.0000 0.31200  0.50000  0.51450  Biso   1.000  Mo
  Mo48     1.0000 0.68800  0.50000  0.48550  Biso   1.000  Mo
  O105     1.0000 0.86400  0.07770  0.02460  Biso   1.000  O
  O106     1.0000 0.13600  0.07770  0.97540  Biso   1.000  O
  O107     1.0000 0.36400  0.57770  0.52460  Biso   1.000  O
  O108     1.0000 0.63600  0.57770  0.47540  Biso   1.000  O
  O109     1.0000 0.13600  0.92230  0.97540  Biso   1.000  O
  O110     1.0000 0.86400  0.92230  0.02460  Biso   1.000  O
  O111     1.0000 0.63600  0.42230  0.47540  Biso   1.000  O
  O112     1.0000 0.36400  0.42230  0.52460  Biso   1.000  O
  O113     1.0000 0.09400  0.13020  0.05590  Biso   1.000  O
  O114     1.0000 0.90600  0.13020  0.94410  Biso   1.000  O
  O115     1.0000 0.59400  0.63020  0.55590  Biso   1.000  O
  O116     1.0000 0.40600  0.63020  0.44410  Biso   1.000  O
  O117     1.0000 0.90600  0.86980  0.94410  Biso   1.000  O
  O118     1.0000 0.09400  0.86980  0.05590  Biso   1.000  O
  O119     1.0000 0.40600  0.36980  0.44410  Biso   1.000  O
  O120     1.0000 0.59400  0.36980  0.55590  Biso   1.000  O
  O121     1.0000 0.90400  0.00000  0.09220  Biso   1.000  O
  O122     1.0000 0.09600  0.00000  0.90780  Biso   1.000  O
  O123     1.0000 0.40400  0.50000  0.59220  Biso   1.000  O
  O124     1.0000 0.59600  0.50000  0.40780  Biso   1.000  O
  O125     1.0000 0.87800  0.12060  0.12500  Biso   1.000  O
  O126     1.0000 0.12200  0.12060  0.87500  Biso   1.000  O
  O127     1.0000 0.37800  0.62060  0.62500  Biso   1.000  O
  O128     1.0000 0.62200  0.62060  0.37500  Biso   1.000  O
  O129     1.0000 0.12200  0.87940  0.87500  Biso   1.000  O
  O130     1.0000 0.87800  0.87940  0.12500  Biso   1.000  O
  O131     1.0000 0.62200  0.37940  0.37500  Biso   1.000  O
  O132     1.0000 0.37800  0.37940  0.62500  Biso   1.000  O
  O133     1.0000 0.13000  0.06120  0.12410  Biso   1.000  O
  O134     1.0000 0.87000  0.06120  0.87590  Biso   1.000  O
  O135     1.0000 0.63000  0.56120  0.62410  Biso   1.000  O
  O136     1.0000 0.37000  0.56120  0.37590  Biso   1.000  O
  O137     1.0000 0.87000  0.93880  0.87590  Biso   1.000  O
  O138     1.0000 0.13000  0.93880  0.12410  Biso   1.000  O
  O139     1.0000 0.37000  0.43880  0.37590  Biso   1.000  O
  O140     1.0000 0.63000  0.43880  0.62410  Biso   1.000  O
  O141     1.0000 0.86000  0.20300  0.01940  Biso   1.000  O
  O142     1.0000 0.14000  0.20300  0.98060  Biso   1.000  O
  O143     1.0000 0.36000  0.70300  0.51940  Biso   1.000  O
  O144     1.0000 0.64000  0.70300  0.48060  Biso   1.000  O
  O145     1.0000 0.14000  0.79700  0.98060  Biso   1.000  O
  O146     1.0000 0.86000  0.79700  0.01940  Biso   1.000  O
  O147     1.0000 0.64000  0.29700  0.48060  Biso   1.000  O
  O148     1.0000 0.36000  0.29700  0.51940  Biso   1.000  O
  O149     1.0000 0.61400  0.00000  0.02010  Biso   1.000  O
  O150     1.0000 0.38600  0.00000  0.97990  Biso   1.000  O
  O151     1.0000 0.11400  0.50000  0.52010  Biso   1.000  O
  O152     1.0000 0.88600  0.50000  0.47990  Biso   1.000  O
  O153     1.0000 0.08700  0.00000  0.04260  Biso   1.000  O
  O154     1.0000 0.91300  0.00000  0.95740  Biso   1.000  O
  O155     1.0000 0.58700  0.50000  0.54260  Biso   1.000  O
  O156     1.0000 0.41300  0.50000  0.45740  Biso   1.000  O
  Cu1      1.0000 0.26509  0.24489  0.18959  Biso   1.000  Cu
  Cu2      1.0000 0.73491  0.24489  0.81041  Biso   1.000  Cu
  Cu3      1.0000 0.76509  0.74489  0.68959  Biso   1.000  Cu
  Cu4      1.0000 0.23491  0.74489  0.31041  Biso   1.000  Cu
  Cu5      1.0000 0.73491  0.75511  0.81041  Biso   1.000  Cu
  Cu6      1.0000 0.26509  0.75511  0.18959  Biso   1.000  Cu
  Cu7      1.0000 0.23491  0.25511  0.31041  Biso   1.000  Cu
  Cu8      1.0000 0.76509  0.25511  0.68959  Biso   1.000  Cu
  Cu9      1.0000 0.80010  0.24375  0.19011  Biso   1.000  Cu
  Cu10     1.0000 0.19990  0.24375  0.80989  Biso   1.000  Cu
  Cu11     1.0000 0.30010  0.74375  0.69011  Biso   1.000  Cu
  Cu12     1.0000 0.69990  0.74375  0.30989  Biso   1.000  Cu
  Cu13     1.0000 0.19990  0.75625  0.80989  Biso   1.000  Cu
  Cu14     1.0000 0.80010  0.75625  0.19011  Biso   1.000  Cu
  Cu15     1.0000 0.69990  0.25625  0.30989  Biso   1.000  Cu
  Cu16     1.0000 0.30010  0.25625  0.69011  Biso   1.000  Cu
  N1       1.0000 0.09520  0.26790  0.13930  Biso   1.000  N
  N2       1.0000 0.90480  0.26790  0.86070  Biso   1.000  N
  N3       1.0000 0.59520  0.76790  0.63930  Biso   1.000  N
  N4       1.0000 0.40480  0.76790  0.36070  Biso   1.000  N
  N5       1.0000 0.90480  0.73210  0.86070  Biso   1.000  N
  N6       1.0000 0.09520  0.73210  0.13930  Biso   1.000  N
  N7       1.0000 0.40480  0.23210  0.36070  Biso   1.000  N
  N8       1.0000 0.59520  0.23210  0.63930  Biso   1.000  N
  N9       1.0000 0.93930  0.27100  0.14150  Biso   1.000  N
  N10      1.0000 0.06070  0.27100  0.85850  Biso   1.000  N
  N11      1.0000 0.43930  0.77100  0.64150  Biso   1.000  N
  N12      1.0000 0.56070  0.77100  0.35850  Biso   1.000  N
  N13      1.0000 0.06070  0.72900  0.85850  Biso   1.000  N
  N14      1.0000 0.93930  0.72900  0.14150  Biso   1.000  N
  N15      1.0000 0.56070  0.22900  0.35850  Biso   1.000  N
  N16      1.0000 0.43930  0.22900  0.64150  Biso   1.000  N
  N17      1.0000 0.01420  0.32190  0.08317  Biso   1.000  N
  N18      1.0000 0.98580  0.32190  0.91683  Biso   1.000  N
  N19      1.0000 0.51420  0.82190  0.58317  Biso   1.000  N
  N20      1.0000 0.48580  0.82190  0.41683  Biso   1.000  N
  N21      1.0000 0.98580  0.67810  0.91683  Biso   1.000  N
  N22      1.0000 0.01420  0.67810  0.08317  Biso   1.000  N
  N23      1.0000 0.48580  0.17810  0.41683  Biso   1.000  N
  N24      1.0000 0.51420  0.17810  0.58317  Biso   1.000  N
  N25      1.0000 0.42170  0.21790  0.14360  Biso   1.000  N
  N26      1.0000 0.57830  0.21790  0.85640  Biso   1.000  N
  N27      1.0000 0.92170  0.71790  0.64360  Biso   1.000  N
  N28      1.0000 0.07830  0.71790  0.35640  Biso   1.000  N
  N29      1.0000 0.57830  0.78210  0.85640  Biso   1.000  N
  N30      1.0000 0.42170  0.78210  0.14360  Biso   1.000  N
  N31      1.0000 0.07830  0.28210  0.35640  Biso   1.000  N
  N32      1.0000 0.92170  0.28210  0.64360  Biso   1.000  N
  N33      1.0000 0.57490  0.23370  0.13680  Biso   1.000  N
  N34      1.0000 0.42510  0.23370  0.86320  Biso   1.000  N
  N35      1.0000 0.07490  0.73370  0.63680  Biso   1.000  N
  N36      1.0000 0.92510  0.73370  0.36320  Biso   1.000  N
  N37      1.0000 0.42510  0.76630  0.86320  Biso   1.000  N
  N38      1.0000 0.57490  0.76630  0.13680  Biso   1.000  N
  N39      1.0000 0.92510  0.26630  0.36320  Biso   1.000  N
  N40      1.0000 0.07490  0.26630  0.63680  Biso   1.000  N
  N41      1.0000 0.50040  0.17270  0.08330  Biso   1.000  N
  N42      1.0000 0.49960  0.17270  0.91670  Biso   1.000  N
  N43      1.0000 0.00040  0.67270  0.58330  Biso   1.000  N
  N44      1.0000 0.99960  0.67270  0.41670  Biso   1.000  N
  N45      1.0000 0.49960  0.82730  0.91670  Biso   1.000  N
  N46      1.0000 0.50040  0.82730  0.08330  Biso   1.000  N
  N47      1.0000 0.99960  0.32730  0.41670  Biso   1.000  N
  N48      1.0000 0.00040  0.32730  0.58330  Biso   1.000  N
  N49      1.0000 0.33980  0.31370  0.22540  Biso   1.000  N
  N50      1.0000 0.66020  0.31370  0.77460  Biso   1.000  N
  N51      1.0000 0.83980  0.81370  0.72540  Biso   1.000  N
  N52      1.0000 0.16020  0.81370  0.27460  Biso   1.000  N
  N53      1.0000 0.66020  0.68630  0.77460  Biso   1.000  N
  N54      1.0000 0.33980  0.68630  0.22540  Biso   1.000  N
  N55      1.0000 0.16020  0.18630  0.27460  Biso   1.000  N
  N56      1.0000 0.83980  0.18630  0.72540  Biso   1.000  N
  N57      1.0000 0.32840  0.31750  0.27230  Biso   1.000  N
  N58      1.0000 0.67160  0.31750  0.72770  Biso   1.000  N
  N59      1.0000 0.82840  0.81750  0.77230  Biso   1.000  N
  N60      1.0000 0.17160  0.81750  0.22770  Biso   1.000  N
  N61      1.0000 0.67160  0.68250  0.72770  Biso   1.000  N
  N62      1.0000 0.32840  0.68250  0.27230  Biso   1.000  N
  N63      1.0000 0.17160  0.18250  0.22770  Biso   1.000  N
  N64      1.0000 0.82840  0.18250  0.77230  Biso   1.000  N
  N65      1.0000 0.46590  0.39140  0.24820  Biso   1.000  N
  N66      1.0000 0.53410  0.39140  0.75180  Biso   1.000  N
  N67      1.0000 0.96590  0.89140  0.74820  Biso   1.000  N
  N68      1.0000 0.03410  0.89140  0.25180  Biso   1.000  N
  N69      1.0000 0.53410  0.60860  0.75180  Biso   1.000  N
  N70      1.0000 0.46590  0.60860  0.24820  Biso   1.000  N
  N71      1.0000 0.03410  0.10860  0.25180  Biso   1.000  N
  N72      1.0000 0.96590  0.10860  0.74820  Biso   1.000  N
  N73      1.0000 0.83110  0.31620  0.23230  Biso   1.000  N
  N74      1.0000 0.16890  0.31620  0.76770  Biso   1.000  N
  N75      1.0000 0.33110  0.81620  0.73230  Biso   1.000  N
  N76      1.0000 0.66890  0.81620  0.26770  Biso   1.000  N
  N77      1.0000 0.16890  0.68380  0.76770  Biso   1.000  N
  N78      1.0000 0.83110  0.68380  0.23230  Biso   1.000  N
  N79      1.0000 0.66890  0.18380  0.26770  Biso   1.000  N
  N80      1.0000 0.33110  0.18380  0.73230  Biso   1.000  N
  N81      1.0000 0.78640  0.32260  0.27750  Biso   1.000  N
  N82      1.0000 0.21360  0.32260  0.72250  Biso   1.000  N
  N83      1.0000 0.28640  0.82260  0.77750  Biso   1.000  N
  N84      1.0000 0.71360  0.82260  0.22250  Biso   1.000  N
  N85      1.0000 0.21360  0.67740  0.72250  Biso   1.000  N
  N86      1.0000 0.78640  0.67740  0.27750  Biso   1.000  N
  N87      1.0000 0.71360  0.17740  0.22250  Biso   1.000  N
  N88      1.0000 0.28640  0.17740  0.77750  Biso   1.000  N
  N89      1.0000 0.94880  0.39170  0.26100  Biso   1.000  N
  N90      1.0000 0.05120  0.39170  0.73900  Biso   1.000  N
  N91      1.0000 0.44880  0.89170  0.76100  Biso   1.000  N
  N92      1.0000 0.55120  0.89170  0.23900  Biso   1.000  N
  N93      1.0000 0.05120  0.60830  0.73900  Biso   1.000  N
  N94      1.0000 0.94880  0.60830  0.26100  Biso   1.000  N
  N95      1.0000 0.55120  0.10830  0.23900  Biso   1.000  N
  N96      1.0000 0.44880  0.10830  0.76100  Biso   1.000  N
  C1       1.0000 0.13600  0.29920  0.10350  Biso   1.000  C
  C2       1.0000 0.86400  0.29920  0.89650  Biso   1.000  C
  C3       1.0000 0.63600  0.79920  0.60350  Biso   1.000  C
  C4       1.0000 0.36400  0.79920  0.39650  Biso   1.000  C
  C5       1.0000 0.86400  0.70080  0.89650  Biso   1.000  C
  C6       1.0000 0.13600  0.70080  0.10350  Biso   1.000  C
  C7       1.0000 0.36400  0.20080  0.39650  Biso   1.000  C
  C8       1.0000 0.63600  0.20080  0.60350  Biso   1.000  C
  H1       1.0000 0.23750  0.30440  0.09390  Biso   1.000  H
  H2       1.0000 0.76250  0.30440  0.90610  Biso   1.000  H
  H3       1.0000 0.73750  0.80440  0.59390  Biso   1.000  H
  H4       1.0000 0.26250  0.80440  0.40610  Biso   1.000  H
  H5       1.0000 0.76250  0.69560  0.90610  Biso   1.000  H
  H6       1.0000 0.23750  0.69560  0.09390  Biso   1.000  H
  H7       1.0000 0.26250  0.19560  0.40610  Biso   1.000  H
  H8       1.0000 0.73750  0.19560  0.59390  Biso   1.000  H
  C9       1.0000 0.89690  0.30370  0.10740  Biso   1.000  C
  C10      1.0000 0.10310  0.30370  0.89260  Biso   1.000  C
  C11      1.0000 0.39690  0.80370  0.60740  Biso   1.000  C
  C12      1.0000 0.60310  0.80370  0.39260  Biso   1.000  C
  C13      1.0000 0.10310  0.69630  0.89260  Biso   1.000  C
  C14      1.0000 0.89690  0.69630  0.10740  Biso   1.000  C
  C15      1.0000 0.60310  0.19630  0.39260  Biso   1.000  C
  C16      1.0000 0.39690  0.19630  0.60740  Biso   1.000  C
  H9       1.0000 0.79430  0.31330  0.10080  Biso   1.000  H
  H10      1.0000 0.20570  0.31330  0.89920  Biso   1.000  H
  H11      1.0000 0.29430  0.81330  0.60080  Biso   1.000  H
  H12      1.0000 0.70570  0.81330  0.39920  Biso   1.000  H
  H13      1.0000 0.20570  0.68670  0.89920  Biso   1.000  H
  H14      1.0000 0.79430  0.68670  0.10080  Biso   1.000  H
  H15      1.0000 0.70570  0.18670  0.39920  Biso   1.000  H
  H16      1.0000 0.29430  0.18670  0.60080  Biso   1.000  H
  C17      1.0000 0.01080  0.35840  0.04220  Biso   1.000  C
  C18      1.0000 0.98920  0.35840  0.95780  Biso   1.000  C
  C19      1.0000 0.51080  0.85840  0.54220  Biso   1.000  C
  C20      1.0000 0.48920  0.85840  0.45780  Biso   1.000  C
  C21      1.0000 0.98920  0.64160  0.95780  Biso   1.000  C
  C22      1.0000 0.01080  0.64160  0.04220  Biso   1.000  C
  C23      1.0000 0.48920  0.14160  0.45780  Biso   1.000  C
  C24      1.0000 0.51080  0.14160  0.54220  Biso   1.000  C
  H17      1.0000 0.10400  0.38250  0.04110  Biso   1.000  H
  H18      1.0000 0.89600  0.38250  0.95890  Biso   1.000  H
  H19      1.0000 0.60400  0.88250  0.54110  Biso   1.000  H
  H20      1.0000 0.39600  0.88250  0.45890  Biso   1.000  H
  H21      1.0000 0.89600  0.61750  0.95890  Biso   1.000  H
  H22      1.0000 0.10400  0.61750  0.04110  Biso   1.000  H
  H23      1.0000 0.39600  0.11750  0.45890  Biso   1.000  H
  H24      1.0000 0.60400  0.11750  0.54110  Biso   1.000  H
  H25      1.0000 0.92250  0.38500  0.04330  Biso   1.000  H
  H26      1.0000 0.07750  0.38500  0.95670  Biso   1.000  H
  H27      1.0000 0.42250  0.88500  0.54330  Biso   1.000  H
  H28      1.0000 0.57750  0.88500  0.45670  Biso   1.000  H
  H29      1.0000 0.07750  0.61500  0.95670  Biso   1.000  H
  H30      1.0000 0.92250  0.61500  0.04330  Biso   1.000  H
  H31      1.0000 0.57750  0.11500  0.45670  Biso   1.000  H
  H32      1.0000 0.42250  0.11500  0.54330  Biso   1.000  H
  C25      1.0000 0.00000  0.32060  0.00000  Biso   1.000  C
  C26      1.0000 0.50000  0.82060  0.50000  Biso   1.000  C
  C27      1.0000 0.00000  0.67940  0.00000  Biso   1.000  C
  C28      1.0000 0.50000  0.17940  0.50000  Biso   1.000  C
  H33      1.0000 0.09060  0.29520  0.99840  Biso   1.000  H
  H34      1.0000 0.90940  0.29520  0.00160  Biso   1.000  H
  H35      1.0000 0.59060  0.79520  0.49840  Biso   1.000  H
  H36      1.0000 0.40940  0.79520  0.50160  Biso   1.000  H
  H37      1.0000 0.90940  0.70480  0.00160  Biso   1.000  H
  H38      1.0000 0.09060  0.70480  0.99840  Biso   1.000  H
  H39      1.0000 0.40940  0.20480  0.50160  Biso   1.000  H
  H40      1.0000 0.59060  0.20480  0.49840  Biso   1.000  H
  C29      1.0000 0.38200  0.18180  0.11170  Biso   1.000  C
  C30      1.0000 0.61800  0.18180  0.88830  Biso   1.000  C
  C31      1.0000 0.88200  0.68180  0.61170  Biso   1.000  C
  C32      1.0000 0.11800  0.68180  0.38830  Biso   1.000  C
  C33      1.0000 0.61800  0.81820  0.88830  Biso   1.000  C
  C34      1.0000 0.38200  0.81820  0.11170  Biso   1.000  C
  C35      1.0000 0.11800  0.31820  0.38830  Biso   1.000  C
  C36      1.0000 0.88200  0.31820  0.61170  Biso   1.000  C
  H41      1.0000 0.28470  0.16440  0.10860  Biso   1.000  H
  H42      1.0000 0.71530  0.16440  0.89140  Biso   1.000  H
  H43      1.0000 0.78470  0.66440  0.60860  Biso   1.000  H
  H44      1.0000 0.21530  0.66440  0.39140  Biso   1.000  H
  H45      1.0000 0.71530  0.83560  0.89140  Biso   1.000  H
  H46      1.0000 0.28470  0.83560  0.10860  Biso   1.000  H
  H47      1.0000 0.21530  0.33560  0.39140  Biso   1.000  H
  H48      1.0000 0.78470  0.33560  0.60860  Biso   1.000  H
  C37      1.0000 0.61580  0.20620  0.09990  Biso   1.000  C
  C38      1.0000 0.38420  0.20620  0.90010  Biso   1.000  C
  C39      1.0000 0.11580  0.70620  0.59990  Biso   1.000  C
  C40      1.0000 0.88420  0.70620  0.40010  Biso   1.000  C
  C41      1.0000 0.38420  0.79380  0.90010  Biso   1.000  C
  C42      1.0000 0.61580  0.79380  0.09990  Biso   1.000  C
  C43      1.0000 0.88420  0.29380  0.40010  Biso   1.000  C
  C44      1.0000 0.11580  0.29380  0.59990  Biso   1.000  C
  H49      1.0000 0.71290  0.20940  0.08660  Biso   1.000  H
  H50      1.0000 0.28710  0.20940  0.91340  Biso   1.000  H
  H51      1.0000 0.21290  0.70940  0.58660  Biso   1.000  H
  H52      1.0000 0.78710  0.70940  0.41340  Biso   1.000  H
  H53      1.0000 0.28710  0.79060  0.91340  Biso   1.000  H
  H54      1.0000 0.71290  0.79060  0.08660  Biso   1.000  H
  H55      1.0000 0.78710  0.29060  0.41340  Biso   1.000  H
  H56      1.0000 0.21290  0.29060  0.58660  Biso   1.000  H
  C45      1.0000 0.49710  0.13610  0.04180  Biso   1.000  C
  C46      1.0000 0.50290  0.13610  0.95820  Biso   1.000  C
  C47      1.0000 0.99710  0.63610  0.54180  Biso   1.000  C
  C48      1.0000 0.00290  0.63610  0.45820  Biso   1.000  C
  C49      1.0000 0.50290  0.86390  0.95820  Biso   1.000  C
  C50      1.0000 0.49710  0.86390  0.04180  Biso   1.000  C
  C51      1.0000 0.00290  0.36390  0.45820  Biso   1.000  C
  C52      1.0000 0.99710  0.36390  0.54180  Biso   1.000  C
  H57      1.0000 0.40410  0.11180  0.04150  Biso   1.000  H
  H58      1.0000 0.59590  0.11180  0.95850  Biso   1.000  H
  H59      1.0000 0.90410  0.61180  0.54150  Biso   1.000  H
  H60      1.0000 0.09590  0.61180  0.45850  Biso   1.000  H
  H61      1.0000 0.59590  0.88820  0.95850  Biso   1.000  H
  H62      1.0000 0.40410  0.88820  0.04150  Biso   1.000  H
  H63      1.0000 0.09590  0.38820  0.45850  Biso   1.000  H
  H64      1.0000 0.90410  0.38820  0.54150  Biso   1.000  H
  H65      1.0000 0.58580  0.10960  0.04190  Biso   1.000  H
  H66      1.0000 0.41420  0.10960  0.95810  Biso   1.000  H
  H67      1.0000 0.08580  0.60960  0.54190  Biso   1.000  H
  H68      1.0000 0.91420  0.60960  0.45810  Biso   1.000  H
  H69      1.0000 0.41420  0.89040  0.95810  Biso   1.000  H
  H70      1.0000 0.58580  0.89040  0.04190  Biso   1.000  H
  H71      1.0000 0.91420  0.39040  0.45810  Biso   1.000  H
  H72      1.0000 0.08580  0.39040  0.54190  Biso   1.000  H
  C53      1.0000 0.50000  0.17320  0.00000  Biso   1.000  C
  C54      1.0000 0.00000  0.67320  0.50000  Biso   1.000  C
  C55      1.0000 0.50000  0.82680  0.00000  Biso   1.000  C
  C56      1.0000 0.00000  0.32680  0.50000  Biso   1.000  C
  H73      1.0000 0.40920  0.19870  0.99920  Biso   1.000  H
  H74      1.0000 0.59080  0.19870  0.00080  Biso   1.000  H
  H75      1.0000 0.90920  0.69870  0.49920  Biso   1.000  H
  H76      1.0000 0.09080  0.69870  0.50080  Biso   1.000  H
  H77      1.0000 0.59080  0.80130  0.00080  Biso   1.000  H
  H78      1.0000 0.40920  0.80130  0.99920  Biso   1.000  H
  H79      1.0000 0.09080  0.30130  0.50080  Biso   1.000  H
  H80      1.0000 0.90920  0.30130  0.49920  Biso   1.000  H
  C57      1.0000 0.42250  0.35850  0.21200  Biso   1.000  C
  C58      1.0000 0.57750  0.35850  0.78800  Biso   1.000  C
  C59      1.0000 0.92250  0.85850  0.71200  Biso   1.000  C
  C60      1.0000 0.07750  0.85850  0.28800  Biso   1.000  C
  C61      1.0000 0.57750  0.64150  0.78800  Biso   1.000  C
  C62      1.0000 0.42250  0.64150  0.21200  Biso   1.000  C
  C63      1.0000 0.07750  0.14150  0.28800  Biso   1.000  C
  C64      1.0000 0.92250  0.14150  0.71200  Biso   1.000  C
  H81      1.0000 0.44790  0.36650  0.18170  Biso   1.000  H
  H82      1.0000 0.55210  0.36650  0.81830  Biso   1.000  H
  H83      1.0000 0.94790  0.86650  0.68170  Biso   1.000  H
  H84      1.0000 0.05210  0.86650  0.31830  Biso   1.000  H
  H85      1.0000 0.55210  0.63350  0.81830  Biso   1.000  H
  H86      1.0000 0.44790  0.63350  0.18170  Biso   1.000  H
  H87      1.0000 0.05210  0.13350  0.31830  Biso   1.000  H
  H88      1.0000 0.94790  0.13350  0.68170  Biso   1.000  H
  C65      1.0000 0.40610  0.36430  0.28470  Biso   1.000  C
  C66      1.0000 0.59390  0.36430  0.71530  Biso   1.000  C
  C67      1.0000 0.90610  0.86430  0.78470  Biso   1.000  C
  C68      1.0000 0.09390  0.86430  0.21530  Biso   1.000  C
  C69      1.0000 0.59390  0.63570  0.71530  Biso   1.000  C
  C70      1.0000 0.40610  0.63570  0.28470  Biso   1.000  C
  C71      1.0000 0.09390  0.13570  0.21530  Biso   1.000  C
  C72      1.0000 0.90610  0.13570  0.78470  Biso   1.000  C
  H89      1.0000 0.41840  0.37720  0.31490  Biso   1.000  H
  H90      1.0000 0.58160  0.37720  0.68510  Biso   1.000  H
  H91      1.0000 0.91840  0.87720  0.81490  Biso   1.000  H
  H92      1.0000 0.08160  0.87720  0.18510  Biso   1.000  H
  H93      1.0000 0.58160  0.62280  0.68510  Biso   1.000  H
  H94      1.0000 0.41840  0.62280  0.31490  Biso   1.000  H
  H95      1.0000 0.08160  0.12280  0.18510  Biso   1.000  H
  H96      1.0000 0.91840  0.12280  0.81490  Biso   1.000  H
  C73      1.0000 0.55570  0.44610  0.24820  Biso   1.000  C
  C74      1.0000 0.44430  0.44610  0.75180  Biso   1.000  C
  C75      1.0000 0.05570  0.94610  0.74820  Biso   1.000  C
  C76      1.0000 0.94430  0.94610  0.25180  Biso   1.000  C
  C77      1.0000 0.44430  0.55390  0.75180  Biso   1.000  C
  C78      1.0000 0.55570  0.55390  0.24820  Biso   1.000  C
  C79      1.0000 0.94430  0.05390  0.25180  Biso   1.000  C
  C80      1.0000 0.05570  0.05390  0.74820  Biso   1.000  C
  H97      1.0000 0.62400  0.44620  0.22200  Biso   1.000  H
  H98      1.0000 0.37600  0.44620  0.77800  Biso   1.000  H
  H99      1.0000 0.12400  0.94620  0.72200  Biso   1.000  H
  H100     1.0000 0.87600  0.94620  0.27800  Biso   1.000  H
  H101     1.0000 0.37600  0.55380  0.77800  Biso   1.000  H
  H102     1.0000 0.62400  0.55380  0.22200  Biso   1.000  H
  H103     1.0000 0.87600  0.05380  0.27800  Biso   1.000  H
  H104     1.0000 0.12400  0.05380  0.72200  Biso   1.000  H
  H105     1.0000 0.61930  0.44770  0.27580  Biso   1.000  H
  H106     1.0000 0.38070  0.44770  0.72420  Biso   1.000  H
  H107     1.0000 0.11930  0.94770  0.77580  Biso   1.000  H
  H108     1.0000 0.88070  0.94770  0.22420  Biso   1.000  H
  H109     1.0000 0.38070  0.55230  0.72420  Biso   1.000  H
  H110     1.0000 0.61930  0.55230  0.27580  Biso   1.000  H
  H111     1.0000 0.88070  0.05230  0.22420  Biso   1.000  H
  H112     1.0000 0.11930  0.05230  0.77580  Biso   1.000  H
  C81      1.0000 0.45240  0.50000  0.24620  Biso   1.000  C
  C82      1.0000 0.54760  0.50000  0.75380  Biso   1.000  C
  C83      1.0000 0.95240  0.00000  0.74620  Biso   1.000  C
  C84      1.0000 0.04760  0.00000  0.25380  Biso   1.000  C
  H113     1.0000 0.39190  0.50000  0.21800  Biso   1.000  H
  H114     1.0000 0.60810  0.50000  0.78200  Biso   1.000  H
  H115     1.0000 0.89190  0.00000  0.71800  Biso   1.000  H
  H116     1.0000 0.10810  0.00000  0.28200  Biso   1.000  H
  H117     1.0000 0.38180  0.50000  0.27190  Biso   1.000  H
  H118     1.0000 0.61820  0.50000  0.72810  Biso   1.000  H
  H119     1.0000 0.88180  0.00000  0.77190  Biso   1.000  H
  H120     1.0000 0.11820  0.00000  0.22810  Biso   1.000  H
  C85      1.0000 0.92700  0.35940  0.22360  Biso   1.000  C
  C86      1.0000 0.07300  0.35940  0.77640  Biso   1.000  C
  C87      1.0000 0.42700  0.85940  0.72360  Biso   1.000  C
  C88      1.0000 0.57300  0.85940  0.27640  Biso   1.000  C
  C89      1.0000 0.07300  0.64060  0.77640  Biso   1.000  C
  C90      1.0000 0.92700  0.64060  0.22360  Biso   1.000  C
  C91      1.0000 0.57300  0.14060  0.27640  Biso   1.000  C
  C92      1.0000 0.42700  0.14060  0.72360  Biso   1.000  C
  H121     1.0000 0.97310  0.36640  0.19540  Biso   1.000  H
  H122     1.0000 0.02690  0.36640  0.80460  Biso   1.000  H
  H123     1.0000 0.47310  0.86640  0.69540  Biso   1.000  H
  H124     1.0000 0.52690  0.86640  0.30460  Biso   1.000  H
  H125     1.0000 0.02690  0.63360  0.80460  Biso   1.000  H
  H126     1.0000 0.97310  0.63360  0.19540  Biso   1.000  H
  H127     1.0000 0.52690  0.13360  0.30460  Biso   1.000  H
  H128     1.0000 0.47310  0.13360  0.69540  Biso   1.000  H
  C93      1.0000 0.86010  0.36790  0.29360  Biso   1.000  C
  C94      1.0000 0.13990  0.36790  0.70640  Biso   1.000  C
  C95      1.0000 0.36010  0.86790  0.79360  Biso   1.000  C
  C96      1.0000 0.63990  0.86790  0.20640  Biso   1.000  C
  C97      1.0000 0.13990  0.63210  0.70640  Biso   1.000  C
  C98      1.0000 0.86010  0.63210  0.29360  Biso   1.000  C
  C99      1.0000 0.63990  0.13210  0.20640  Biso   1.000  C
  C100     1.0000 0.36010  0.13210  0.79360  Biso   1.000  C
  H129     1.0000 0.85270  0.38210  0.32350  Biso   1.000  H
  H130     1.0000 0.14730  0.38210  0.67650  Biso   1.000  H
  H131     1.0000 0.35270  0.88210  0.82350  Biso   1.000  H
  H132     1.0000 0.64730  0.88210  0.17650  Biso   1.000  H
  H133     1.0000 0.14730  0.61790  0.67650  Biso   1.000  H
  H134     1.0000 0.85270  0.61790  0.32350  Biso   1.000  H
  H135     1.0000 0.64730  0.11790  0.17650  Biso   1.000  H
  H136     1.0000 0.35270  0.11790  0.82350  Biso   1.000  H
  C101     1.0000 0.04710  0.44570  0.26530  Biso   1.000  C
  C102     1.0000 0.95290  0.44570  0.73470  Biso   1.000  C
  C103     1.0000 0.54710  0.94570  0.76530  Biso   1.000  C
  C104     1.0000 0.45290  0.94570  0.23470  Biso   1.000  C
  C105     1.0000 0.95290  0.55430  0.73470  Biso   1.000  C
  C106     1.0000 0.04710  0.55430  0.26530  Biso   1.000  C
  C107     1.0000 0.45290  0.05430  0.23470  Biso   1.000  C
  C108     1.0000 0.54710  0.05430  0.76530  Biso   1.000  C
  H137     1.0000 0.13300  0.44310  0.24420  Biso   1.000  H
  H138     1.0000 0.86700  0.44310  0.75580  Biso   1.000  H
  H139     1.0000 0.63300  0.94310  0.74420  Biso   1.000  H
  H140     1.0000 0.36700  0.94310  0.25580  Biso   1.000  H
  H141     1.0000 0.86700  0.55690  0.75580  Biso   1.000  H
  H142     1.0000 0.13300  0.55690  0.24420  Biso   1.000  H
  H143     1.0000 0.36700  0.05690  0.25580  Biso   1.000  H
  H144     1.0000 0.63300  0.05690  0.74420  Biso   1.000  H
  H145     1.0000 0.08890  0.44860  0.29620  Biso   1.000  H
  H146     1.0000 0.91110  0.44860  0.70380  Biso   1.000  H
  H147     1.0000 0.58890  0.94860  0.79620  Biso   1.000  H
  H148     1.0000 0.41110  0.94860  0.20380  Biso   1.000  H
  H149     1.0000 0.91110  0.55140  0.70380  Biso   1.000  H
  H150     1.0000 0.08890  0.55140  0.29620  Biso   1.000  H
  H151     1.0000 0.41110  0.05140  0.20380  Biso   1.000  H
  H152     1.0000 0.58890  0.05140  0.79620  Biso   1.000  H
  C109     1.0000 0.95200  0.50000  0.25460  Biso   1.000  C
  C110     1.0000 0.04800  0.50000  0.74540  Biso   1.000  C
  C111     1.0000 0.45200  0.00000  0.75460  Biso   1.000  C
  C112     1.0000 0.54800  0.00000  0.24540  Biso   1.000  C
  H153     1.0000 0.85870  0.50000  0.27290  Biso   1.000  H
  H154     1.0000 0.14130  0.50000  0.72710  Biso   1.000  H
  H155     1.0000 0.35870  0.00000  0.77290  Biso   1.000  H
  H156     1.0000 0.64130  0.00000  0.22710  Biso   1.000  H
  H157     1.0000 0.92180  0.50000  0.22240  Biso   1.000  H
  H158     1.0000 0.07820  0.50000  0.77760  Biso   1.000  H
  H159     1.0000 0.42180  0.00000  0.72240  Biso   1.000  H
  H160     1.0000 0.57820  0.00000  0.27760  Biso   1.000  H
  O157     1.0000 0.13820  0.42580  0.15820  Biso   1.000  O
  O158     1.0000 0.86180  0.42580  0.84180  Biso   1.000  O
  O159     1.0000 0.63820  0.92580  0.65820  Biso   1.000  O
  O160     1.0000 0.36180  0.92580  0.34180  Biso   1.000  O
  O161     1.0000 0.86180  0.57420  0.84180  Biso   1.000  O
  O162     1.0000 0.13820  0.57420  0.15820  Biso   1.000  O
  O163     1.0000 0.36180  0.07420  0.34180  Biso   1.000  O
  O164     1.0000 0.63820  0.07420  0.65820  Biso   1.000  O
  H161     1.0000 0.20780  0.42100  0.13860  Biso   1.000  H
  H162     1.0000 0.79220  0.42100  0.86140  Biso   1.000  H
  H163     1.0000 0.70780  0.92100  0.63860  Biso   1.000  H
  H164     1.0000 0.29220  0.92100  0.36140  Biso   1.000  H
  H165     1.0000 0.79220  0.57900  0.86140  Biso   1.000  H
  H166     1.0000 0.20780  0.57900  0.13860  Biso   1.000  H
  H167     1.0000 0.29220  0.07900  0.36140  Biso   1.000  H
  H168     1.0000 0.70780  0.07900  0.63860  Biso   1.000  H
  H169     1.0000 0.06990  0.44850  0.14710  Biso   1.000  H
  H170     1.0000 0.93010  0.44850  0.85290  Biso   1.000  H
  H171     1.0000 0.56990  0.94850  0.64710  Biso   1.000  H
  H172     1.0000 0.43010  0.94850  0.35290  Biso   1.000  H
  H173     1.0000 0.93010  0.55150  0.85290  Biso   1.000  H
  H174     1.0000 0.06990  0.55150  0.14710  Biso   1.000  H
  H175     1.0000 0.43010  0.05150  0.35290  Biso   1.000  H
  H176     1.0000 0.56990  0.05150  0.64710  Biso   1.000  H
  O165     1.0000 0.85500  0.50000  0.35450  Biso   1.000  O
  O166     1.0000 0.14500  0.50000  0.64550  Biso   1.000  O
  O167     1.0000 0.35500  0.00000  0.85450  Biso   1.000  O
  O168     1.0000 0.64500  0.00000  0.14550  Biso   1.000  O
  O169     1.0000 0.93800  0.50000  0.36720  Biso   1.000  O
  O170     1.0000 0.06200  0.50000  0.63280  Biso   1.000  O
  O171     1.0000 0.43800  0.00000  0.86720  Biso   1.000  O
  O172     1.0000 0.56200  0.00000  0.13280  Biso   1.000  O
