data_image0
_cell_length_a       9.9725
_cell_length_b       12.2828
_cell_length_c       12.3728
_cell_angle_alpha    87.865
_cell_angle_beta     72.116
_cell_angle_gamma    73.893

_symmetry_space_group_name_H-M    "P 1"
_symmetry_int_tables_number       1

loop_
  _symmetry_equiv_pos_as_xyz
  'x, y, z'

loop_
  _atom_site_label
  _atom_site_occupancy
  _atom_site_fract_x
  _atom_site_fract_y
  _atom_site_fract_z
  _atom_site_thermal_displace_type
  _atom_site_B_iso_or_equiv
  _atom_site_type_symbol
  Mo1      1.0000 0.90356  0.21002  0.12794  Biso   1.000  Mo
  Mo2      1.0000 0.09644  0.78998  0.87206  Biso   1.000  Mo
  Mo3      1.0000 0.17865  0.99987  0.00392  Biso   1.000  Mo
  Mo4      1.0000 0.82135  0.00013  0.99608  Biso   1.000  Mo
  Mo5      1.0000 0.10532  0.05369  0.76943  Biso   1.000  Mo
  Mo6      1.0000 0.89468  0.94631  0.23057  Biso   1.000  Mo
  Mo7      1.0000 0.82270  0.26878  0.89030  Biso   1.000  Mo
  Mo8      1.0000 0.17730  0.73122  0.10970  Biso   1.000  Mo
  Cu1      1.0000 0.57856  0.35689  0.41641  Biso   1.000  Cu
  Cu2      1.0000 0.42144  0.64311  0.58359  Biso   1.000  Cu
  Cu3      1.0000 0.19119  0.48653  0.50153  Biso   1.000  Cu
  Cu4      1.0000 0.80881  0.51347  0.49847  Biso   1.000  Cu
  O1       1.0000 0.79960  0.24380  0.26590  Biso   1.000  O
  O2       1.0000 0.20040  0.75620  0.73410  Biso   1.000  O
  O3       1.0000 0.99460  0.10740  0.96080  Biso   1.000  O
  O4       1.0000 0.00540  0.89260  0.03920  Biso   1.000  O
  O5       1.0000 0.04420  0.06330  0.15090  Biso   1.000  O
  O6       1.0000 0.95580  0.93670  0.84910  Biso   1.000  O
  O7       1.0000 0.02180  0.29030  0.10020  Biso   1.000  O
  O8       1.0000 0.97820  0.70970  0.89980  Biso   1.000  O
  O9       1.0000 0.21190  0.93730  0.85380  Biso   1.000  O
  O10      1.0000 0.78810  0.06270  0.14620  Biso   1.000  O
  O11      1.0000 0.27890  0.87620  0.04970  Biso   1.000  O
  O12      1.0000 0.72110  0.12380  0.95030  Biso   1.000  O
  O13      1.0000 0.29100  0.08440  0.97400  Biso   1.000  O
  O14      1.0000 0.70900  0.91560  0.02600  Biso   1.000  O
  O15      1.0000 0.92480  0.15610  0.76800  Biso   1.000  O
  O16      1.0000 0.07520  0.84390  0.23200  Biso   1.000  O
  O17      1.0000 0.15800  0.98310  0.64120  Biso   1.000  O
  O18      1.0000 0.84200  0.01690  0.35880  Biso   1.000  O
  O19      1.0000 0.21240  0.14270  0.75120  Biso   1.000  O
  O20      1.0000 0.78760  0.85730  0.24880  Biso   1.000  O
  O21      1.0000 0.76780  0.28570  0.05260  Biso   1.000  O
  O22      1.0000 0.23220  0.71430  0.94740  Biso   1.000  O
  O23      1.0000 0.67030  0.34220  0.85590  Biso   1.000  O
  O24      1.0000 0.32970  0.65780  0.14410  Biso   1.000  O
  O25      1.0000 0.93640  0.35370  0.85700  Biso   1.000  O
  O26      1.0000 0.06360  0.64630  0.14300  Biso   1.000  O
  N1       1.0000 0.43810  0.34670  0.32000  Biso   1.000  N
  N2       1.0000 0.56190  0.65330  0.68000  Biso   1.000  N
  N3       1.0000 0.30430  0.42310  0.34260  Biso   1.000  N
  N4       1.0000 0.69570  0.57690  0.65740  Biso   1.000  N
  N5       1.0000 0.35630  0.33760  0.17740  Biso   1.000  N
  N6       1.0000 0.64370  0.66240  0.82260  Biso   1.000  N
  N7       1.0000 0.36560  0.51290  0.65510  Biso   1.000  N
  N8       1.0000 0.63440  0.48710  0.34490  Biso   1.000  N
  N9       1.0000 0.26580  0.46400  0.63380  Biso   1.000  N
  N10      1.0000 0.73420  0.53600  0.36620  Biso   1.000  N
  N11      1.0000 0.31010  0.39760  0.78980  Biso   1.000  N
  N12      1.0000 0.68990  0.60240  0.21020  Biso   1.000  N
  N13      1.0000 0.56610  0.24290  0.52540  Biso   1.000  N
  N14      1.0000 0.43390  0.75710  0.47460  Biso   1.000  N
  N15      1.0000 0.49400  0.16280  0.51520  Biso   1.000  N
  N16      1.0000 0.50600  0.83720  0.48480  Biso   1.000  N
  N17      1.0000 0.58590  0.12030  0.65510  Biso   1.000  N
  N18      1.0000 0.41410  0.87970  0.34490  Biso   1.000  N
  N19      1.0000 0.92550  0.65220  0.46860  Biso   1.000  N
  N20      1.0000 0.07450  0.34780  0.53140  Biso   1.000  N
  N21      1.0000 0.04180  0.63420  0.51190  Biso   1.000  N
  N22      1.0000 0.95820  0.36580  0.48810  Biso   1.000  N
  N23      1.0000 0.90920  0.80920  0.55490  Biso   1.000  N
  N24      1.0000 0.09080  0.19080  0.44510  Biso   1.000  N
  C1       1.0000 0.46750  0.29470  0.22090  Biso   1.000  C
  C2       1.0000 0.53250  0.70530  0.77910  Biso   1.000  C
  H1       1.0000 0.55290  0.23650  0.18580  Biso   1.000  H
  H2       1.0000 0.44710  0.76350  0.81420  Biso   1.000  H
  C3       1.0000 0.25690  0.41770  0.25490  Biso   1.000  C
  C4       1.0000 0.74310  0.58230  0.74510  Biso   1.000  C
  H3       1.0000 0.16730  0.46280  0.24770  Biso   1.000  H
  H4       1.0000 0.83270  0.53720  0.75230  Biso   1.000  H
  C5       1.0000 0.39170  0.46960  0.74820  Biso   1.000  C
  C6       1.0000 0.60830  0.53040  0.25180  Biso   1.000  C
  H5       1.0000 0.45770  0.48640  0.78080  Biso   1.000  H
  H6       1.0000 0.54230  0.51360  0.21920  Biso   1.000  H
  C7       1.0000 0.23420  0.39660  0.71670  Biso   1.000  C
  C8       1.0000 0.76580  0.60340  0.28330  Biso   1.000  C
  H7       1.0000 0.16760  0.35350  0.72420  Biso   1.000  H
  H8       1.0000 0.83240  0.64650  0.27580  Biso   1.000  H
  C9       1.0000 0.34450  0.29620  0.07230  Biso   1.000  C
  C10      1.0000 0.65550  0.70380  0.92770  Biso   1.000  C
  H9       1.0000 0.26560  0.25900  0.09210  Biso   1.000  H
  H10      1.0000 0.73440  0.74100  0.90790  Biso   1.000  H
  H11      1.0000 0.43620  0.23860  0.03410  Biso   1.000  H
  H12      1.0000 0.56380  0.76140  0.96590  Biso   1.000  H
  C11      1.0000 0.31470  0.38550  0.99040  Biso   1.000  C
  C12      1.0000 0.68530  0.61450  0.00960  Biso   1.000  C
  H13      1.0000 0.39160  0.42470  0.96970  Biso   1.000  H
  H14      1.0000 0.60840  0.57530  0.03030  Biso   1.000  H
  H15      1.0000 0.22000  0.44150  0.02460  Biso   1.000  H
  H16      1.0000 0.78000  0.55850  0.97540  Biso   1.000  H
  C13      1.0000 0.31270  0.32620  0.88670  Biso   1.000  C
  C14      1.0000 0.68730  0.67380  0.11330  Biso   1.000  C
  H17      1.0000 0.39970  0.26060  0.86350  Biso   1.000  H
  H18      1.0000 0.60030  0.73940  0.13650  Biso   1.000  H
  H19      1.0000 0.22610  0.29760  0.90720  Biso   1.000  H
  H20      1.0000 0.77390  0.70240  0.09280  Biso   1.000  H
  C15      1.0000 0.62070  0.21420  0.60920  Biso   1.000  C
  C16      1.0000 0.37930  0.78580  0.39080  Biso   1.000  C
  H21      1.0000 0.67590  0.25310  0.63390  Biso   1.000  H
  H22      1.0000 0.32410  0.74690  0.36610  Biso   1.000  H
  C17      1.0000 0.50710  0.09310  0.59530  Biso   1.000  C
  C18      1.0000 0.49290  0.90690  0.40470  Biso   1.000  C
  H23      1.0000 0.46660  0.03140  0.60950  Biso   1.000  H
  H24      1.0000 0.53340  0.96860  0.39050  Biso   1.000  H
  C19      1.0000 0.85000  0.75680  0.49530  Biso   1.000  C
  C20      1.0000 0.15000  0.24320  0.50470  Biso   1.000  C
  H25      1.0000 0.76480  0.79190  0.47570  Biso   1.000  H
  H26      1.0000 0.23520  0.20810  0.52430  Biso   1.000  H
  C21      1.0000 0.02770  0.73060  0.56340  Biso   1.000  C
  C22      1.0000 0.97230  0.26940  0.43660  Biso   1.000  C
  H27      1.0000 0.09210  0.74220  0.60070  Biso   1.000  H
  H28      1.0000 0.90790  0.25780  0.39930  Biso   1.000  H
  C23      1.0000 0.63190  0.05600  0.74710  Biso   1.000  C
  C24      1.0000 0.36810  0.94400  0.25290  Biso   1.000  C
  H29      1.0000 0.54520  0.05830  0.81240  Biso   1.000  H
  H30      1.0000 0.45480  0.94170  0.18760  Biso   1.000  H
  H31      1.0000 0.69520  0.09140  0.77180  Biso   1.000  H
  H32      1.0000 0.30480  0.90860  0.22820  Biso   1.000  H
  C25      1.0000 0.71350  0.93470  0.70730  Biso   1.000  C
  C26      1.0000 0.28650  0.06530  0.29270  Biso   1.000  C
  H33      1.0000 0.64830  0.89880  0.68590  Biso   1.000  H
  H34      1.0000 0.35170  0.10120  0.31410  Biso   1.000  H
  H35      1.0000 0.74150  0.89380  0.77010  Biso   1.000  H
  H36      1.0000 0.25850  0.10620  0.22990  Biso   1.000  H
  C27      1.0000 0.85000  0.92450  0.60670  Biso   1.000  C
  C28      1.0000 0.15000  0.07550  0.39330  Biso   1.000  C
  H37      1.0000 0.82610  0.97780  0.55000  Biso   1.000  H
  H38      1.0000 0.17390  0.02220  0.45000  Biso   1.000  H
  H39      1.0000 0.92450  0.94460  0.63200  Biso   1.000  H
  H40      1.0000 0.07550  0.05540  0.36800  Biso   1.000  H
