data_image0
_cell_length_a       18.2915
_cell_length_b       10.642
_cell_length_c       11.5508
_cell_angle_alpha    90
_cell_angle_beta     129.16
_cell_angle_gamma    90

_symmetry_space_group_name_H-M    "P 1"
_symmetry_int_tables_number       1

loop_
  _symmetry_equiv_pos_as_xyz
  'x, y, z'

loop_
  _atom_site_label
  _atom_site_occupancy
  _atom_site_fract_x
  _atom_site_fract_y
  _atom_site_fract_z
  _atom_site_thermal_displace_type
  _atom_site_B_iso_or_equiv
  _atom_site_type_symbol
  Cu1      1.0000 0.00000  0.71814  0.25000  Biso   1.000  Cu
  Cu2      1.0000 0.50000  0.21814  0.25000  Biso   1.000  Cu
  Cu3      1.0000 0.00000  0.28186  0.75000  Biso   1.000  Cu
  Cu4      1.0000 0.50000  0.78186  0.75000  Biso   1.000  Cu
  Cu5      1.0000 0.04800  0.40744  0.11903  Biso   1.000  Cu
  Cu6      1.0000 0.54800  0.90744  0.11903  Biso   1.000  Cu
  Cu7      1.0000 0.95200  0.40744  0.38097  Biso   1.000  Cu
  Cu8      1.0000 0.45200  0.90744  0.38097  Biso   1.000  Cu
  Cu9      1.0000 0.95200  0.59256  0.88097  Biso   1.000  Cu
  Cu10     1.0000 0.45200  0.09256  0.88097  Biso   1.000  Cu
  Cu11     1.0000 0.04800  0.59256  0.61903  Biso   1.000  Cu
  Cu12     1.0000 0.54800  0.09256  0.61903  Biso   1.000  Cu
  S1       1.0000 0.05754  0.62602  0.14941  Biso   1.000  S
  S2       1.0000 0.55754  0.12602  0.14941  Biso   1.000  S
  S3       1.0000 0.94246  0.62602  0.35059  Biso   1.000  S
  S4       1.0000 0.44246  0.12602  0.35059  Biso   1.000  S
  S5       1.0000 0.94246  0.37398  0.85059  Biso   1.000  S
  S6       1.0000 0.44246  0.87398  0.85059  Biso   1.000  S
  S7       1.0000 0.05754  0.37398  0.64941  Biso   1.000  S
  S8       1.0000 0.55754  0.87398  0.64941  Biso   1.000  S
  S9       1.0000 0.00000  0.33735  0.25000  Biso   1.000  S
  S10      1.0000 0.50000  0.83735  0.25000  Biso   1.000  S
  S11      1.0000 0.00000  0.66265  0.75000  Biso   1.000  S
  S12      1.0000 0.50000  0.16265  0.75000  Biso   1.000  S
  N1       1.0000 0.33200  0.81870  0.31240  Biso   1.000  N
  N2       1.0000 0.83200  0.31870  0.31240  Biso   1.000  N
  N3       1.0000 0.66800  0.81870  0.18760  Biso   1.000  N
  N4       1.0000 0.16800  0.31870  0.18760  Biso   1.000  N
  N5       1.0000 0.66800  0.18130  0.68760  Biso   1.000  N
  N6       1.0000 0.16800  0.68130  0.68760  Biso   1.000  N
  N7       1.0000 0.33200  0.18130  0.81240  Biso   1.000  N
  N8       1.0000 0.83200  0.68130  0.81240  Biso   1.000  N
  N9       1.0000 0.00000  0.90680  0.25000  Biso   1.000  N
  N10      1.0000 0.50000  0.40680  0.25000  Biso   1.000  N
  N11      1.0000 0.00000  0.09320  0.75000  Biso   1.000  N
  N12      1.0000 0.50000  0.59320  0.75000  Biso   1.000  N
  C1       1.0000 0.29150  0.83950  0.37420  Biso   1.000  C
  C2       1.0000 0.79150  0.33950  0.37420  Biso   1.000  C
  C3       1.0000 0.70850  0.83950  0.12580  Biso   1.000  C
  C4       1.0000 0.20850  0.33950  0.12580  Biso   1.000  C
  C5       1.0000 0.70850  0.16050  0.62580  Biso   1.000  C
  C6       1.0000 0.20850  0.66050  0.62580  Biso   1.000  C
  C7       1.0000 0.29150  0.16050  0.87420  Biso   1.000  C
  C8       1.0000 0.79150  0.66050  0.87420  Biso   1.000  C
  H1       1.0000 0.32170  0.89420  0.45510  Biso   1.000  H
  H2       1.0000 0.82170  0.39420  0.45510  Biso   1.000  H
  H3       1.0000 0.67830  0.89420  0.04490  Biso   1.000  H
  H4       1.0000 0.17830  0.39420  0.04490  Biso   1.000  H
  H5       1.0000 0.67830  0.10580  0.54490  Biso   1.000  H
  H6       1.0000 0.17830  0.60580  0.54490  Biso   1.000  H
  H7       1.0000 0.32170  0.10580  0.95510  Biso   1.000  H
  H8       1.0000 0.82170  0.60580  0.95510  Biso   1.000  H
  C9       1.0000 0.20840  0.78600  0.32710  Biso   1.000  C
  C10      1.0000 0.70840  0.28600  0.32710  Biso   1.000  C
  C11      1.0000 0.79160  0.78600  0.17290  Biso   1.000  C
  C12      1.0000 0.29160  0.28600  0.17290  Biso   1.000  C
  C13      1.0000 0.79160  0.21400  0.67290  Biso   1.000  C
  C14      1.0000 0.29160  0.71400  0.67290  Biso   1.000  C
  C15      1.0000 0.20840  0.21400  0.82710  Biso   1.000  C
  C16      1.0000 0.70840  0.71400  0.82710  Biso   1.000  C
  H9       1.0000 0.18270  0.80710  0.37280  Biso   1.000  H
  H10      1.0000 0.68270  0.30710  0.37280  Biso   1.000  H
  H11      1.0000 0.81730  0.80710  0.12720  Biso   1.000  H
  H12      1.0000 0.31730  0.30710  0.12720  Biso   1.000  H
  H13      1.0000 0.81730  0.19290  0.62720  Biso   1.000  H
  H14      1.0000 0.31730  0.69290  0.62720  Biso   1.000  H
  H15      1.0000 0.18270  0.19290  0.87280  Biso   1.000  H
  H16      1.0000 0.68270  0.69290  0.87280  Biso   1.000  H
  C17      1.0000 0.16330  0.70010  0.21070  Biso   1.000  C
  C18      1.0000 0.66330  0.20010  0.21070  Biso   1.000  C
  C19      1.0000 0.83670  0.70010  0.28930  Biso   1.000  C
  C20      1.0000 0.33670  0.20010  0.28930  Biso   1.000  C
  C21      1.0000 0.83670  0.29990  0.78930  Biso   1.000  C
  C22      1.0000 0.33670  0.79990  0.78930  Biso   1.000  C
  C23      1.0000 0.16330  0.29990  0.71070  Biso   1.000  C
  C24      1.0000 0.66330  0.79990  0.71070  Biso   1.000  C
  C25      1.0000 0.20390  0.67620  0.14570  Biso   1.000  C
  C26      1.0000 0.70390  0.17620  0.14570  Biso   1.000  C
  C27      1.0000 0.79610  0.67620  0.35430  Biso   1.000  C
  C28      1.0000 0.29610  0.17620  0.35430  Biso   1.000  C
  C29      1.0000 0.79610  0.32380  0.85430  Biso   1.000  C
  C30      1.0000 0.29610  0.82380  0.85430  Biso   1.000  C
  C31      1.0000 0.20390  0.32380  0.64570  Biso   1.000  C
  C32      1.0000 0.70390  0.82380  0.64570  Biso   1.000  C
  H17      1.0000 0.17620  0.61920  0.06720  Biso   1.000  H
  H18      1.0000 0.67620  0.11920  0.06720  Biso   1.000  H
  H19      1.0000 0.82380  0.61920  0.43280  Biso   1.000  H
  H20      1.0000 0.32380  0.11920  0.43280  Biso   1.000  H
  H21      1.0000 0.82380  0.38080  0.93280  Biso   1.000  H
  H22      1.0000 0.32380  0.88080  0.93280  Biso   1.000  H
  H23      1.0000 0.17620  0.38080  0.56720  Biso   1.000  H
  H24      1.0000 0.67620  0.88080  0.56720  Biso   1.000  H
  C33      1.0000 0.28660  0.73750  0.19750  Biso   1.000  C
  C34      1.0000 0.78660  0.23750  0.19750  Biso   1.000  C
  C35      1.0000 0.71340  0.73750  0.30250  Biso   1.000  C
  C36      1.0000 0.21340  0.23750  0.30250  Biso   1.000  C
  C37      1.0000 0.71340  0.26250  0.80250  Biso   1.000  C
  C38      1.0000 0.21340  0.76250  0.80250  Biso   1.000  C
  C39      1.0000 0.28660  0.26250  0.69750  Biso   1.000  C
  C40      1.0000 0.78660  0.76250  0.69750  Biso   1.000  C
  H25      1.0000 0.31200  0.72140  0.15020  Biso   1.000  H
  H26      1.0000 0.81200  0.22140  0.15020  Biso   1.000  H
  H27      1.0000 0.68800  0.72140  0.34980  Biso   1.000  H
  H28      1.0000 0.18800  0.22140  0.34980  Biso   1.000  H
  H29      1.0000 0.68800  0.27860  0.84980  Biso   1.000  H
  H30      1.0000 0.18800  0.77860  0.84980  Biso   1.000  H
  H31      1.0000 0.31200  0.27860  0.65020  Biso   1.000  H
  H32      1.0000 0.81200  0.77860  0.65020  Biso   1.000  H
  C41      1.0000 0.02510  0.97380  0.36890  Biso   1.000  C
  C42      1.0000 0.52510  0.47380  0.36890  Biso   1.000  C
  C43      1.0000 0.97490  0.97380  0.13110  Biso   1.000  C
  C44      1.0000 0.47490  0.47380  0.13110  Biso   1.000  C
  C45      1.0000 0.97490  0.02620  0.63110  Biso   1.000  C
  C46      1.0000 0.47490  0.52620  0.63110  Biso   1.000  C
  C47      1.0000 0.02510  0.02620  0.86890  Biso   1.000  C
  C48      1.0000 0.52510  0.52620  0.86890  Biso   1.000  C
  H33      1.0000 0.04340  0.93070  0.45350  Biso   1.000  H
  H34      1.0000 0.54340  0.43070  0.45350  Biso   1.000  H
  H35      1.0000 0.95660  0.93070  0.04650  Biso   1.000  H
  H36      1.0000 0.45660  0.43070  0.04650  Biso   1.000  H
  H37      1.0000 0.95660  0.06930  0.54650  Biso   1.000  H
  H38      1.0000 0.45660  0.56930  0.54650  Biso   1.000  H
  H39      1.0000 0.04340  0.06930  0.95350  Biso   1.000  H
  H40      1.0000 0.54340  0.56930  0.95350  Biso   1.000  H
  C49      1.0000 0.02520  0.10350  0.37150  Biso   1.000  C
  C50      1.0000 0.52520  0.60350  0.37150  Biso   1.000  C
  C51      1.0000 0.97480  0.10350  0.12850  Biso   1.000  C
  C52      1.0000 0.47480  0.60350  0.12850  Biso   1.000  C
  C53      1.0000 0.97480  0.89650  0.62850  Biso   1.000  C
  C54      1.0000 0.47480  0.39650  0.62850  Biso   1.000  C
  C55      1.0000 0.02520  0.89650  0.87150  Biso   1.000  C
  C56      1.0000 0.52520  0.39650  0.87150  Biso   1.000  C
  H41      1.0000 0.04240  0.14490  0.45640  Biso   1.000  H
  H42      1.0000 0.54240  0.64490  0.45640  Biso   1.000  H
  H43      1.0000 0.95760  0.14490  0.04360  Biso   1.000  H
  H44      1.0000 0.45760  0.64490  0.04360  Biso   1.000  H
  H45      1.0000 0.95760  0.85510  0.54360  Biso   1.000  H
  H46      1.0000 0.45760  0.35510  0.54360  Biso   1.000  H
  H47      1.0000 0.04240  0.85510  0.95640  Biso   1.000  H
  H48      1.0000 0.54240  0.35510  0.95640  Biso   1.000  H
  C57      1.0000 0.00000  0.17280  0.25000  Biso   1.000  C
  C58      1.0000 0.50000  0.67280  0.25000  Biso   1.000  C
  C59      1.0000 0.00000  0.82720  0.75000  Biso   1.000  C
  C60      1.0000 0.50000  0.32720  0.75000  Biso   1.000  C
