data_image0
_cell_length_a       13.845
_cell_length_b       9.3918
_cell_length_c       31.851
_cell_angle_alpha    90
_cell_angle_beta     90
_cell_angle_gamma    90

_symmetry_space_group_name_H-M    "P 1"
_symmetry_int_tables_number       1

loop_
  _symmetry_equiv_pos_as_xyz
  'x, y, z'

loop_
  _atom_site_label
  _atom_site_occupancy
  _atom_site_fract_x
  _atom_site_fract_y
  _atom_site_fract_z
  _atom_site_thermal_displace_type
  _atom_site_B_iso_or_equiv
  _atom_site_type_symbol
  Cu1      1.0000 0.19754  0.11877  0.28942  Biso   1.000  Cu
  Cu2      1.0000 0.30246  0.38123  0.78942  Biso   1.000  Cu
  Cu3      1.0000 0.80246  0.11877  0.21058  Biso   1.000  Cu
  Cu4      1.0000 0.69754  0.38123  0.71058  Biso   1.000  Cu
  Cu5      1.0000 0.80246  0.88123  0.71058  Biso   1.000  Cu
  Cu6      1.0000 0.69754  0.61877  0.21058  Biso   1.000  Cu
  Cu7      1.0000 0.19754  0.88123  0.78942  Biso   1.000  Cu
  Cu8      1.0000 0.30246  0.61877  0.28942  Biso   1.000  Cu
  Cu9      1.0000 0.12738  0.65268  0.30433  Biso   1.000  Cu
  Cu10     1.0000 0.37262  0.84732  0.80433  Biso   1.000  Cu
  Cu11     1.0000 0.87262  0.65268  0.19567  Biso   1.000  Cu
  Cu12     1.0000 0.62738  0.84732  0.69567  Biso   1.000  Cu
  Cu13     1.0000 0.87262  0.34732  0.69567  Biso   1.000  Cu
  Cu14     1.0000 0.62738  0.15268  0.19567  Biso   1.000  Cu
  Cu15     1.0000 0.12738  0.34732  0.80433  Biso   1.000  Cu
  Cu16     1.0000 0.37262  0.15268  0.30433  Biso   1.000  Cu
  Cu17     1.0000 0.43117  0.89439  0.43497  Biso   1.000  Cu
  Cu18     1.0000 0.06883  0.60561  0.93497  Biso   1.000  Cu
  Cu19     1.0000 0.56883  0.89439  0.06503  Biso   1.000  Cu
  Cu20     1.0000 0.93117  0.60561  0.56503  Biso   1.000  Cu
  Cu21     1.0000 0.56883  0.10561  0.56503  Biso   1.000  Cu
  Cu22     1.0000 0.93117  0.39439  0.06503  Biso   1.000  Cu
  Cu23     1.0000 0.43117  0.10561  0.93497  Biso   1.000  Cu
  Cu24     1.0000 0.06883  0.39439  0.43497  Biso   1.000  Cu
  Cu25     1.0000 0.28621  0.03563  0.47160  Biso   1.000  Cu
  Cu26     1.0000 0.21379  0.46437  0.97160  Biso   1.000  Cu
  Cu27     1.0000 0.71379  0.03563  0.02840  Biso   1.000  Cu
  Cu28     1.0000 0.78621  0.46437  0.52840  Biso   1.000  Cu
  Cu29     1.0000 0.71379  0.96437  0.52840  Biso   1.000  Cu
  Cu30     1.0000 0.78621  0.53563  0.02840  Biso   1.000  Cu
  Cu31     1.0000 0.28621  0.96437  0.97160  Biso   1.000  Cu
  Cu32     1.0000 0.21379  0.53563  0.47160  Biso   1.000  Cu
  N1       1.0000 0.26200  0.29930  0.28886  Biso   1.000  N
  N2       1.0000 0.23800  0.20070  0.78886  Biso   1.000  N
  N3       1.0000 0.73800  0.29930  0.21114  Biso   1.000  N
  N4       1.0000 0.76200  0.20070  0.71114  Biso   1.000  N
  N5       1.0000 0.73800  0.70070  0.71114  Biso   1.000  N
  N6       1.0000 0.76200  0.79930  0.21114  Biso   1.000  N
  N7       1.0000 0.26200  0.70070  0.78886  Biso   1.000  N
  N8       1.0000 0.23800  0.79930  0.28886  Biso   1.000  N
  N9       1.0000 0.22500  0.92050  0.28727  Biso   1.000  N
  N10      1.0000 0.27500  0.57950  0.78727  Biso   1.000  N
  N11      1.0000 0.77500  0.92050  0.21273  Biso   1.000  N
  N12      1.0000 0.72500  0.57950  0.71273  Biso   1.000  N
  N13      1.0000 0.77500  0.07950  0.71273  Biso   1.000  N
  N14      1.0000 0.72500  0.42050  0.21273  Biso   1.000  N
  N15      1.0000 0.22500  0.07950  0.78727  Biso   1.000  N
  N16      1.0000 0.27500  0.42050  0.28727  Biso   1.000  N
  N17      1.0000 0.02970  0.65410  0.26265  Biso   1.000  N
  N18      1.0000 0.47030  0.84590  0.76265  Biso   1.000  N
  N19      1.0000 0.97030  0.65410  0.23735  Biso   1.000  N
  N20      1.0000 0.52970  0.84590  0.73735  Biso   1.000  N
  N21      1.0000 0.97030  0.34590  0.73735  Biso   1.000  N
  N22      1.0000 0.52970  0.15410  0.23735  Biso   1.000  N
  N23      1.0000 0.02970  0.34590  0.76265  Biso   1.000  N
  N24      1.0000 0.47030  0.15410  0.26265  Biso   1.000  N
  N25      1.0000 0.12100  0.57910  0.35975  Biso   1.000  N
  N26      1.0000 0.37900  0.92090  0.85975  Biso   1.000  N
  N27      1.0000 0.87900  0.57910  0.14025  Biso   1.000  N
  N28      1.0000 0.62100  0.92090  0.64025  Biso   1.000  N
  N29      1.0000 0.87900  0.42090  0.64025  Biso   1.000  N
  N30      1.0000 0.62100  0.07910  0.14025  Biso   1.000  N
  N31      1.0000 0.12100  0.42090  0.85975  Biso   1.000  N
  N32      1.0000 0.37900  0.07910  0.35975  Biso   1.000  N
  N33      1.0000 0.48500  0.97150  0.48511  Biso   1.000  N
  N34      1.0000 0.01500  0.52850  0.98511  Biso   1.000  N
  N35      1.0000 0.51500  0.97150  0.01489  Biso   1.000  N
  N36      1.0000 0.98500  0.52850  0.51489  Biso   1.000  N
  N37      1.0000 0.51500  0.02850  0.51489  Biso   1.000  N
  N38      1.0000 0.98500  0.47150  0.01489  Biso   1.000  N
  N39      1.0000 0.48500  0.02850  0.98511  Biso   1.000  N
  N40      1.0000 0.01500  0.47150  0.48511  Biso   1.000  N
  N41      1.0000 0.39010  0.01020  0.38921  Biso   1.000  N
  N42      1.0000 0.10990  0.48980  0.88921  Biso   1.000  N
  N43      1.0000 0.60990  0.01020  0.11079  Biso   1.000  N
  N44      1.0000 0.89010  0.48980  0.61079  Biso   1.000  N
  N45      1.0000 0.60990  0.98980  0.61079  Biso   1.000  N
  N46      1.0000 0.89010  0.51020  0.11079  Biso   1.000  N
  N47      1.0000 0.39010  0.98980  0.88921  Biso   1.000  N
  N48      1.0000 0.10990  0.51020  0.38921  Biso   1.000  N
  N49      1.0000 0.27890  0.23100  0.47578  Biso   1.000  N
  N50      1.0000 0.22110  0.26900  0.97578  Biso   1.000  N
  N51      1.0000 0.72110  0.23100  0.02422  Biso   1.000  N
  N52      1.0000 0.77890  0.26900  0.52422  Biso   1.000  N
  N53      1.0000 0.72110  0.76900  0.52422  Biso   1.000  N
  N54      1.0000 0.77890  0.73100  0.02422  Biso   1.000  N
  N55      1.0000 0.27890  0.76900  0.97578  Biso   1.000  N
  N56      1.0000 0.22110  0.73100  0.47578  Biso   1.000  N
  N57      1.0000 0.24500  0.84840  0.47564  Biso   1.000  N
  N58      1.0000 0.25500  0.65160  0.97564  Biso   1.000  N
  N59      1.0000 0.75500  0.84840  0.02436  Biso   1.000  N
  N60      1.0000 0.74500  0.65160  0.52436  Biso   1.000  N
  N61      1.0000 0.75500  0.15160  0.52436  Biso   1.000  N
  N62      1.0000 0.74500  0.34840  0.02436  Biso   1.000  N
  N63      1.0000 0.24500  0.15160  0.97564  Biso   1.000  N
  N64      1.0000 0.25500  0.34840  0.47564  Biso   1.000  N
  N65      1.0000 0.05800  0.15120  0.29722  Biso   1.000  N
  N66      1.0000 0.44200  0.34880  0.79722  Biso   1.000  N
  N67      1.0000 0.94200  0.15120  0.20278  Biso   1.000  N
  N68      1.0000 0.55800  0.34880  0.70278  Biso   1.000  N
  N69      1.0000 0.94200  0.84880  0.70278  Biso   1.000  N
  N70      1.0000 0.55800  0.65120  0.20278  Biso   1.000  N
  N71      1.0000 0.05800  0.84880  0.79722  Biso   1.000  N
  N72      1.0000 0.44200  0.65120  0.29722  Biso   1.000  N
  N73      1.0000 0.92380  0.26670  0.31058  Biso   1.000  N
  N74      1.0000 0.57620  0.23330  0.81058  Biso   1.000  N
  N75      1.0000 0.07620  0.26670  0.18942  Biso   1.000  N
  N76      1.0000 0.42380  0.23330  0.68942  Biso   1.000  N
  N77      1.0000 0.07620  0.73330  0.68942  Biso   1.000  N
  N78      1.0000 0.42380  0.76670  0.18942  Biso   1.000  N
  N79      1.0000 0.92380  0.73330  0.81058  Biso   1.000  N
  N80      1.0000 0.57620  0.76670  0.31058  Biso   1.000  N
  N81      1.0000 0.48890  0.46140  0.42988  Biso   1.000  N
  N82      1.0000 0.01110  0.03860  0.92988  Biso   1.000  N
  N83      1.0000 0.51110  0.46140  0.07012  Biso   1.000  N
  N84      1.0000 0.98890  0.03860  0.57012  Biso   1.000  N
  N85      1.0000 0.51110  0.53860  0.57012  Biso   1.000  N
  N86      1.0000 0.98890  0.96140  0.07012  Biso   1.000  N
  N87      1.0000 0.48890  0.53860  0.92988  Biso   1.000  N
  N88      1.0000 0.01110  0.96140  0.42988  Biso   1.000  N
  N89      1.0000 0.44360  0.68560  0.42596  Biso   1.000  N
  N90      1.0000 0.05640  0.81440  0.92596  Biso   1.000  N
  N91      1.0000 0.55640  0.68560  0.07404  Biso   1.000  N
  N92      1.0000 0.94360  0.81440  0.57404  Biso   1.000  N
  N93      1.0000 0.55640  0.31440  0.57404  Biso   1.000  N
  N94      1.0000 0.94360  0.18560  0.07404  Biso   1.000  N
  N95      1.0000 0.44360  0.31440  0.92596  Biso   1.000  N
  N96      1.0000 0.05640  0.18560  0.42596  Biso   1.000  N
  C1       1.0000 0.98500  0.05400  0.30316  Biso   1.000  C
  C2       1.0000 0.51500  0.44600  0.80316  Biso   1.000  C
  C3       1.0000 0.01500  0.05400  0.19684  Biso   1.000  C
  C4       1.0000 0.48500  0.44600  0.69684  Biso   1.000  C
  C5       1.0000 0.01500  0.94600  0.69684  Biso   1.000  C
  C6       1.0000 0.48500  0.55400  0.19684  Biso   1.000  C
  C7       1.0000 0.98500  0.94600  0.80316  Biso   1.000  C
  C8       1.0000 0.51500  0.55400  0.30316  Biso   1.000  C
  H1       1.0000 0.99600  0.95800  0.30060  Biso   1.000  H
  H2       1.0000 0.50400  0.54200  0.80060  Biso   1.000  H
  H3       1.0000 0.00400  0.95800  0.19940  Biso   1.000  H
  H4       1.0000 0.49600  0.54200  0.69940  Biso   1.000  H
  H5       1.0000 0.00400  0.04200  0.69940  Biso   1.000  H
  H6       1.0000 0.49600  0.45800  0.19940  Biso   1.000  H
  H7       1.0000 0.99600  0.04200  0.80060  Biso   1.000  H
  H8       1.0000 0.50400  0.45800  0.30060  Biso   1.000  H
  C9       1.0000 0.90130  0.12420  0.31123  Biso   1.000  C
  C10      1.0000 0.59870  0.37580  0.81123  Biso   1.000  C
  C11      1.0000 0.09870  0.12420  0.18877  Biso   1.000  C
  C12      1.0000 0.40130  0.37580  0.68877  Biso   1.000  C
  C13      1.0000 0.09870  0.87580  0.68877  Biso   1.000  C
  C14      1.0000 0.40130  0.62420  0.18877  Biso   1.000  C
  C15      1.0000 0.90130  0.87580  0.81123  Biso   1.000  C
  C16      1.0000 0.59870  0.62420  0.31123  Biso   1.000  C
  H9       1.0000 0.84000  0.09400  0.31600  Biso   1.000  H
  H10      1.0000 0.66000  0.40600  0.81600  Biso   1.000  H
  H11      1.0000 0.16000  0.09400  0.18400  Biso   1.000  H
  H12      1.0000 0.34000  0.40600  0.68400  Biso   1.000  H
  H13      1.0000 0.16000  0.90600  0.68400  Biso   1.000  H
  H14      1.0000 0.34000  0.59400  0.18400  Biso   1.000  H
  H15      1.0000 0.84000  0.90600  0.81600  Biso   1.000  H
  H16      1.0000 0.66000  0.59400  0.31600  Biso   1.000  H
  C17      1.0000 0.01800  0.27760  0.30212  Biso   1.000  C
  C18      1.0000 0.48200  0.22240  0.80212  Biso   1.000  C
  C19      1.0000 0.98200  0.27760  0.19788  Biso   1.000  C
  C20      1.0000 0.51800  0.22240  0.69788  Biso   1.000  C
  C21      1.0000 0.98200  0.72240  0.69788  Biso   1.000  C
  C22      1.0000 0.51800  0.77760  0.19788  Biso   1.000  C
  C23      1.0000 0.01800  0.72240  0.80212  Biso   1.000  C
  C24      1.0000 0.48200  0.77760  0.30212  Biso   1.000  C
  H17      1.0000 0.05100  0.36600  0.29940  Biso   1.000  H
  H18      1.0000 0.44900  0.13400  0.79940  Biso   1.000  H
  H19      1.0000 0.94900  0.36600  0.20060  Biso   1.000  H
  H20      1.0000 0.55100  0.13400  0.70060  Biso   1.000  H
  H21      1.0000 0.94900  0.63400  0.70060  Biso   1.000  H
  H22      1.0000 0.55100  0.86600  0.20060  Biso   1.000  H
  H23      1.0000 0.05100  0.63400  0.79940  Biso   1.000  H
  H24      1.0000 0.44900  0.86600  0.29940  Biso   1.000  H
  C25      1.0000 0.85710  0.38760  0.31418  Biso   1.000  C
  C26      1.0000 0.64290  0.11240  0.81418  Biso   1.000  C
  C27      1.0000 0.14290  0.38760  0.18582  Biso   1.000  C
  C28      1.0000 0.35710  0.11240  0.68582  Biso   1.000  C
  C29      1.0000 0.14290  0.61240  0.68582  Biso   1.000  C
  C30      1.0000 0.35710  0.88760  0.18582  Biso   1.000  C
  C31      1.0000 0.85710  0.61240  0.81418  Biso   1.000  C
  C32      1.0000 0.64290  0.88760  0.31418  Biso   1.000  C
  H25      1.0000 0.89300  0.46800  0.31960  Biso   1.000  H
  H26      1.0000 0.60700  0.03200  0.81960  Biso   1.000  H
  H27      1.0000 0.10700  0.46800  0.18040  Biso   1.000  H
  H28      1.0000 0.39300  0.03200  0.68040  Biso   1.000  H
  H29      1.0000 0.10700  0.53200  0.68040  Biso   1.000  H
  H30      1.0000 0.39300  0.96800  0.18040  Biso   1.000  H
  H31      1.0000 0.89300  0.53200  0.81960  Biso   1.000  H
  H32      1.0000 0.60700  0.96800  0.31960  Biso   1.000  H
  H33      1.0000 0.82600  0.40200  0.28580  Biso   1.000  H
  H34      1.0000 0.67400  0.09800  0.78580  Biso   1.000  H
  H35      1.0000 0.17400  0.40200  0.21420  Biso   1.000  H
  H36      1.0000 0.32600  0.09800  0.71420  Biso   1.000  H
  H37      1.0000 0.17400  0.59800  0.71420  Biso   1.000  H
  H38      1.0000 0.32600  0.90200  0.21420  Biso   1.000  H
  H39      1.0000 0.82600  0.59800  0.78580  Biso   1.000  H
  H40      1.0000 0.67400  0.90200  0.28580  Biso   1.000  H
  C33      1.0000 0.78020  0.36440  0.34707  Biso   1.000  C
  C34      1.0000 0.71980  0.13560  0.84707  Biso   1.000  C
  C35      1.0000 0.21980  0.36440  0.15293  Biso   1.000  C
  C36      1.0000 0.28020  0.13560  0.65293  Biso   1.000  C
  C37      1.0000 0.21980  0.63560  0.65293  Biso   1.000  C
  C38      1.0000 0.28020  0.86440  0.15293  Biso   1.000  C
  C39      1.0000 0.78020  0.63560  0.84707  Biso   1.000  C
  C40      1.0000 0.71980  0.86440  0.34707  Biso   1.000  C
  C41      1.0000 0.69350  0.29890  0.33678  Biso   1.000  C
  C42      1.0000 0.80650  0.20110  0.83678  Biso   1.000  C
  C43      1.0000 0.30650  0.29890  0.16322  Biso   1.000  C
  C44      1.0000 0.19350  0.20110  0.66322  Biso   1.000  C
  C45      1.0000 0.30650  0.70110  0.66322  Biso   1.000  C
  C46      1.0000 0.19350  0.79890  0.16322  Biso   1.000  C
  C47      1.0000 0.69350  0.70110  0.83678  Biso   1.000  C
  C48      1.0000 0.80650  0.79890  0.33678  Biso   1.000  C
  H41      1.0000 0.68500  0.26700  0.30970  Biso   1.000  H
  H42      1.0000 0.81500  0.23300  0.80970  Biso   1.000  H
  H43      1.0000 0.31500  0.26700  0.19030  Biso   1.000  H
  H44      1.0000 0.18500  0.23300  0.69030  Biso   1.000  H
  H45      1.0000 0.31500  0.73300  0.69030  Biso   1.000  H
  H46      1.0000 0.18500  0.76700  0.19030  Biso   1.000  H
  H47      1.0000 0.68500  0.73300  0.80970  Biso   1.000  H
  H48      1.0000 0.81500  0.76700  0.30970  Biso   1.000  H
  C49      1.0000 0.62120  0.28430  0.36654  Biso   1.000  C
  C50      1.0000 0.87880  0.21570  0.86654  Biso   1.000  C
  C51      1.0000 0.37880  0.28430  0.13346  Biso   1.000  C
  C52      1.0000 0.12120  0.21570  0.63346  Biso   1.000  C
  C53      1.0000 0.37880  0.71570  0.63346  Biso   1.000  C
  C54      1.0000 0.12120  0.78430  0.13346  Biso   1.000  C
  C55      1.0000 0.62120  0.71570  0.86654  Biso   1.000  C
  C56      1.0000 0.87880  0.78430  0.36654  Biso   1.000  C
  H49      1.0000 0.56200  0.24300  0.35920  Biso   1.000  H
  H50      1.0000 0.93800  0.25700  0.85920  Biso   1.000  H
  H51      1.0000 0.43800  0.24300  0.14080  Biso   1.000  H
  H52      1.0000 0.06200  0.25700  0.64080  Biso   1.000  H
  H53      1.0000 0.43800  0.75700  0.64080  Biso   1.000  H
  H54      1.0000 0.06200  0.74300  0.14080  Biso   1.000  H
  H55      1.0000 0.56200  0.75700  0.85920  Biso   1.000  H
  H56      1.0000 0.93800  0.74300  0.35920  Biso   1.000  H
  C57      1.0000 0.63400  0.33570  0.40665  Biso   1.000  C
  C58      1.0000 0.86600  0.16430  0.90665  Biso   1.000  C
  C59      1.0000 0.36600  0.33570  0.09335  Biso   1.000  C
  C60      1.0000 0.13400  0.16430  0.59335  Biso   1.000  C
  C61      1.0000 0.36600  0.66430  0.59335  Biso   1.000  C
  C62      1.0000 0.13400  0.83570  0.09335  Biso   1.000  C
  C63      1.0000 0.63400  0.66430  0.90665  Biso   1.000  C
  C64      1.0000 0.86600  0.83570  0.40665  Biso   1.000  C
  C65      1.0000 0.72120  0.39790  0.41730  Biso   1.000  C
  C66      1.0000 0.77880  0.10210  0.91730  Biso   1.000  C
  C67      1.0000 0.27880  0.39790  0.08270  Biso   1.000  C
  C68      1.0000 0.22120  0.10210  0.58270  Biso   1.000  C
  C69      1.0000 0.27880  0.60210  0.58270  Biso   1.000  C
  C70      1.0000 0.22120  0.89790  0.08270  Biso   1.000  C
  C71      1.0000 0.72120  0.60210  0.91730  Biso   1.000  C
  C72      1.0000 0.77880  0.89790  0.41730  Biso   1.000  C
  H57      1.0000 0.73200  0.43700  0.44390  Biso   1.000  H
  H58      1.0000 0.76800  0.06300  0.94390  Biso   1.000  H
  H59      1.0000 0.26800  0.43700  0.05610  Biso   1.000  H
  H60      1.0000 0.23200  0.06300  0.55610  Biso   1.000  H
  H61      1.0000 0.26800  0.56300  0.55610  Biso   1.000  H
  H62      1.0000 0.23200  0.93700  0.05610  Biso   1.000  H
  H63      1.0000 0.73200  0.56300  0.94390  Biso   1.000  H
  H64      1.0000 0.76800  0.93700  0.44390  Biso   1.000  H
  C73      1.0000 0.79480  0.41100  0.38780  Biso   1.000  C
  C74      1.0000 0.70520  0.08900  0.88780  Biso   1.000  C
  C75      1.0000 0.20520  0.41100  0.11220  Biso   1.000  C
  C76      1.0000 0.29480  0.08900  0.61220  Biso   1.000  C
  C77      1.0000 0.20520  0.58900  0.61220  Biso   1.000  C
  C78      1.0000 0.29480  0.91100  0.11220  Biso   1.000  C
  C79      1.0000 0.79480  0.58900  0.88780  Biso   1.000  C
  C80      1.0000 0.70520  0.91100  0.38780  Biso   1.000  C
  H65      1.0000 0.85100  0.45500  0.39530  Biso   1.000  H
  H66      1.0000 0.64900  0.04500  0.89530  Biso   1.000  H
  H67      1.0000 0.14900  0.45500  0.10470  Biso   1.000  H
  H68      1.0000 0.35100  0.04500  0.60470  Biso   1.000  H
  H69      1.0000 0.14900  0.54500  0.60470  Biso   1.000  H
  H70      1.0000 0.35100  0.95500  0.10470  Biso   1.000  H
  H71      1.0000 0.85100  0.54500  0.89530  Biso   1.000  H
  H72      1.0000 0.64900  0.95500  0.39530  Biso   1.000  H
  C81      1.0000 0.55120  0.33660  0.43769  Biso   1.000  C
  C82      1.0000 0.94880  0.16340  0.93769  Biso   1.000  C
  C83      1.0000 0.44880  0.33660  0.06231  Biso   1.000  C
  C84      1.0000 0.05120  0.16340  0.56231  Biso   1.000  C
  C85      1.0000 0.44880  0.66340  0.56231  Biso   1.000  C
  C86      1.0000 0.05120  0.83660  0.06231  Biso   1.000  C
  C87      1.0000 0.55120  0.66340  0.93769  Biso   1.000  C
  C88      1.0000 0.94880  0.83660  0.43769  Biso   1.000  C
  H73      1.0000 0.57600  0.35100  0.46480  Biso   1.000  H
  H74      1.0000 0.92400  0.14900  0.96480  Biso   1.000  H
  H75      1.0000 0.42400  0.35100  0.03520  Biso   1.000  H
  H76      1.0000 0.07600  0.14900  0.53520  Biso   1.000  H
  H77      1.0000 0.42400  0.64900  0.53520  Biso   1.000  H
  H78      1.0000 0.07600  0.85100  0.03520  Biso   1.000  H
  H79      1.0000 0.57600  0.64900  0.96480  Biso   1.000  H
  H80      1.0000 0.92400  0.85100  0.46480  Biso   1.000  H
  H81      1.0000 0.51000  0.25600  0.43440  Biso   1.000  H
  H82      1.0000 0.99000  0.24400  0.93440  Biso   1.000  H
  H83      1.0000 0.49000  0.25600  0.06560  Biso   1.000  H
  H84      1.0000 0.01000  0.24400  0.56560  Biso   1.000  H
  H85      1.0000 0.49000  0.74400  0.56560  Biso   1.000  H
  H86      1.0000 0.01000  0.75600  0.06560  Biso   1.000  H
  H87      1.0000 0.51000  0.74400  0.93440  Biso   1.000  H
  H88      1.0000 0.99000  0.75600  0.43440  Biso   1.000  H
  C89      1.0000 0.41130  0.46570  0.40321  Biso   1.000  C
  C90      1.0000 0.08870  0.03430  0.90321  Biso   1.000  C
  C91      1.0000 0.58870  0.46570  0.09679  Biso   1.000  C
  C92      1.0000 0.91130  0.03430  0.59679  Biso   1.000  C
  C93      1.0000 0.58870  0.53430  0.59679  Biso   1.000  C
  C94      1.0000 0.91130  0.96570  0.09679  Biso   1.000  C
  C95      1.0000 0.41130  0.53430  0.90321  Biso   1.000  C
  C96      1.0000 0.08870  0.96570  0.40321  Biso   1.000  C
  H89      1.0000 0.38800  0.37800  0.39080  Biso   1.000  H
  H90      1.0000 0.11200  0.12200  0.89080  Biso   1.000  H
  H91      1.0000 0.61200  0.37800  0.10920  Biso   1.000  H
  H92      1.0000 0.88800  0.12200  0.60920  Biso   1.000  H
  H93      1.0000 0.61200  0.62200  0.60920  Biso   1.000  H
  H94      1.0000 0.88800  0.87800  0.10920  Biso   1.000  H
  H95      1.0000 0.38800  0.62200  0.89080  Biso   1.000  H
  H96      1.0000 0.11200  0.87800  0.39080  Biso   1.000  H
  C97      1.0000 0.38350  0.60350  0.40122  Biso   1.000  C
  C98      1.0000 0.11650  0.89650  0.90122  Biso   1.000  C
  C99      1.0000 0.61650  0.60350  0.09878  Biso   1.000  C
  C100     1.0000 0.88350  0.89650  0.59878  Biso   1.000  C
  C101     1.0000 0.61650  0.39650  0.59878  Biso   1.000  C
  C102     1.0000 0.88350  0.10350  0.09878  Biso   1.000  C
  C103     1.0000 0.38350  0.39650  0.90122  Biso   1.000  C
  C104     1.0000 0.11650  0.10350  0.40122  Biso   1.000  C
  H97      1.0000 0.33000  0.64500  0.38680  Biso   1.000  H
  H98      1.0000 0.17000  0.85500  0.88680  Biso   1.000  H
  H99      1.0000 0.67000  0.64500  0.11320  Biso   1.000  H
  H100     1.0000 0.83000  0.85500  0.61320  Biso   1.000  H
  H101     1.0000 0.67000  0.35500  0.61320  Biso   1.000  H
  H102     1.0000 0.83000  0.14500  0.11320  Biso   1.000  H
  H103     1.0000 0.33000  0.35500  0.88680  Biso   1.000  H
  H104     1.0000 0.17000  0.14500  0.38680  Biso   1.000  H
  C105     1.0000 0.50590  0.59630  0.44253  Biso   1.000  C
  C106     1.0000 0.99410  0.90370  0.94253  Biso   1.000  C
  C107     1.0000 0.49410  0.59630  0.05747  Biso   1.000  C
  C108     1.0000 0.00590  0.90370  0.55747  Biso   1.000  C
  C109     1.0000 0.49410  0.40370  0.55747  Biso   1.000  C
  C110     1.0000 0.00590  0.09630  0.05747  Biso   1.000  C
  C111     1.0000 0.50590  0.40370  0.94253  Biso   1.000  C
  C112     1.0000 0.99410  0.09630  0.44253  Biso   1.000  C
  H105     1.0000 0.55100  0.62000  0.46010  Biso   1.000  H
  H106     1.0000 0.94900  0.88000  0.96010  Biso   1.000  H
  H107     1.0000 0.44900  0.62000  0.03990  Biso   1.000  H
  H108     1.0000 0.05100  0.88000  0.53990  Biso   1.000  H
  H109     1.0000 0.44900  0.38000  0.53990  Biso   1.000  H
  H110     1.0000 0.05100  0.12000  0.03990  Biso   1.000  H
  H111     1.0000 0.55100  0.38000  0.96010  Biso   1.000  H
  H112     1.0000 0.94900  0.12000  0.46010  Biso   1.000  H
