data_image0
_cell_length_a       8.2467
_cell_length_b       18.4854
_cell_length_c       9.5439
_cell_angle_alpha    90
_cell_angle_beta     111.889
_cell_angle_gamma    90

_symmetry_space_group_name_H-M    "P 1"
_symmetry_int_tables_number       1

loop_
  _symmetry_equiv_pos_as_xyz
  'x, y, z'

loop_
  _atom_site_label
  _atom_site_occupancy
  _atom_site_fract_x
  _atom_site_fract_y
  _atom_site_fract_z
  _atom_site_thermal_displace_type
  _atom_site_B_iso_or_equiv
  _atom_site_type_symbol
  C1       1.0000 0.03970  0.09032  0.37510  Biso   1.000  C
  C2       1.0000 0.96030  0.59032  0.12490  Biso   1.000  C
  C3       1.0000 0.96030  0.90968  0.62490  Biso   1.000  C
  C4       1.0000 0.03970  0.40968  0.87510  Biso   1.000  C
  H1       1.0000 0.14590  0.10210  0.36300  Biso   1.000  H
  H2       1.0000 0.85410  0.60210  0.13700  Biso   1.000  H
  H3       1.0000 0.85410  0.89790  0.63700  Biso   1.000  H
  H4       1.0000 0.14590  0.39790  0.86300  Biso   1.000  H
  C5       1.0000 0.03100  0.09979  0.51660  Biso   1.000  C
  C6       1.0000 0.96900  0.59979  0.98340  Biso   1.000  C
  C7       1.0000 0.96900  0.90021  0.48340  Biso   1.000  C
  C8       1.0000 0.03100  0.40021  0.01660  Biso   1.000  C
  C9       1.0000 0.87570  0.08393  0.53290  Biso   1.000  C
  C10      1.0000 0.12430  0.58393  0.96710  Biso   1.000  C
  C11      1.0000 0.12430  0.91607  0.46710  Biso   1.000  C
  C12      1.0000 0.87570  0.41607  0.03290  Biso   1.000  C
  H5       1.0000 0.86510  0.08950  0.62810  Biso   1.000  H
  H6       1.0000 0.13490  0.58950  0.87190  Biso   1.000  H
  H7       1.0000 0.13490  0.91050  0.37190  Biso   1.000  H
  H8       1.0000 0.86510  0.41050  0.12810  Biso   1.000  H
  C13      1.0000 0.73510  0.05969  0.40890  Biso   1.000  C
  C14      1.0000 0.26490  0.55969  0.09110  Biso   1.000  C
  C15      1.0000 0.26490  0.94031  0.59110  Biso   1.000  C
  C16      1.0000 0.73510  0.44031  0.90890  Biso   1.000  C
  H9       1.0000 0.62620  0.04940  0.41720  Biso   1.000  H
  H10      1.0000 0.37380  0.54940  0.08280  Biso   1.000  H
  H11      1.0000 0.37380  0.95060  0.58280  Biso   1.000  H
  H12      1.0000 0.62620  0.45060  0.91720  Biso   1.000  H
  C17      1.0000 0.75650  0.05081  0.27240  Biso   1.000  C
  C18      1.0000 0.24350  0.55081  0.22760  Biso   1.000  C
  C19      1.0000 0.24350  0.94919  0.72760  Biso   1.000  C
  C20      1.0000 0.75650  0.44919  0.77240  Biso   1.000  C
  H13      1.0000 0.66030  0.03360  0.18810  Biso   1.000  H
  H14      1.0000 0.33970  0.53360  0.31190  Biso   1.000  H
  H15      1.0000 0.33970  0.96640  0.81190  Biso   1.000  H
  H16      1.0000 0.66030  0.46640  0.68810  Biso   1.000  H
  C21      1.0000 0.18940  0.12630  0.64740  Biso   1.000  C
  C22      1.0000 0.81060  0.62630  0.85260  Biso   1.000  C
  C23      1.0000 0.81060  0.87370  0.35260  Biso   1.000  C
  C24      1.0000 0.18940  0.37370  0.14740  Biso   1.000  C
  H17      1.0000 0.18980  0.10550  0.74310  Biso   1.000  H
  H18      1.0000 0.81020  0.60550  0.75690  Biso   1.000  H
  H19      1.0000 0.81020  0.89450  0.25690  Biso   1.000  H
  H20      1.0000 0.18980  0.39450  0.24310  Biso   1.000  H
  H21      1.0000 0.29750  0.11070  0.63380  Biso   1.000  H
  H22      1.0000 0.70250  0.61070  0.86620  Biso   1.000  H
  H23      1.0000 0.70250  0.88930  0.36620  Biso   1.000  H
  H24      1.0000 0.29750  0.38930  0.13380  Biso   1.000  H
  C25      1.0000 0.36080  0.23871  0.83500  Biso   1.000  C
  C26      1.0000 0.63920  0.73871  0.66500  Biso   1.000  C
  C27      1.0000 0.63920  0.76129  0.16500  Biso   1.000  C
  C28      1.0000 0.36080  0.26129  0.33500  Biso   1.000  C
  H25      1.0000 0.33980  0.20880  0.91260  Biso   1.000  H
  H26      1.0000 0.66020  0.70880  0.58740  Biso   1.000  H
  H27      1.0000 0.66020  0.79120  0.08740  Biso   1.000  H
  H28      1.0000 0.33980  0.29120  0.41260  Biso   1.000  H
  H29      1.0000 0.36100  0.29000  0.86480  Biso   1.000  H
  H30      1.0000 0.63900  0.79000  0.63520  Biso   1.000  H
  H31      1.0000 0.63900  0.71000  0.13520  Biso   1.000  H
  H32      1.0000 0.36100  0.21000  0.36480  Biso   1.000  H
  C29      1.0000 0.53840  0.22020  0.83350  Biso   1.000  C
  C30      1.0000 0.46160  0.72020  0.66650  Biso   1.000  C
  C31      1.0000 0.46160  0.77980  0.16650  Biso   1.000  C
  C32      1.0000 0.53840  0.27980  0.33350  Biso   1.000  C
  C33      1.0000 0.61780  0.26385  0.75830  Biso   1.000  C
  C34      1.0000 0.38220  0.76385  0.74170  Biso   1.000  C
  C35      1.0000 0.38220  0.73615  0.24170  Biso   1.000  C
  C36      1.0000 0.61780  0.23615  0.25830  Biso   1.000  C
  H33      1.0000 0.55830  0.30480  0.70260  Biso   1.000  H
  H34      1.0000 0.44170  0.80480  0.79740  Biso   1.000  H
  H35      1.0000 0.44170  0.69520  0.29740  Biso   1.000  H
  H36      1.0000 0.55830  0.19520  0.20260  Biso   1.000  H
  C37      1.0000 0.78400  0.24677  0.76570  Biso   1.000  C
  C38      1.0000 0.21600  0.74677  0.73430  Biso   1.000  C
  C39      1.0000 0.21600  0.75323  0.23430  Biso   1.000  C
  C40      1.0000 0.78400  0.25323  0.26570  Biso   1.000  C
  H37      1.0000 0.83980  0.27550  0.71440  Biso   1.000  H
  H38      1.0000 0.16020  0.77550  0.78560  Biso   1.000  H
  H39      1.0000 0.16020  0.72450  0.28560  Biso   1.000  H
  H40      1.0000 0.83980  0.22450  0.21440  Biso   1.000  H
  C41      1.0000 0.86730  0.18736  0.84870  Biso   1.000  C
  C42      1.0000 0.13270  0.68736  0.65130  Biso   1.000  C
  C43      1.0000 0.13270  0.81264  0.15130  Biso   1.000  C
  C44      1.0000 0.86730  0.31264  0.34870  Biso   1.000  C
  H41      1.0000 0.98330  0.17730  0.85660  Biso   1.000  H
  H42      1.0000 0.01670  0.67730  0.64340  Biso   1.000  H
  H43      1.0000 0.01670  0.82270  0.14340  Biso   1.000  H
  H44      1.0000 0.98330  0.32270  0.35660  Biso   1.000  H
  C45      1.0000 0.62980  0.16016  0.90870  Biso   1.000  C
  C46      1.0000 0.37020  0.66016  0.59130  Biso   1.000  C
  C47      1.0000 0.37020  0.83984  0.09130  Biso   1.000  C
  C48      1.0000 0.62980  0.33984  0.40870  Biso   1.000  C
  H45      1.0000 0.57450  0.12890  0.95630  Biso   1.000  H
  H46      1.0000 0.42550  0.62890  0.54370  Biso   1.000  H
  H47      1.0000 0.42550  0.87110  0.04370  Biso   1.000  H
  H48      1.0000 0.57450  0.37110  0.45630  Biso   1.000  H
  Cu1      1.0000 0.92368  0.05582  0.04502  Biso   1.000  Cu
  Cu2      1.0000 0.07632  0.55582  0.45498  Biso   1.000  Cu
  Cu3      1.0000 0.07632  0.94418  0.95498  Biso   1.000  Cu
  Cu4      1.0000 0.92368  0.44418  0.54502  Biso   1.000  Cu
  I1       1.0000 0.25700  0.06044  0.08680  Biso   1.000  I
  I2       1.0000 0.74300  0.56044  0.41320  Biso   1.000  I
  I3       1.0000 0.74300  0.93956  0.91320  Biso   1.000  I
  I4       1.0000 0.25700  0.43956  0.58680  Biso   1.000  I
  N1       1.0000 0.90600  0.06535  0.25420  Biso   1.000  N
  N2       1.0000 0.09400  0.56535  0.24580  Biso   1.000  N
  N3       1.0000 0.09400  0.93465  0.74580  Biso   1.000  N
  N4       1.0000 0.90600  0.43465  0.75420  Biso   1.000  N
  N5       1.0000 0.79360  0.14320  0.91870  Biso   1.000  N
  N6       1.0000 0.20640  0.64320  0.58130  Biso   1.000  N
  N7       1.0000 0.20640  0.85680  0.08130  Biso   1.000  N
  N8       1.0000 0.79360  0.35680  0.41870  Biso   1.000  N
  S1       1.0000 0.18191  0.22468  0.65466  Biso   1.000  S
  S2       1.0000 0.81809  0.72468  0.84534  Biso   1.000  S
  S3       1.0000 0.81809  0.77532  0.34534  Biso   1.000  S
  S4       1.0000 0.18191  0.27532  0.15466  Biso   1.000  S
