data_image0
_cell_length_a       11.9751
_cell_length_b       12.6718
_cell_length_c       18.759
_cell_angle_alpha    90
_cell_angle_beta     104.23
_cell_angle_gamma    90

_symmetry_space_group_name_H-M    "P 1"
_symmetry_int_tables_number       1

loop_
  _symmetry_equiv_pos_as_xyz
  'x, y, z'

loop_
  _atom_site_label
  _atom_site_occupancy
  _atom_site_fract_x
  _atom_site_fract_y
  _atom_site_fract_z
  _atom_site_thermal_displace_type
  _atom_site_B_iso_or_equiv
  _atom_site_type_symbol
  I1       1.0000 0.33414  0.59590  0.80640  Biso   1.000  I
  I2       1.0000 0.66586  0.09590  0.69360  Biso   1.000  I
  I3       1.0000 0.66586  0.40410  0.19360  Biso   1.000  I
  I4       1.0000 0.33414  0.90410  0.30640  Biso   1.000  I
  I5       1.0000 0.61863  0.63322  0.02102  Biso   1.000  I
  I6       1.0000 0.38137  0.13322  0.47898  Biso   1.000  I
  I7       1.0000 0.38137  0.36678  0.97898  Biso   1.000  I
  I8       1.0000 0.61863  0.86678  0.52102  Biso   1.000  I
  Cu1      1.0000 0.54667  0.55007  0.81615  Biso   1.000  Cu
  Cu2      1.0000 0.45333  0.05007  0.68385  Biso   1.000  Cu
  Cu3      1.0000 0.45333  0.44993  0.18385  Biso   1.000  Cu
  Cu4      1.0000 0.54667  0.94993  0.31615  Biso   1.000  Cu
  Cu5      1.0000 0.45504  0.53682  0.93092  Biso   1.000  Cu
  Cu6      1.0000 0.54496  0.03682  0.56908  Biso   1.000  Cu
  Cu7      1.0000 0.54496  0.46318  0.06908  Biso   1.000  Cu
  Cu8      1.0000 0.45504  0.96318  0.43092  Biso   1.000  Cu
  S1       1.0000 0.64250  0.71180  0.82139  Biso   1.000  S
  S2       1.0000 0.35750  0.21180  0.67861  Biso   1.000  S
  S3       1.0000 0.35750  0.28820  0.17861  Biso   1.000  S
  S4       1.0000 0.64250  0.78820  0.32139  Biso   1.000  S
  S5       1.0000 0.62120  0.38750  0.85313  Biso   1.000  S
  S6       1.0000 0.37880  0.88750  0.64687  Biso   1.000  S
  S7       1.0000 0.37880  0.61250  0.14687  Biso   1.000  S
  S8       1.0000 0.62120  0.11250  0.35313  Biso   1.000  S
  O1       1.0000 0.97970  0.60710  0.82400  Biso   1.000  O
  O2       1.0000 0.02030  0.10710  0.67600  Biso   1.000  O
  O3       1.0000 0.02030  0.39290  0.17600  Biso   1.000  O
  O4       1.0000 0.97970  0.89290  0.32400  Biso   1.000  O
  O5       1.0000 0.94490  0.42680  0.90790  Biso   1.000  O
  O6       1.0000 0.05510  0.92680  0.59210  Biso   1.000  O
  O7       1.0000 0.05510  0.57320  0.09210  Biso   1.000  O
  O8       1.0000 0.94490  0.07320  0.40790  Biso   1.000  O
  N1       1.0000 0.58640  0.52050  0.70910  Biso   1.000  N
  N2       1.0000 0.41360  0.02050  0.79090  Biso   1.000  N
  N3       1.0000 0.41360  0.47950  0.29090  Biso   1.000  N
  N4       1.0000 0.58640  0.97950  0.20910  Biso   1.000  N
  C1       1.0000 0.96750  0.71520  0.82160  Biso   1.000  C
  C2       1.0000 0.03250  0.21520  0.67840  Biso   1.000  C
  C3       1.0000 0.03250  0.28480  0.17840  Biso   1.000  C
  C4       1.0000 0.96750  0.78480  0.32160  Biso   1.000  C
  C5       1.0000 0.95620  0.22380  0.20290  Biso   1.000  C
  C6       1.0000 0.04380  0.72380  0.29710  Biso   1.000  C
  C7       1.0000 0.04380  0.77620  0.79710  Biso   1.000  C
  C8       1.0000 0.95620  0.27620  0.70290  Biso   1.000  C
  H1       1.0000 0.89460  0.25660  0.21930  Biso   1.000  H
  H2       1.0000 0.10540  0.75660  0.28070  Biso   1.000  H
  H3       1.0000 0.10540  0.74340  0.78070  Biso   1.000  H
  H4       1.0000 0.89460  0.24340  0.71930  Biso   1.000  H
  C9       1.0000 0.96630  0.11510  0.20460  Biso   1.000  C
  C10      1.0000 0.03370  0.61510  0.29540  Biso   1.000  C
  C11      1.0000 0.03370  0.88490  0.79540  Biso   1.000  C
  C12      1.0000 0.96630  0.38490  0.70460  Biso   1.000  C
  H5       1.0000 0.90860  0.07220  0.21810  Biso   1.000  H
  H6       1.0000 0.09140  0.57220  0.28190  Biso   1.000  H
  H7       1.0000 0.09140  0.92780  0.78190  Biso   1.000  H
  H8       1.0000 0.90860  0.42780  0.71810  Biso   1.000  H
  C13      1.0000 0.05880  0.06940  0.18680  Biso   1.000  C
  C14      1.0000 0.94120  0.56940  0.31320  Biso   1.000  C
  C15      1.0000 0.94120  0.93060  0.81320  Biso   1.000  C
  C16      1.0000 0.05880  0.43060  0.68680  Biso   1.000  C
  H9       1.0000 0.07070  0.99470  0.19290  Biso   1.000  H
  H10      1.0000 0.92930  0.49470  0.30710  Biso   1.000  H
  H11      1.0000 0.92930  0.00530  0.80710  Biso   1.000  H
  H12      1.0000 0.07070  0.50530  0.69290  Biso   1.000  H
  C17      1.0000 0.13560  0.12980  0.16010  Biso   1.000  C
  C18      1.0000 0.86440  0.62980  0.33990  Biso   1.000  C
  C19      1.0000 0.86440  0.87020  0.83990  Biso   1.000  C
  C20      1.0000 0.13560  0.37020  0.66010  Biso   1.000  C
  H13      1.0000 0.19660  0.09600  0.14380  Biso   1.000  H
  H14      1.0000 0.80340  0.59600  0.35620  Biso   1.000  H
  H15      1.0000 0.80340  0.90400  0.85620  Biso   1.000  H
  H16      1.0000 0.19660  0.40400  0.64380  Biso   1.000  H
  C21      1.0000 0.87480  0.76080  0.84340  Biso   1.000  C
  C22      1.0000 0.12520  0.26080  0.65660  Biso   1.000  C
  C23      1.0000 0.12520  0.23920  0.15660  Biso   1.000  C
  C24      1.0000 0.87480  0.73920  0.34340  Biso   1.000  C
  C25      1.0000 0.79210  0.69330  0.87100  Biso   1.000  C
  C26      1.0000 0.20790  0.19330  0.62900  Biso   1.000  C
  C27      1.0000 0.20790  0.30670  0.12900  Biso   1.000  C
  C28      1.0000 0.79210  0.80670  0.37100  Biso   1.000  C
  H17      1.0000 0.18760  0.37940  0.13280  Biso   1.000  H
  H18      1.0000 0.81240  0.87940  0.36720  Biso   1.000  H
  H19      1.0000 0.81240  0.62060  0.86720  Biso   1.000  H
  H20      1.0000 0.18760  0.12060  0.63280  Biso   1.000  H
  H21      1.0000 0.20050  0.29140  0.07800  Biso   1.000  H
  H22      1.0000 0.79950  0.79140  0.42200  Biso   1.000  H
  H23      1.0000 0.79950  0.70860  0.92200  Biso   1.000  H
  H24      1.0000 0.20050  0.20860  0.57800  Biso   1.000  H
  C29      1.0000 0.65110  0.70640  0.72670  Biso   1.000  C
  C30      1.0000 0.34890  0.20640  0.77330  Biso   1.000  C
  C31      1.0000 0.34890  0.29360  0.27330  Biso   1.000  C
  C32      1.0000 0.65110  0.79360  0.22670  Biso   1.000  C
  H25      1.0000 0.71140  0.75270  0.72040  Biso   1.000  H
  H26      1.0000 0.28860  0.25270  0.77960  Biso   1.000  H
  H27      1.0000 0.28860  0.24730  0.27960  Biso   1.000  H
  H28      1.0000 0.71140  0.74730  0.22040  Biso   1.000  H
  H29      1.0000 0.57990  0.73170  0.69580  Biso   1.000  H
  H30      1.0000 0.42010  0.23170  0.80420  Biso   1.000  H
  H31      1.0000 0.42010  0.26830  0.30420  Biso   1.000  H
  H32      1.0000 0.57990  0.76830  0.19580  Biso   1.000  H
  C33      1.0000 0.67430  0.59590  0.70180  Biso   1.000  C
  C34      1.0000 0.32570  0.09590  0.79820  Biso   1.000  C
  C35      1.0000 0.32570  0.40410  0.29820  Biso   1.000  C
  C36      1.0000 0.67430  0.90410  0.20180  Biso   1.000  C
  H33      1.0000 0.74770  0.57210  0.73060  Biso   1.000  H
  H34      1.0000 0.25230  0.07210  0.76940  Biso   1.000  H
  H35      1.0000 0.25230  0.42790  0.26940  Biso   1.000  H
  H36      1.0000 0.74770  0.92790  0.23060  Biso   1.000  H
  H37      1.0000 0.67820  0.59850  0.65140  Biso   1.000  H
  H38      1.0000 0.32180  0.09850  0.84860  Biso   1.000  H
  H39      1.0000 0.32180  0.40150  0.34860  Biso   1.000  H
  H40      1.0000 0.67820  0.90150  0.15140  Biso   1.000  H
  C37      1.0000 0.62950  0.41060  0.71110  Biso   1.000  C
  C38      1.0000 0.37050  0.91060  0.78890  Biso   1.000  C
  C39      1.0000 0.37050  0.58940  0.28890  Biso   1.000  C
  C40      1.0000 0.62950  0.08940  0.21110  Biso   1.000  C
  H41      1.0000 0.56520  0.36300  0.70040  Biso   1.000  H
  H42      1.0000 0.43480  0.86300  0.79960  Biso   1.000  H
  H43      1.0000 0.43480  0.63700  0.29960  Biso   1.000  H
  H44      1.0000 0.56520  0.13700  0.20040  Biso   1.000  H
  H45      1.0000 0.67110  0.40190  0.67380  Biso   1.000  H
  H46      1.0000 0.32890  0.90190  0.82620  Biso   1.000  H
  H47      1.0000 0.32890  0.59810  0.32620  Biso   1.000  H
  H48      1.0000 0.67110  0.09810  0.17380  Biso   1.000  H
  C41      1.0000 0.70720  0.38320  0.78490  Biso   1.000  C
  C42      1.0000 0.29280  0.88320  0.71510  Biso   1.000  C
  C43      1.0000 0.29280  0.61680  0.21510  Biso   1.000  C
  C44      1.0000 0.70720  0.11680  0.28490  Biso   1.000  C
  H49      1.0000 0.73900  0.31400  0.78340  Biso   1.000  H
  H50      1.0000 0.26100  0.81400  0.71660  Biso   1.000  H
  H51      1.0000 0.26100  0.68600  0.21660  Biso   1.000  H
  H52      1.0000 0.73900  0.18600  0.28340  Biso   1.000  H
  H53      1.0000 0.76950  0.43280  0.79770  Biso   1.000  H
  H54      1.0000 0.23050  0.93280  0.70230  Biso   1.000  H
  H55      1.0000 0.23050  0.56720  0.20230  Biso   1.000  H
  H56      1.0000 0.76950  0.06720  0.29770  Biso   1.000  H
  C45      1.0000 0.73410  0.38600  0.93850  Biso   1.000  C
  C46      1.0000 0.26590  0.88600  0.56150  Biso   1.000  C
  C47      1.0000 0.26590  0.61400  0.06150  Biso   1.000  C
  C48      1.0000 0.73410  0.11400  0.43850  Biso   1.000  C
  H57      1.0000 0.30040  0.62490  0.02100  Biso   1.000  H
  H58      1.0000 0.69960  0.12490  0.47900  Biso   1.000  H
  H59      1.0000 0.69960  0.37510  0.97900  Biso   1.000  H
  H60      1.0000 0.30040  0.87510  0.52100  Biso   1.000  H
  H61      1.0000 0.22830  0.54650  0.05500  Biso   1.000  H
  H62      1.0000 0.77170  0.04650  0.44500  Biso   1.000  H
  H63      1.0000 0.77170  0.45350  0.94500  Biso   1.000  H
  H64      1.0000 0.22830  0.95350  0.55500  Biso   1.000  H
  C49      1.0000 0.82330  0.30100  0.93960  Biso   1.000  C
  C50      1.0000 0.17670  0.80100  0.56040  Biso   1.000  C
  C51      1.0000 0.17670  0.69900  0.06040  Biso   1.000  C
  C52      1.0000 0.82330  0.19900  0.43960  Biso   1.000  C
  C53      1.0000 0.20150  0.80140  0.04000  Biso   1.000  C
  C54      1.0000 0.79850  0.30140  0.46000  Biso   1.000  C
  C55      1.0000 0.79850  0.19860  0.96000  Biso   1.000  C
  C56      1.0000 0.20150  0.69860  0.54000  Biso   1.000  C
  H65      1.0000 0.27260  0.81670  0.02720  Biso   1.000  H
  H66      1.0000 0.72740  0.31670  0.47280  Biso   1.000  H
  H67      1.0000 0.72740  0.18330  0.97280  Biso   1.000  H
  H68      1.0000 0.27260  0.68330  0.52720  Biso   1.000  H
  C57      1.0000 0.12110  0.87890  0.03880  Biso   1.000  C
  C58      1.0000 0.87890  0.37890  0.46120  Biso   1.000  C
  C59      1.0000 0.87890  0.12110  0.96120  Biso   1.000  C
  C60      1.0000 0.12110  0.62110  0.53880  Biso   1.000  C
  H69      1.0000 0.13790  0.95000  0.02720  Biso   1.000  H
  H70      1.0000 0.86210  0.45000  0.47280  Biso   1.000  H
  H71      1.0000 0.86210  0.05000  0.97280  Biso   1.000  H
  H72      1.0000 0.13790  0.55000  0.52720  Biso   1.000  H
  C61      1.0000 0.01500  0.85620  0.05410  Biso   1.000  C
  C62      1.0000 0.98500  0.35620  0.44590  Biso   1.000  C
  C63      1.0000 0.98500  0.14380  0.94590  Biso   1.000  C
  C64      1.0000 0.01500  0.64380  0.55410  Biso   1.000  C
  H73      1.0000 0.95980  0.91180  0.05170  Biso   1.000  H
  H74      1.0000 0.04020  0.41180  0.44830  Biso   1.000  H
  H75      1.0000 0.04020  0.08820  0.94830  Biso   1.000  H
  H76      1.0000 0.95980  0.58820  0.55170  Biso   1.000  H
  C65      1.0000 0.98810  0.75470  0.07270  Biso   1.000  C
  C66      1.0000 0.01190  0.25470  0.42730  Biso   1.000  C
  C67      1.0000 0.01190  0.24530  0.92730  Biso   1.000  C
  C68      1.0000 0.98810  0.74530  0.57270  Biso   1.000  C
  H77      1.0000 0.91520  0.73910  0.08300  Biso   1.000  H
  H78      1.0000 0.08480  0.23910  0.41700  Biso   1.000  H
  H79      1.0000 0.08480  0.26090  0.91700  Biso   1.000  H
  H80      1.0000 0.91520  0.76090  0.58300  Biso   1.000  H
  C69      1.0000 0.92820  0.32380  0.92420  Biso   1.000  C
  C70      1.0000 0.07180  0.82380  0.57580  Biso   1.000  C
  C71      1.0000 0.07180  0.67620  0.07580  Biso   1.000  C
  C72      1.0000 0.92820  0.17620  0.42420  Biso   1.000  C
  C73      1.0000 0.05280  0.45510  0.89780  Biso   1.000  C
  C74      1.0000 0.94720  0.95510  0.60220  Biso   1.000  C
  C75      1.0000 0.94720  0.54490  0.10220  Biso   1.000  C
  C76      1.0000 0.05280  0.04490  0.39780  Biso   1.000  C
  H81      1.0000 0.88740  0.56900  0.06140  Biso   1.000  H
  H82      1.0000 0.11260  0.06900  0.43860  Biso   1.000  H
  H83      1.0000 0.11260  0.43100  0.93860  Biso   1.000  H
  H84      1.0000 0.88740  0.93100  0.56140  Biso   1.000  H
  H85      1.0000 0.93560  0.57670  0.14630  Biso   1.000  H
  H86      1.0000 0.06440  0.07670  0.35370  Biso   1.000  H
  H87      1.0000 0.06440  0.42330  0.85370  Biso   1.000  H
  H88      1.0000 0.93560  0.92330  0.64630  Biso   1.000  H
  C77      1.0000 0.05650  0.57270  0.89210  Biso   1.000  C
  C78      1.0000 0.94350  0.07270  0.60790  Biso   1.000  C
  C79      1.0000 0.94350  0.42730  0.10790  Biso   1.000  C
  C80      1.0000 0.05650  0.92730  0.39210  Biso   1.000  C
  H89      1.0000 0.86630  0.40490  0.10630  Biso   1.000  H
  H90      1.0000 0.13370  0.90490  0.39370  Biso   1.000  H
  H91      1.0000 0.13370  0.59510  0.89370  Biso   1.000  H
  H92      1.0000 0.86630  0.09510  0.60630  Biso   1.000  H
  H93      1.0000 0.96620  0.39580  0.06710  Biso   1.000  H
  H94      1.0000 0.03380  0.89580  0.43290  Biso   1.000  H
  H95      1.0000 0.03380  0.60420  0.93290  Biso   1.000  H
  H96      1.0000 0.96620  0.10420  0.56710  Biso   1.000  H
  C81      1.0000 0.47510  0.53100  0.64970  Biso   1.000  C
  C82      1.0000 0.52490  0.03100  0.85030  Biso   1.000  C
  C83      1.0000 0.52490  0.46900  0.35030  Biso   1.000  C
  C84      1.0000 0.47510  0.96900  0.14970  Biso   1.000  C
  H97      1.0000 0.44430  0.60040  0.65260  Biso   1.000  H
  H98      1.0000 0.55570  0.10040  0.84740  Biso   1.000  H
  H99      1.0000 0.55570  0.39960  0.34740  Biso   1.000  H
  H100     1.0000 0.44430  0.89960  0.15260  Biso   1.000  H
  H101     1.0000 0.42040  0.48120  0.65970  Biso   1.000  H
  H102     1.0000 0.57960  0.98120  0.84030  Biso   1.000  H
  H103     1.0000 0.57960  0.51880  0.34030  Biso   1.000  H
  H104     1.0000 0.42040  0.01880  0.15970  Biso   1.000  H
  C85      1.0000 0.48640  0.51340  0.57210  Biso   1.000  C
  C86      1.0000 0.51360  0.01340  0.92790  Biso   1.000  C
  C87      1.0000 0.51360  0.48660  0.42790  Biso   1.000  C
  C88      1.0000 0.48640  0.98660  0.07210  Biso   1.000  C
  C89      1.0000 0.48330  0.41440  0.54160  Biso   1.000  C
  C90      1.0000 0.51670  0.91440  0.95840  Biso   1.000  C
  C91      1.0000 0.51670  0.58560  0.45840  Biso   1.000  C
  C92      1.0000 0.48330  0.08560  0.04160  Biso   1.000  C
  H105     1.0000 0.47240  0.35400  0.57000  Biso   1.000  H
  H106     1.0000 0.52760  0.85400  0.93000  Biso   1.000  H
  H107     1.0000 0.52760  0.64600  0.43000  Biso   1.000  H
  H108     1.0000 0.47240  0.14600  0.07000  Biso   1.000  H
  C93      1.0000 0.49570  0.40030  0.47000  Biso   1.000  C
  C94      1.0000 0.50430  0.90030  0.03000  Biso   1.000  C
  C95      1.0000 0.50430  0.59970  0.53000  Biso   1.000  C
  C96      1.0000 0.49570  0.09970  0.97000  Biso   1.000  C
  H109     1.0000 0.50810  0.66950  0.55050  Biso   1.000  H
  H110     1.0000 0.49190  0.16950  0.94950  Biso   1.000  H
  H111     1.0000 0.49190  0.33050  0.44950  Biso   1.000  H
  H112     1.0000 0.50810  0.83050  0.05050  Biso   1.000  H
