data_image0
_cell_length_a       9.2129
_cell_length_b       9.5467
_cell_length_c       27.605
_cell_angle_alpha    90
_cell_angle_beta     102.49
_cell_angle_gamma    90

_symmetry_space_group_name_H-M    "P 1"
_symmetry_int_tables_number       1

loop_
  _symmetry_equiv_pos_as_xyz
  'x, y, z'

loop_
  _atom_site_label
  _atom_site_occupancy
  _atom_site_fract_x
  _atom_site_fract_y
  _atom_site_fract_z
  _atom_site_thermal_displace_type
  _atom_site_B_iso_or_equiv
  _atom_site_type_symbol
  Cu1      1.0000 0.45737  0.31908  0.90686  Biso   1.000  Cu
  Cu2      1.0000 0.54263  0.81908  0.59314  Biso   1.000  Cu
  Cu3      1.0000 0.54263  0.68092  0.09314  Biso   1.000  Cu
  Cu4      1.0000 0.45737  0.18092  0.40686  Biso   1.000  Cu
  Cu5      1.0000 0.96129  0.13135  0.91292  Biso   1.000  Cu
  Cu6      1.0000 0.03871  0.63135  0.58708  Biso   1.000  Cu
  Cu7      1.0000 0.03871  0.86865  0.08708  Biso   1.000  Cu
  Cu8      1.0000 0.96129  0.36865  0.41292  Biso   1.000  Cu
  N1       1.0000 0.95700  0.91930  0.91673  Biso   1.000  N
  N2       1.0000 0.04300  0.41930  0.58327  Biso   1.000  N
  N3       1.0000 0.04300  0.08070  0.08327  Biso   1.000  N
  N4       1.0000 0.95700  0.58070  0.41673  Biso   1.000  N
  N5       1.0000 0.89350  0.70400  0.93512  Biso   1.000  N
  N6       1.0000 0.10650  0.20400  0.56488  Biso   1.000  N
  N7       1.0000 0.10650  0.29600  0.06488  Biso   1.000  N
  N8       1.0000 0.89350  0.79600  0.43512  Biso   1.000  N
  N9       1.0000 0.26520  0.24290  0.90827  Biso   1.000  N
  N10      1.0000 0.73480  0.74290  0.59173  Biso   1.000  N
  N11      1.0000 0.73480  0.75710  0.09173  Biso   1.000  N
  N12      1.0000 0.26520  0.25710  0.40827  Biso   1.000  N
  N13      1.0000 0.65570  0.24790  0.91145  Biso   1.000  N
  N14      1.0000 0.34430  0.74790  0.58855  Biso   1.000  N
  N15      1.0000 0.34430  0.75210  0.08855  Biso   1.000  N
  N16      1.0000 0.65570  0.25210  0.41145  Biso   1.000  N
  N17      1.0000 0.45010  0.53210  0.90332  Biso   1.000  N
  N18      1.0000 0.54990  0.03210  0.59668  Biso   1.000  N
  N19      1.0000 0.54990  0.46790  0.09668  Biso   1.000  N
  N20      1.0000 0.45010  0.96790  0.40332  Biso   1.000  N
  N21      1.0000 0.41750  0.75300  0.92545  Biso   1.000  N
  N22      1.0000 0.58250  0.25300  0.57455  Biso   1.000  N
  N23      1.0000 0.58250  0.24700  0.07455  Biso   1.000  N
  N24      1.0000 0.41750  0.74700  0.42545  Biso   1.000  N
  C1       1.0000 0.89240  0.84180  0.94521  Biso   1.000  C
  C2       1.0000 0.10760  0.34180  0.55479  Biso   1.000  C
  C3       1.0000 0.10760  0.15820  0.05479  Biso   1.000  C
  C4       1.0000 0.89240  0.65820  0.44521  Biso   1.000  C
  H1       1.0000 0.84980  0.87880  0.97010  Biso   1.000  H
  H2       1.0000 0.15020  0.37880  0.52990  Biso   1.000  H
  H3       1.0000 0.15020  0.12120  0.02990  Biso   1.000  H
  H4       1.0000 0.84980  0.62120  0.47010  Biso   1.000  H
  C5       1.0000 0.00610  0.82430  0.88508  Biso   1.000  C
  C6       1.0000 0.99390  0.32430  0.61492  Biso   1.000  C
  C7       1.0000 0.99390  0.17570  0.11492  Biso   1.000  C
  C8       1.0000 0.00610  0.67570  0.38508  Biso   1.000  C
  C9       1.0000 0.07910  0.84790  0.84670  Biso   1.000  C
  C10      1.0000 0.92090  0.34790  0.65330  Biso   1.000  C
  C11      1.0000 0.92090  0.15210  0.15330  Biso   1.000  C
  C12      1.0000 0.07910  0.65210  0.34670  Biso   1.000  C
  H5       1.0000 0.10480  0.93830  0.83910  Biso   1.000  H
  H6       1.0000 0.89520  0.43830  0.66090  Biso   1.000  H
  H7       1.0000 0.89520  0.06170  0.16090  Biso   1.000  H
  H8       1.0000 0.10480  0.56170  0.33910  Biso   1.000  H
  C13      1.0000 0.11300  0.73400  0.81988  Biso   1.000  C
  C14      1.0000 0.88700  0.23400  0.68012  Biso   1.000  C
  C15      1.0000 0.88700  0.26600  0.18012  Biso   1.000  C
  C16      1.0000 0.11300  0.76600  0.31988  Biso   1.000  C
  C17      1.0000 0.07430  0.59660  0.83195  Biso   1.000  C
  C18      1.0000 0.92570  0.09660  0.66805  Biso   1.000  C
  C19      1.0000 0.92570  0.40340  0.16805  Biso   1.000  C
  C20      1.0000 0.07430  0.90340  0.33195  Biso   1.000  C
  C21      1.0000 0.00080  0.57450  0.86991  Biso   1.000  C
  C22      1.0000 0.99920  0.07450  0.63009  Biso   1.000  C
  C23      1.0000 0.99920  0.42550  0.13009  Biso   1.000  C
  C24      1.0000 0.00080  0.92550  0.36991  Biso   1.000  C
  H9       1.0000 0.97420  0.48460  0.87770  Biso   1.000  H
  H10      1.0000 0.02580  0.98460  0.62230  Biso   1.000  H
  H11      1.0000 0.02580  0.51540  0.12230  Biso   1.000  H
  H12      1.0000 0.97420  0.01540  0.37770  Biso   1.000  H
  C25      1.0000 0.96750  0.69000  0.89626  Biso   1.000  C
  C26      1.0000 0.03250  0.19000  0.60374  Biso   1.000  C
  C27      1.0000 0.03250  0.31000  0.10374  Biso   1.000  C
  C28      1.0000 0.96750  0.81000  0.39626  Biso   1.000  C
  C29      1.0000 0.19110  0.75740  0.77771  Biso   1.000  C
  C30      1.0000 0.80890  0.25740  0.72229  Biso   1.000  C
  C31      1.0000 0.80890  0.24260  0.22229  Biso   1.000  C
  C32      1.0000 0.19110  0.74260  0.27771  Biso   1.000  C
  H13      1.0000 0.28670  0.71270  0.78530  Biso   1.000  H
  H14      1.0000 0.71330  0.21270  0.71470  Biso   1.000  H
  H15      1.0000 0.71330  0.28730  0.21470  Biso   1.000  H
  H16      1.0000 0.28670  0.78730  0.28530  Biso   1.000  H
  H17      1.0000 0.20370  0.85600  0.77330  Biso   1.000  H
  H18      1.0000 0.79630  0.35600  0.72670  Biso   1.000  H
  H19      1.0000 0.79630  0.14400  0.22670  Biso   1.000  H
  H20      1.0000 0.20370  0.64400  0.27330  Biso   1.000  H
  H21      1.0000 0.13250  0.71820  0.74780  Biso   1.000  H
  H22      1.0000 0.86750  0.21820  0.75220  Biso   1.000  H
  H23      1.0000 0.86750  0.28180  0.25220  Biso   1.000  H
  H24      1.0000 0.13250  0.78180  0.24780  Biso   1.000  H
  C33      1.0000 0.11350  0.47240  0.80349  Biso   1.000  C
  C34      1.0000 0.88650  0.97240  0.69651  Biso   1.000  C
  C35      1.0000 0.88650  0.52760  0.19651  Biso   1.000  C
  C36      1.0000 0.11350  0.02760  0.30349  Biso   1.000  C
  H25      1.0000 0.06790  0.48270  0.76900  Biso   1.000  H
  H26      1.0000 0.93210  0.98270  0.73100  Biso   1.000  H
  H27      1.0000 0.93210  0.51730  0.23100  Biso   1.000  H
  H28      1.0000 0.06790  0.01730  0.26900  Biso   1.000  H
  H29      1.0000 0.07820  0.38810  0.81600  Biso   1.000  H
  H30      1.0000 0.92180  0.88810  0.68400  Biso   1.000  H
  H31      1.0000 0.92180  0.61190  0.18400  Biso   1.000  H
  H32      1.0000 0.07820  0.11190  0.31600  Biso   1.000  H
  H33      1.0000 0.21950  0.46740  0.80740  Biso   1.000  H
  H34      1.0000 0.78050  0.96740  0.69260  Biso   1.000  H
  H35      1.0000 0.78050  0.53260  0.19260  Biso   1.000  H
  H36      1.0000 0.21950  0.03260  0.30740  Biso   1.000  H
  C37      1.0000 0.82720  0.59210  0.95918  Biso   1.000  C
  C38      1.0000 0.17280  0.09210  0.54082  Biso   1.000  C
  C39      1.0000 0.17280  0.40790  0.04082  Biso   1.000  C
  C40      1.0000 0.82720  0.90790  0.45918  Biso   1.000  C
  H37      1.0000 0.79570  0.51740  0.93540  Biso   1.000  H
  H38      1.0000 0.20430  0.01740  0.56460  Biso   1.000  H
  H39      1.0000 0.20430  0.48260  0.06460  Biso   1.000  H
  H40      1.0000 0.79570  0.98260  0.43540  Biso   1.000  H
  H41      1.0000 0.73940  0.62820  0.96900  Biso   1.000  H
  H42      1.0000 0.26060  0.12820  0.53100  Biso   1.000  H
  H43      1.0000 0.26060  0.37180  0.03100  Biso   1.000  H
  H44      1.0000 0.73940  0.87180  0.46900  Biso   1.000  H
  C41      1.0000 0.93250  0.53180  0.00470  Biso   1.000  C
  C42      1.0000 0.06750  0.03180  0.49530  Biso   1.000  C
  C43      1.0000 0.06750  0.46820  0.99530  Biso   1.000  C
  C44      1.0000 0.93250  0.96820  0.50470  Biso   1.000  C
  H45      1.0000 0.96050  0.60620  0.02880  Biso   1.000  H
  H46      1.0000 0.03950  0.10620  0.47120  Biso   1.000  H
  H47      1.0000 0.03950  0.39380  0.97120  Biso   1.000  H
  H48      1.0000 0.96050  0.89380  0.52880  Biso   1.000  H
  H49      1.0000 0.87920  0.46170  0.01940  Biso   1.000  H
  H50      1.0000 0.12080  0.96170  0.48060  Biso   1.000  H
  H51      1.0000 0.12080  0.53830  0.98060  Biso   1.000  H
  H52      1.0000 0.87920  0.03830  0.51940  Biso   1.000  H
  C45      1.0000 0.77380  0.20730  0.91361  Biso   1.000  C
  C46      1.0000 0.22620  0.70730  0.58639  Biso   1.000  C
  C47      1.0000 0.22620  0.79270  0.08639  Biso   1.000  C
  C48      1.0000 0.77380  0.29270  0.41361  Biso   1.000  C
  C49      1.0000 0.14810  0.20150  0.90920  Biso   1.000  C
  C50      1.0000 0.85190  0.70150  0.59080  Biso   1.000  C
  C51      1.0000 0.85190  0.79850  0.09080  Biso   1.000  C
  C52      1.0000 0.14810  0.29850  0.40920  Biso   1.000  C
  C53      1.0000 0.38040  0.87120  0.95420  Biso   1.000  C
  C54      1.0000 0.61960  0.37120  0.54580  Biso   1.000  C
  C55      1.0000 0.61960  0.12880  0.04580  Biso   1.000  C
  C56      1.0000 0.38040  0.62880  0.45420  Biso   1.000  C
  H53      1.0000 0.31920  0.83850  0.97640  Biso   1.000  H
  H54      1.0000 0.68080  0.33850  0.52360  Biso   1.000  H
  H55      1.0000 0.68080  0.16150  0.02360  Biso   1.000  H
  H56      1.0000 0.31920  0.66150  0.47640  Biso   1.000  H
  H57      1.0000 0.32320  0.93940  0.93180  Biso   1.000  H
  H58      1.0000 0.67680  0.43940  0.56820  Biso   1.000  H
  H59      1.0000 0.67680  0.06060  0.06820  Biso   1.000  H
  H60      1.0000 0.32320  0.56060  0.43180  Biso   1.000  H
  C57      1.0000 0.51840  0.94060  0.98413  Biso   1.000  C
  C58      1.0000 0.48160  0.44060  0.51587  Biso   1.000  C
  C59      1.0000 0.48160  0.05940  0.01587  Biso   1.000  C
  C60      1.0000 0.51840  0.55940  0.48413  Biso   1.000  C
  H61      1.0000 0.57740  0.97660  0.96180  Biso   1.000  H
  H62      1.0000 0.42260  0.47660  0.53820  Biso   1.000  H
  H63      1.0000 0.42260  0.02340  0.03820  Biso   1.000  H
  H64      1.0000 0.57740  0.52340  0.46180  Biso   1.000  H
  H65      1.0000 0.57760  0.87130  0.00540  Biso   1.000  H
  H66      1.0000 0.42240  0.37130  0.49460  Biso   1.000  H
  H67      1.0000 0.42240  0.12870  0.99460  Biso   1.000  H
  H68      1.0000 0.57760  0.62870  0.50540  Biso   1.000  H
  C61      1.0000 0.39880  0.61640  0.93402  Biso   1.000  C
  C62      1.0000 0.60120  0.11640  0.56598  Biso   1.000  C
  C63      1.0000 0.60120  0.38360  0.06598  Biso   1.000  C
  C64      1.0000 0.39880  0.88360  0.43402  Biso   1.000  C
  H69      1.0000 0.35430  0.58400  0.95910  Biso   1.000  H
  H70      1.0000 0.64570  0.08400  0.54090  Biso   1.000  H
  H71      1.0000 0.64570  0.41600  0.04090  Biso   1.000  H
  H72      1.0000 0.35430  0.91600  0.45910  Biso   1.000  H
  C65      1.0000 0.48730  0.76040  0.88574  Biso   1.000  C
  C66      1.0000 0.51270  0.26040  0.61426  Biso   1.000  C
  C67      1.0000 0.51270  0.23960  0.11426  Biso   1.000  C
  C68      1.0000 0.48730  0.73960  0.38574  Biso   1.000  C
  C69      1.0000 0.53490  0.87290  0.86138  Biso   1.000  C
  C70      1.0000 0.46510  0.37290  0.63862  Biso   1.000  C
  C71      1.0000 0.46510  0.12710  0.13862  Biso   1.000  C
  C72      1.0000 0.53490  0.62710  0.36138  Biso   1.000  C
  H73      1.0000 0.52160  0.96470  0.87080  Biso   1.000  H
  H74      1.0000 0.47840  0.46470  0.62920  Biso   1.000  H
  H75      1.0000 0.47840  0.03530  0.12920  Biso   1.000  H
  H76      1.0000 0.52160  0.53530  0.37080  Biso   1.000  H
  C73      1.0000 0.60270  0.84370  0.82271  Biso   1.000  C
  C74      1.0000 0.39730  0.34370  0.67729  Biso   1.000  C
  C75      1.0000 0.39730  0.15630  0.17729  Biso   1.000  C
  C76      1.0000 0.60270  0.65630  0.32271  Biso   1.000  C
  C77      1.0000 0.62270  0.70440  0.80791  Biso   1.000  C
  C78      1.0000 0.37730  0.20440  0.69209  Biso   1.000  C
  C79      1.0000 0.37730  0.29560  0.19209  Biso   1.000  C
  C80      1.0000 0.62270  0.79560  0.30791  Biso   1.000  C
  C81      1.0000 0.57590  0.59410  0.83304  Biso   1.000  C
  C82      1.0000 0.42410  0.09410  0.66696  Biso   1.000  C
  C83      1.0000 0.42410  0.40590  0.16696  Biso   1.000  C
  C84      1.0000 0.57590  0.90590  0.33304  Biso   1.000  C
  H77      1.0000 0.58980  0.50220  0.82380  Biso   1.000  H
  H78      1.0000 0.41020  0.00220  0.67620  Biso   1.000  H
  H79      1.0000 0.41020  0.49780  0.17620  Biso   1.000  H
  H80      1.0000 0.58980  0.99780  0.32380  Biso   1.000  H
  C85      1.0000 0.50720  0.62220  0.87275  Biso   1.000  C
  C86      1.0000 0.49280  0.12220  0.62725  Biso   1.000  C
  C87      1.0000 0.49280  0.37780  0.12725  Biso   1.000  C
  C88      1.0000 0.50720  0.87780  0.37275  Biso   1.000  C
  C89      1.0000 0.69470  0.67510  0.76480  Biso   1.000  C
  C90      1.0000 0.30530  0.17510  0.73520  Biso   1.000  C
  C91      1.0000 0.30530  0.32490  0.23520  Biso   1.000  C
  C92      1.0000 0.69470  0.82490  0.26480  Biso   1.000  C
  H81      1.0000 0.63930  0.72080  0.73560  Biso   1.000  H
  H82      1.0000 0.36070  0.22080  0.76440  Biso   1.000  H
  H83      1.0000 0.36070  0.27920  0.26440  Biso   1.000  H
  H84      1.0000 0.63930  0.77920  0.23560  Biso   1.000  H
  H85      1.0000 0.69570  0.57600  0.75910  Biso   1.000  H
  H86      1.0000 0.30430  0.07600  0.74090  Biso   1.000  H
  H87      1.0000 0.30430  0.42400  0.24090  Biso   1.000  H
  H88      1.0000 0.69570  0.92400  0.25910  Biso   1.000  H
  H89      1.0000 0.79480  0.70990  0.77220  Biso   1.000  H
  H90      1.0000 0.20520  0.20990  0.72780  Biso   1.000  H
  H91      1.0000 0.20520  0.29010  0.22780  Biso   1.000  H
  H92      1.0000 0.79480  0.79010  0.27220  Biso   1.000  H
  C93      1.0000 0.65940  0.96530  0.79664  Biso   1.000  C
  C94      1.0000 0.34060  0.46530  0.70336  Biso   1.000  C
  C95      1.0000 0.34060  0.03470  0.20336  Biso   1.000  C
  C96      1.0000 0.65940  0.53470  0.29664  Biso   1.000  C
  H93      1.0000 0.63060  0.05200  0.80950  Biso   1.000  H
  H94      1.0000 0.36940  0.55200  0.69050  Biso   1.000  H
  H95      1.0000 0.36940  0.94800  0.19050  Biso   1.000  H
  H96      1.0000 0.63060  0.44800  0.30950  Biso   1.000  H
  H97      1.0000 0.61760  0.96020  0.76170  Biso   1.000  H
  H98      1.0000 0.38240  0.46020  0.73830  Biso   1.000  H
  H99      1.0000 0.38240  0.03980  0.23830  Biso   1.000  H
  H100     1.0000 0.61760  0.53980  0.26170  Biso   1.000  H
  H101     1.0000 0.76580  0.96080  0.80220  Biso   1.000  H
  H102     1.0000 0.23420  0.46080  0.69780  Biso   1.000  H
  H103     1.0000 0.23420  0.03920  0.19780  Biso   1.000  H
  H104     1.0000 0.76580  0.53920  0.30220  Biso   1.000  H
