data_image0
_cell_length_a       14.9266
_cell_length_b       12.426
_cell_length_c       10.1019
_cell_angle_alpha    90
_cell_angle_beta     105.4
_cell_angle_gamma    90

_symmetry_space_group_name_H-M    "P 1"
_symmetry_int_tables_number       1

loop_
  _symmetry_equiv_pos_as_xyz
  'x, y, z'

loop_
  _atom_site_label
  _atom_site_occupancy
  _atom_site_fract_x
  _atom_site_fract_y
  _atom_site_fract_z
  _atom_site_thermal_displace_type
  _atom_site_B_iso_or_equiv
  _atom_site_type_symbol
  Cu1      1.0000 0.00000  0.10666  0.50000  Biso   1.000  Cu
  Cu2      1.0000 0.50000  0.60666  0.50000  Biso   1.000  Cu
  Cu3      1.0000 0.00000  0.89334  0.50000  Biso   1.000  Cu
  Cu4      1.0000 0.50000  0.39334  0.50000  Biso   1.000  Cu
  Cu5      1.0000 0.21665  0.00000  0.60143  Biso   1.000  Cu
  Cu6      1.0000 0.78335  0.00000  0.39857  Biso   1.000  Cu
  Cu7      1.0000 0.71665  0.50000  0.60143  Biso   1.000  Cu
  Cu8      1.0000 0.28335  0.50000  0.39857  Biso   1.000  Cu
  Cu9      1.0000 0.46371  0.00000  0.87053  Biso   1.000  Cu
  Cu10     1.0000 0.53629  0.00000  0.12947  Biso   1.000  Cu
  Cu11     1.0000 0.96371  0.50000  0.87053  Biso   1.000  Cu
  Cu12     1.0000 0.03629  0.50000  0.12947  Biso   1.000  Cu
  N1       1.0000 0.10320  0.18890  0.63250  Biso   1.000  N
  N2       1.0000 0.89680  0.18890  0.36750  Biso   1.000  N
  N3       1.0000 0.60320  0.68890  0.63250  Biso   1.000  N
  N4       1.0000 0.39680  0.68890  0.36750  Biso   1.000  N
  N5       1.0000 0.89680  0.81110  0.36750  Biso   1.000  N
  N6       1.0000 0.10320  0.81110  0.63250  Biso   1.000  N
  N7       1.0000 0.39680  0.31110  0.36750  Biso   1.000  N
  N8       1.0000 0.60320  0.31110  0.63250  Biso   1.000  N
  N9       1.0000 0.19305  0.14620  0.66960  Biso   1.000  N
  N10      1.0000 0.80695  0.14620  0.33040  Biso   1.000  N
  N11      1.0000 0.69305  0.64620  0.66960  Biso   1.000  N
  N12      1.0000 0.30695  0.64620  0.33040  Biso   1.000  N
  N13      1.0000 0.80695  0.85380  0.33040  Biso   1.000  N
  N14      1.0000 0.19305  0.85380  0.66960  Biso   1.000  N
  N15      1.0000 0.30695  0.35380  0.33040  Biso   1.000  N
  N16      1.0000 0.69305  0.35380  0.66960  Biso   1.000  N
  N17      1.0000 0.19451  0.30580  0.76410  Biso   1.000  N
  N18      1.0000 0.80549  0.30580  0.23590  Biso   1.000  N
  N19      1.0000 0.69451  0.80580  0.76410  Biso   1.000  N
  N20      1.0000 0.30549  0.80580  0.23590  Biso   1.000  N
  N21      1.0000 0.80549  0.69420  0.23590  Biso   1.000  N
  N22      1.0000 0.19451  0.69420  0.76410  Biso   1.000  N
  N23      1.0000 0.30549  0.19420  0.23590  Biso   1.000  N
  N24      1.0000 0.69451  0.19420  0.76410  Biso   1.000  N
  I1       1.0000 0.09331  0.00000  0.34816  Biso   1.000  I
  I2       1.0000 0.90669  0.00000  0.65184  Biso   1.000  I
  I3       1.0000 0.59331  0.50000  0.34816  Biso   1.000  I
  I4       1.0000 0.40669  0.50000  0.65184  Biso   1.000  I
  I5       1.0000 0.39862  0.00000  0.61494  Biso   1.000  I
  I6       1.0000 0.60138  0.00000  0.38506  Biso   1.000  I
  I7       1.0000 0.89862  0.50000  0.61494  Biso   1.000  I
  I8       1.0000 0.10138  0.50000  0.38506  Biso   1.000  I
  I9       1.0000 0.50000  0.18045  0.00000  Biso   1.000  I
  I10      1.0000 0.00000  0.68045  0.00000  Biso   1.000  I
  I11      1.0000 0.50000  0.81955  0.00000  Biso   1.000  I
  I12      1.0000 0.00000  0.31955  0.00000  Biso   1.000  I
  C1       1.0000 0.22770  0.40460  0.83490  Biso   1.000  C
  C2       1.0000 0.77230  0.40460  0.16510  Biso   1.000  C
  C3       1.0000 0.72770  0.90460  0.83490  Biso   1.000  C
  C4       1.0000 0.27230  0.90460  0.16510  Biso   1.000  C
  C5       1.0000 0.77230  0.59540  0.16510  Biso   1.000  C
  C6       1.0000 0.22770  0.59540  0.83490  Biso   1.000  C
  C7       1.0000 0.27230  0.09540  0.16510  Biso   1.000  C
  C8       1.0000 0.72770  0.09540  0.83490  Biso   1.000  C
  C9       1.0000 0.29800  0.40350  0.95730  Biso   1.000  C
  C10      1.0000 0.70200  0.40350  0.04270  Biso   1.000  C
  C11      1.0000 0.79800  0.90350  0.95730  Biso   1.000  C
  C12      1.0000 0.20200  0.90350  0.04270  Biso   1.000  C
  C13      1.0000 0.70200  0.59650  0.04270  Biso   1.000  C
  C14      1.0000 0.29800  0.59650  0.95730  Biso   1.000  C
  C15      1.0000 0.20200  0.09650  0.04270  Biso   1.000  C
  C16      1.0000 0.79800  0.09650  0.95730  Biso   1.000  C
  H1       1.0000 0.32180  0.33870  0.99770  Biso   1.000  H
  H2       1.0000 0.67820  0.33870  0.00230  Biso   1.000  H
  H3       1.0000 0.82180  0.83870  0.99770  Biso   1.000  H
  H4       1.0000 0.17820  0.83870  0.00230  Biso   1.000  H
  H5       1.0000 0.67820  0.66130  0.00230  Biso   1.000  H
  H6       1.0000 0.32180  0.66130  0.99770  Biso   1.000  H
  H7       1.0000 0.17820  0.16130  0.00230  Biso   1.000  H
  H8       1.0000 0.82180  0.16130  0.99770  Biso   1.000  H
  C17      1.0000 0.33180  0.50000  0.01750  Biso   1.000  C
  C18      1.0000 0.66820  0.50000  0.98250  Biso   1.000  C
  C19      1.0000 0.83180  0.00000  0.01750  Biso   1.000  C
  C20      1.0000 0.16820  0.00000  0.98250  Biso   1.000  C
  H9       1.0000 0.37800  0.50000  0.09990  Biso   1.000  H
  H10      1.0000 0.62200  0.50000  0.90010  Biso   1.000  H
  H11      1.0000 0.87800  0.00000  0.09990  Biso   1.000  H
  H12      1.0000 0.12200  0.00000  0.90010  Biso   1.000  H
  C21      1.0000 0.19160  0.50000  0.77280  Biso   1.000  C
  C22      1.0000 0.80840  0.50000  0.22720  Biso   1.000  C
  C23      1.0000 0.69160  0.00000  0.77280  Biso   1.000  C
  C24      1.0000 0.30840  0.00000  0.22720  Biso   1.000  C
  H13      1.0000 0.14440  0.50000  0.69140  Biso   1.000  H
  H14      1.0000 0.85560  0.50000  0.30860  Biso   1.000  H
  H15      1.0000 0.64440  0.00000  0.69140  Biso   1.000  H
  H16      1.0000 0.35560  0.00000  0.30860  Biso   1.000  H
  C25      1.0000 0.10660  0.28300  0.68890  Biso   1.000  C
  C26      1.0000 0.89340  0.28300  0.31110  Biso   1.000  C
  C27      1.0000 0.60660  0.78300  0.68890  Biso   1.000  C
  C28      1.0000 0.39340  0.78300  0.31110  Biso   1.000  C
  C29      1.0000 0.89340  0.71700  0.31110  Biso   1.000  C
  C30      1.0000 0.10660  0.71700  0.68890  Biso   1.000  C
  C31      1.0000 0.39340  0.21700  0.31110  Biso   1.000  C
  C32      1.0000 0.60660  0.21700  0.68890  Biso   1.000  C
  H17      1.0000 0.05590  0.32870  0.67940  Biso   1.000  H
  H18      1.0000 0.94410  0.32870  0.32060  Biso   1.000  H
  H19      1.0000 0.55590  0.82870  0.67940  Biso   1.000  H
  H20      1.0000 0.44410  0.82870  0.32060  Biso   1.000  H
  H21      1.0000 0.94410  0.67130  0.32060  Biso   1.000  H
  H22      1.0000 0.05590  0.67130  0.67940  Biso   1.000  H
  H23      1.0000 0.44410  0.17130  0.32060  Biso   1.000  H
  H24      1.0000 0.55590  0.17130  0.67940  Biso   1.000  H
  C33      1.0000 0.24560  0.21830  0.74670  Biso   1.000  C
  C34      1.0000 0.75440  0.21830  0.25330  Biso   1.000  C
  C35      1.0000 0.74560  0.71830  0.74670  Biso   1.000  C
  C36      1.0000 0.25440  0.71830  0.25330  Biso   1.000  C
  C37      1.0000 0.75440  0.78170  0.25330  Biso   1.000  C
  C38      1.0000 0.24560  0.78170  0.74670  Biso   1.000  C
  C39      1.0000 0.25440  0.28170  0.25330  Biso   1.000  C
  C40      1.0000 0.74560  0.28170  0.74670  Biso   1.000  C
  H25      1.0000 0.30930  0.21110  0.78480  Biso   1.000  H
  H26      1.0000 0.69070  0.21110  0.21520  Biso   1.000  H
  H27      1.0000 0.80930  0.71110  0.78480  Biso   1.000  H
  H28      1.0000 0.19070  0.71110  0.21520  Biso   1.000  H
  H29      1.0000 0.69070  0.78890  0.21520  Biso   1.000  H
  H30      1.0000 0.30930  0.78890  0.78480  Biso   1.000  H
  H31      1.0000 0.19070  0.28890  0.21520  Biso   1.000  H
  H32      1.0000 0.80930  0.28890  0.78480  Biso   1.000  H
