data_image0
_cell_length_a       9.5014
_cell_length_b       9.992
_cell_length_c       11.427
_cell_angle_alpha    69.52
_cell_angle_beta     81.39
_cell_angle_gamma    89

_symmetry_space_group_name_H-M    "P 1"
_symmetry_int_tables_number       1

loop_
  _symmetry_equiv_pos_as_xyz
  'x, y, z'

loop_
  _atom_site_label
  _atom_site_occupancy
  _atom_site_fract_x
  _atom_site_fract_y
  _atom_site_fract_z
  _atom_site_thermal_displace_type
  _atom_site_B_iso_or_equiv
  _atom_site_type_symbol
  I1       1.0000 0.18296  0.28715  0.02120  Biso   1.000  I
  I2       1.0000 0.81704  0.71285  0.97880  Biso   1.000  I
  I3       1.0000 0.46158  0.43208  0.23454  Biso   1.000  I
  I4       1.0000 0.53842  0.56792  0.76546  Biso   1.000  I
  Cu1      1.0000 0.25270  0.23388  0.24703  Biso   1.000  Cu
  Cu2      1.0000 0.74730  0.76612  0.75297  Biso   1.000  Cu
  Cu3      1.0000 0.33130  0.48152  0.04417  Biso   1.000  Cu
  Cu4      1.0000 0.66870  0.51848  0.95583  Biso   1.000  Cu
  N1       1.0000 0.38210  0.03800  0.26850  Biso   1.000  N
  N2       1.0000 0.61790  0.96200  0.73150  Biso   1.000  N
  C1       1.0000 0.91540  0.31100  0.53770  Biso   1.000  C
  C2       1.0000 0.08460  0.68900  0.46230  Biso   1.000  C
  H1       1.0000 0.89820  0.26680  0.62510  Biso   1.000  H
  H2       1.0000 0.10180  0.73320  0.37490  Biso   1.000  H
  C3       1.0000 0.18810  0.96030  0.69900  Biso   1.000  C
  C4       1.0000 0.81190  0.03970  0.30100  Biso   1.000  C
  N3       1.0000 0.19760  0.10150  0.43940  Biso   1.000  N
  N4       1.0000 0.80240  0.89850  0.56060  Biso   1.000  N
  C5       1.0000 0.27900  0.99000  0.48530  Biso   1.000  C
  C6       1.0000 0.72100  0.01000  0.51470  Biso   1.000  C
  C7       1.0000 0.37360  0.94740  0.38700  Biso   1.000  C
  C8       1.0000 0.62640  0.05260  0.61300  Biso   1.000  C
  C9       1.0000 0.44310  0.81950  0.41720  Biso   1.000  C
  C10      1.0000 0.55690  0.18050  0.58280  Biso   1.000  C
  H3       1.0000 0.43960  0.76000  0.50110  Biso   1.000  H
  H4       1.0000 0.56040  0.24000  0.49890  Biso   1.000  H
  C11      1.0000 0.52560  0.87340  0.20030  Biso   1.000  C
  C12      1.0000 0.47440  0.12660  0.79970  Biso   1.000  C
  H5       1.0000 0.57570  0.85000  0.13420  Biso   1.000  H
  H6       1.0000 0.42430  0.15000  0.86580  Biso   1.000  H
  C13      1.0000 0.51690  0.78240  0.32180  Biso   1.000  C
  C14      1.0000 0.48310  0.21760  0.67820  Biso   1.000  C
  H7       1.0000 0.56100  0.69520  0.33990  Biso   1.000  H
  H8       1.0000 0.43900  0.30480  0.66010  Biso   1.000  H
  C15      1.0000 0.10900  0.14330  0.52080  Biso   1.000  C
  C16      1.0000 0.89100  0.85670  0.47920  Biso   1.000  C
  C17      1.0000 0.27910  0.92000  0.61180  Biso   1.000  C
  C18      1.0000 0.72090  0.08000  0.38820  Biso   1.000  C
  H9       1.0000 0.34020  0.84550  0.63910  Biso   1.000  H
  H10      1.0000 0.65980  0.15450  0.36090  Biso   1.000  H
  C19      1.0000 0.19040  0.88870  0.83560  Biso   1.000  C
  C20      1.0000 0.80960  0.11130  0.16440  Biso   1.000  C
  C21      1.0000 0.16380  0.95800  0.92250  Biso   1.000  C
  C22      1.0000 0.83620  0.04200  0.07750  Biso   1.000  C
  H11      1.0000 0.13390  0.05160  0.89740  Biso   1.000  H
  H12      1.0000 0.86610  0.94840  0.10260  Biso   1.000  H
  C23      1.0000 0.22790  0.74710  0.88110  Biso   1.000  C
  C24      1.0000 0.77210  0.25290  0.11890  Biso   1.000  C
  H13      1.0000 0.23960  0.69740  0.82530  Biso   1.000  H
  H14      1.0000 0.76040  0.30260  0.17470  Biso   1.000  H
  N5       1.0000 0.04790  0.32820  0.33850  Biso   1.000  N
  N6       1.0000 0.95210  0.67180  0.66150  Biso   1.000  N
  C25      1.0000 0.01920  0.26500  0.46630  Biso   1.000  C
  C26      1.0000 0.98080  0.73500  0.53370  Biso   1.000  C
  C27      1.0000 0.09990  0.07520  0.65190  Biso   1.000  C
  C28      1.0000 0.90010  0.92480  0.34810  Biso   1.000  C
  H15      1.0000 0.03650  0.10560  0.70700  Biso   1.000  H
  H16      1.0000 0.96350  0.89440  0.29300  Biso   1.000  H
  C29      1.0000 0.45870  0.00020  0.17780  Biso   1.000  C
  C30      1.0000 0.54130  0.99980  0.82220  Biso   1.000  C
  H17      1.0000 0.46690  0.06360  0.09480  Biso   1.000  H
  H18      1.0000 0.53310  0.93640  0.90520  Biso   1.000  H
  C31      1.0000 0.86520  0.48880  0.34660  Biso   1.000  C
  C32      1.0000 0.13480  0.51120  0.65340  Biso   1.000  C
  H19      1.0000 0.81350  0.56560  0.30380  Biso   1.000  H
  H20      1.0000 0.18650  0.43440  0.69620  Biso   1.000  H
  C33      1.0000 0.96980  0.43750  0.28310  Biso   1.000  C
  C34      1.0000 0.03020  0.56250  0.71690  Biso   1.000  C
  H21      1.0000 0.98870  0.48070  0.19570  Biso   1.000  H
  H22      1.0000 0.01130  0.51930  0.80430  Biso   1.000  H
  C35      1.0000 0.83550  0.42570  0.47700  Biso   1.000  C
  C36      1.0000 0.16450  0.57430  0.52300  Biso   1.000  C
  H23      1.0000 0.76360  0.45920  0.52320  Biso   1.000  H
  H24      1.0000 0.23640  0.54080  0.47680  Biso   1.000  H
  N7       1.0000 0.24830  0.67800  0.99970  Biso   1.000  N
  N8       1.0000 0.75170  0.32200  0.00030  Biso   1.000  N
  C37      1.0000 0.18200  0.88740  0.04600  Biso   1.000  C
  C38      1.0000 0.81800  0.11260  0.95400  Biso   1.000  C
  H25      1.0000 0.16450  0.93230  0.10530  Biso   1.000  H
  H26      1.0000 0.83550  0.06770  0.89470  Biso   1.000  H
  C39      1.0000 0.22660  0.74930  0.08030  Biso   1.000  C
  C40      1.0000 0.77340  0.25070  0.91970  Biso   1.000  C
  H27      1.0000 0.24230  0.70320  0.16310  Biso   1.000  H
  H28      1.0000 0.75770  0.29680  0.83690  Biso   1.000  H
