data_image0
_cell_length_a       12.6197
_cell_length_b       12.8711
_cell_length_c       23.497
_cell_angle_alpha    82.079
_cell_angle_beta     79.725
_cell_angle_gamma    88.113

_symmetry_space_group_name_H-M    "P 1"
_symmetry_int_tables_number       1

loop_
  _symmetry_equiv_pos_as_xyz
  'x, y, z'

loop_
  _atom_site_label
  _atom_site_occupancy
  _atom_site_fract_x
  _atom_site_fract_y
  _atom_site_fract_z
  _atom_site_thermal_displace_type
  _atom_site_B_iso_or_equiv
  _atom_site_type_symbol
  Mo1      1.0000 0.89170  0.51877  0.22809  Biso   1.000  Mo
  Mo2      1.0000 0.10830  0.48123  0.77191  Biso   1.000  Mo
  Cu1      1.0000 0.54099  0.10330  0.45144  Biso   1.000  Cu
  Cu2      1.0000 0.45901  0.89670  0.54856  Biso   1.000  Cu
  Cu3      1.0000 0.55398  0.93312  0.05877  Biso   1.000  Cu
  Cu4      1.0000 0.44602  0.06688  0.94123  Biso   1.000  Cu
  P1       1.0000 0.38543  0.17367  0.49391  Biso   1.000  P
  P2       1.0000 0.61457  0.82633  0.50609  Biso   1.000  P
  P3       1.0000 0.29864  0.95823  0.52646  Biso   1.000  P
  P4       1.0000 0.70136  0.04177  0.47354  Biso   1.000  P
  P5       1.0000 0.50238  0.80110  0.01520  Biso   1.000  P
  P6       1.0000 0.49762  0.19890  0.98480  Biso   1.000  P
  P7       1.0000 0.53283  0.93404  0.89883  Biso   1.000  P
  P8       1.0000 0.46717  0.06596  0.10117  Biso   1.000  P
  S1       1.0000 0.90430  0.42063  0.14851  Biso   1.000  S
  S2       1.0000 0.09570  0.57937  0.85149  Biso   1.000  S
  S3       1.0000 0.08140  0.48183  0.21509  Biso   1.000  S
  S4       1.0000 0.91860  0.51817  0.78491  Biso   1.000  S
  S5       1.0000 0.90640  0.51988  0.32714  Biso   1.000  S
  S6       1.0000 0.09360  0.48012  0.67286  Biso   1.000  S
  S7       1.0000 0.75863  0.39114  0.26954  Biso   1.000  S
  S8       1.0000 0.24137  0.60886  0.73046  Biso   1.000  S
  S9       1.0000 0.95090  0.69725  0.21167  Biso   1.000  S
  S10      1.0000 0.04910  0.30275  0.78833  Biso   1.000  S
  S11      1.0000 0.73616  0.60034  0.19551  Biso   1.000  S
  S12      1.0000 0.26384  0.39966  0.80449  Biso   1.000  S
  N1       1.0000 0.31410  0.36250  0.12760  Biso   1.000  N
  N2       1.0000 0.68590  0.63750  0.87240  Biso   1.000  N
  N3       1.0000 0.06920  0.26150  0.04930  Biso   1.000  N
  N4       1.0000 0.93080  0.73850  0.95070  Biso   1.000  N
  N5       1.0000 0.78390  0.42590  0.48030  Biso   1.000  N
  N6       1.0000 0.21610  0.57410  0.51970  Biso   1.000  N
  N7       1.0000 0.60290  0.24980  0.40070  Biso   1.000  N
  N8       1.0000 0.39710  0.75020  0.59930  Biso   1.000  N
  N9       1.0000 0.89590  0.96970  0.15000  Biso   1.000  N
  N10      1.0000 0.10410  0.03030  0.85000  Biso   1.000  N
  N11      1.0000 0.61530  0.84370  0.13150  Biso   1.000  N
  N12      1.0000 0.38470  0.15630  0.86850  Biso   1.000  N
  N13      1.0000 0.28560  0.08950  0.52380  Biso   1.000  N
  N14      1.0000 0.71440  0.91050  0.47620  Biso   1.000  N
  H1       1.0000 0.22450  0.11480  0.53860  Biso   1.000  H
  H2       1.0000 0.77550  0.88520  0.46140  Biso   1.000  H
  N15      1.0000 0.51970  0.02000  0.38690  Biso   1.000  N
  N16      1.0000 0.48030  0.98000  0.61310  Biso   1.000  N
  N17      1.0000 0.70220  0.97380  0.01410  Biso   1.000  N
  N18      1.0000 0.29780  0.02620  0.98590  Biso   1.000  N
  N19      1.0000 0.54350  0.81990  0.94193  Biso   1.000  N
  N20      1.0000 0.45650  0.18010  0.05807  Biso   1.000  N
  H3       1.0000 0.57190  0.76740  0.92560  Biso   1.000  H
  H4       1.0000 0.42810  0.23260  0.07440  Biso   1.000  H
  N21      1.0000 0.07760  0.20010  0.53520  Biso   1.000  N
  N22      1.0000 0.92240  0.79990  0.46480  Biso   1.000  N
  N23      1.0000 0.37780  0.68520  0.26060  Biso   1.000  N
  N24      1.0000 0.62220  0.31480  0.73940  Biso   1.000  N
  C1       1.0000 0.05800  0.31600  0.08400  Biso   1.000  C
  C2       1.0000 0.94200  0.68400  0.91600  Biso   1.000  C
  C3       1.0000 0.03700  0.38220  0.12870  Biso   1.000  C
  C4       1.0000 0.96300  0.61780  0.87130  Biso   1.000  C
  C5       1.0000 0.11330  0.41110  0.15710  Biso   1.000  C
  C6       1.0000 0.88670  0.58890  0.84290  Biso   1.000  C
  C7       1.0000 0.22470  0.38360  0.14010  Biso   1.000  C
  C8       1.0000 0.77530  0.61640  0.85990  Biso   1.000  C
  C9       1.0000 0.66500  0.31020  0.37680  Biso   1.000  C
  C10      1.0000 0.33500  0.68980  0.62320  Biso   1.000  C
  C11      1.0000 0.74470  0.38210  0.34410  Biso   1.000  C
  C12      1.0000 0.25530  0.61790  0.65590  Biso   1.000  C
  C13      1.0000 0.80770  0.43720  0.36960  Biso   1.000  C
  C14      1.0000 0.19230  0.56280  0.63040  Biso   1.000  C
  C15      1.0000 0.79590  0.43050  0.43060  Biso   1.000  C
  C16      1.0000 0.20410  0.56950  0.56940  Biso   1.000  C
  C17      1.0000 0.67970  0.79360  0.15190  Biso   1.000  C
  C18      1.0000 0.32030  0.20640  0.84810  Biso   1.000  C
  C19      1.0000 0.75980  0.73180  0.17610  Biso   1.000  C
  C20      1.0000 0.24020  0.26820  0.82390  Biso   1.000  C
  C21      1.0000 0.85360  0.77470  0.18250  Biso   1.000  C
  C22      1.0000 0.14640  0.22530  0.81750  Biso   1.000  C
  C23      1.0000 0.87660  0.88330  0.16530  Biso   1.000  C
  C24      1.0000 0.12340  0.11670  0.83470  Biso   1.000  C
  C25      1.0000 0.51080  0.97330  0.35020  Biso   1.000  C
  C26      1.0000 0.48920  0.02670  0.64980  Biso   1.000  C
  C27      1.0000 0.50200  0.91210  0.30270  Biso   1.000  C
  C28      1.0000 0.49800  0.08790  0.69730  Biso   1.000  C
  C29      1.0000 0.78390  0.99700  0.98860  Biso   1.000  C
  C30      1.0000 0.21610  0.00300  0.01140  Biso   1.000  C
  C31      1.0000 0.89250  0.02640  0.95540  Biso   1.000  C
  C32      1.0000 0.10750  0.97360  0.04460  Biso   1.000  C
  C33      1.0000 0.03950  0.27190  0.54230  Biso   1.000  C
  C34      1.0000 0.96050  0.72810  0.45770  Biso   1.000  C
  C35      1.0000 0.98690  0.36730  0.55670  Biso   1.000  C
  C36      1.0000 0.01310  0.63270  0.44330  Biso   1.000  C
  H5       1.0000 0.02870  0.40150  0.57890  Biso   1.000  H
  H6       1.0000 0.97130  0.59850  0.42110  Biso   1.000  H
  H7       1.0000 0.91670  0.35190  0.57940  Biso   1.000  H
  H8       1.0000 0.08330  0.64810  0.42060  Biso   1.000  H
  H9       1.0000 0.97990  0.41260  0.52150  Biso   1.000  H
  H10      1.0000 0.02010  0.58740  0.47850  Biso   1.000  H
  C37      1.0000 0.40210  0.61100  0.24490  Biso   1.000  C
  C38      1.0000 0.59790  0.38900  0.75510  Biso   1.000  C
  C39      1.0000 0.43660  0.51500  0.22660  Biso   1.000  C
  C40      1.0000 0.56340  0.48500  0.77340  Biso   1.000  C
  H11      1.0000 0.47440  0.47620  0.25480  Biso   1.000  H
  H12      1.0000 0.52560  0.52380  0.74520  Biso   1.000  H
  H13      1.0000 0.48390  0.52710  0.18960  Biso   1.000  H
  H14      1.0000 0.51610  0.47290  0.81040  Biso   1.000  H
  H15      1.0000 0.37540  0.47580  0.22290  Biso   1.000  H
  H16      1.0000 0.62460  0.52420  0.77710  Biso   1.000  H
  C41      1.0000 0.39270  0.25710  0.54970  Biso   1.000  C
  C42      1.0000 0.60730  0.74290  0.45030  Biso   1.000  C
  C43      1.0000 0.47270  0.33090  0.53950  Biso   1.000  C
  C44      1.0000 0.52730  0.66910  0.46050  Biso   1.000  C
  H17      1.0000 0.52030  0.33830  0.50410  Biso   1.000  H
  H18      1.0000 0.47970  0.66170  0.49590  Biso   1.000  H
  C45      1.0000 0.48330  0.39440  0.58120  Biso   1.000  C
  C46      1.0000 0.51670  0.60560  0.41880  Biso   1.000  C
  H19      1.0000 0.53760  0.44410  0.57380  Biso   1.000  H
  H20      1.0000 0.46240  0.55590  0.42620  Biso   1.000  H
  C47      1.0000 0.41380  0.38370  0.63300  Biso   1.000  C
  C48      1.0000 0.58620  0.61630  0.36700  Biso   1.000  C
  H21      1.0000 0.42060  0.42650  0.66100  Biso   1.000  H
  H22      1.0000 0.57940  0.57350  0.33900  Biso   1.000  H
  C49      1.0000 0.33500  0.31150  0.64410  Biso   1.000  C
  C50      1.0000 0.66500  0.68850  0.35590  Biso   1.000  C
  H23      1.0000 0.28860  0.30440  0.67990  Biso   1.000  H
  H24      1.0000 0.71140  0.69560  0.32010  Biso   1.000  H
  C51      1.0000 0.32230  0.24740  0.60270  Biso   1.000  C
  C52      1.0000 0.67770  0.75260  0.39730  Biso   1.000  C
  H25      1.0000 0.26710  0.19860  0.61050  Biso   1.000  H
  H26      1.0000 0.73290  0.80140  0.38950  Biso   1.000  H
  C53      1.0000 0.32470  0.26100  0.43930  Biso   1.000  C
  C54      1.0000 0.67530  0.73900  0.56070  Biso   1.000  C
  C55      1.0000 0.29220  0.36210  0.44460  Biso   1.000  C
  C56      1.0000 0.70780  0.63790  0.55540  Biso   1.000  C
  H27      1.0000 0.30190  0.39110  0.47740  Biso   1.000  H
  H28      1.0000 0.69810  0.60890  0.52260  Biso   1.000  H
  C57      1.0000 0.24560  0.42160  0.40260  Biso   1.000  C
  C58      1.0000 0.75440  0.57840  0.59740  Biso   1.000  C
  H29      1.0000 0.22470  0.49040  0.40700  Biso   1.000  H
  H30      1.0000 0.77530  0.50960  0.59300  Biso   1.000  H
  C59      1.0000 0.22980  0.38100  0.35460  Biso   1.000  C
  C60      1.0000 0.77020  0.61900  0.64540  Biso   1.000  C
  H31      1.0000 0.19710  0.42140  0.32650  Biso   1.000  H
  H32      1.0000 0.80290  0.57860  0.67350  Biso   1.000  H
  C61      1.0000 0.26210  0.28010  0.34760  Biso   1.000  C
  C62      1.0000 0.73790  0.71990  0.65240  Biso   1.000  C
  H33      1.0000 0.25170  0.25200  0.31460  Biso   1.000  H
  H34      1.0000 0.74830  0.74800  0.68540  Biso   1.000  H
  C63      1.0000 0.31000  0.22030  0.38960  Biso   1.000  C
  C64      1.0000 0.69000  0.77970  0.61040  Biso   1.000  C
  H35      1.0000 0.33260  0.15220  0.38450  Biso   1.000  H
  H36      1.0000 0.66740  0.84780  0.61550  Biso   1.000  H
  C65      1.0000 0.18870  0.91200  0.58600  Biso   1.000  C
  C66      1.0000 0.81130  0.08800  0.41400  Biso   1.000  C
  C67      1.0000 0.18540  0.94200  0.64000  Biso   1.000  C
  C68      1.0000 0.81460  0.05800  0.36000  Biso   1.000  C
  H37      1.0000 0.23430  0.99140  0.64450  Biso   1.000  H
  H38      1.0000 0.76570  0.00860  0.35550  Biso   1.000  H
  C69      1.0000 0.11140  0.90060  0.68800  Biso   1.000  C
  C70      1.0000 0.88860  0.09940  0.31200  Biso   1.000  C
  H39      1.0000 0.11130  0.92060  0.72450  Biso   1.000  H
  H40      1.0000 0.88870  0.07940  0.27550  Biso   1.000  H
  C71      1.0000 0.03800  0.82930  0.68040  Biso   1.000  C
  C72      1.0000 0.96200  0.17070  0.31960  Biso   1.000  C
  H41      1.0000 0.98670  0.80190  0.71190  Biso   1.000  H
  H42      1.0000 0.01330  0.19810  0.28810  Biso   1.000  H
  C73      1.0000 0.03970  0.79870  0.62770  Biso   1.000  C
  C74      1.0000 0.96030  0.20130  0.37230  Biso   1.000  C
  H43      1.0000 0.99020  0.74970  0.62330  Biso   1.000  H
  H44      1.0000 0.00980  0.25030  0.37670  Biso   1.000  H
  C75      1.0000 0.11440  0.83980  0.57980  Biso   1.000  C
  C76      1.0000 0.88560  0.16020  0.42020  Biso   1.000  C
  H45      1.0000 0.11460  0.81860  0.54350  Biso   1.000  H
  H46      1.0000 0.88540  0.18140  0.45650  Biso   1.000  H
  C77      1.0000 0.24990  0.92340  0.46360  Biso   1.000  C
  C78      1.0000 0.75010  0.07660  0.53640  Biso   1.000  C
  C79      1.0000 0.29420  0.83500  0.44040  Biso   1.000  C
  C80      1.0000 0.70580  0.16500  0.55960  Biso   1.000  C
  H47      1.0000 0.34910  0.79770  0.45600  Biso   1.000  H
  H48      1.0000 0.65090  0.20230  0.54400  Biso   1.000  H
  C81      1.0000 0.25650  0.80240  0.39410  Biso   1.000  C
  C82      1.0000 0.74350  0.19760  0.60590  Biso   1.000  C
  H49      1.0000 0.28460  0.74190  0.37930  Biso   1.000  H
  H50      1.0000 0.71540  0.25810  0.62070  Biso   1.000  H
  C83      1.0000 0.17780  0.85910  0.37020  Biso   1.000  C
  C84      1.0000 0.82220  0.14090  0.62980  Biso   1.000  C
  H51      1.0000 0.15170  0.83650  0.33940  Biso   1.000  H
  H52      1.0000 0.84830  0.16350  0.66060  Biso   1.000  H
  C85      1.0000 0.13840  0.94660  0.39070  Biso   1.000  C
  C86      1.0000 0.86160  0.05340  0.60930  Biso   1.000  C
  H53      1.0000 0.08760  0.98630  0.37280  Biso   1.000  H
  H54      1.0000 0.91240  0.01370  0.62720  Biso   1.000  H
  C87      1.0000 0.17180  0.97910  0.43820  Biso   1.000  C
  C88      1.0000 0.82820  0.02090  0.56180  Biso   1.000  C
  H55      1.0000 0.14140  0.03880  0.45300  Biso   1.000  H
  H56      1.0000 0.85860  0.96120  0.54700  Biso   1.000  H
  C89      1.0000 0.57020  0.67770  0.03480  Biso   1.000  C
  C90      1.0000 0.42980  0.32230  0.96520  Biso   1.000  C
  C91      1.0000 0.51640  0.58440  0.05500  Biso   1.000  C
  C92      1.0000 0.48360  0.41560  0.94500  Biso   1.000  C
  H57      1.0000 0.44220  0.58180  0.05720  Biso   1.000  H
  H58      1.0000 0.55780  0.41820  0.94280  Biso   1.000  H
  C93      1.0000 0.57330  0.49450  0.07190  Biso   1.000  C
  C94      1.0000 0.42670  0.50550  0.92810  Biso   1.000  C
  H59      1.0000 0.53670  0.43220  0.08630  Biso   1.000  H
  H60      1.0000 0.46330  0.56780  0.91370  Biso   1.000  H
  C95      1.0000 0.68240  0.49700  0.06740  Biso   1.000  C
  C96      1.0000 0.31760  0.50300  0.93260  Biso   1.000  C
  H61      1.0000 0.71990  0.43660  0.07890  Biso   1.000  H
  H62      1.0000 0.28010  0.56340  0.92110  Biso   1.000  H
  C97      1.0000 0.73690  0.58840  0.04590  Biso   1.000  C
  C98      1.0000 0.26310  0.41160  0.95410  Biso   1.000  C
  H63      1.0000 0.81150  0.58950  0.04230  Biso   1.000  H
  H64      1.0000 0.18850  0.41050  0.95770  Biso   1.000  H
  C99      1.0000 0.68170  0.67910  0.02940  Biso   1.000  C
  C100     1.0000 0.31830  0.32090  0.97060  Biso   1.000  C
  H65      1.0000 0.71910  0.74090  0.01480  Biso   1.000  H
  H66      1.0000 0.28090  0.25910  0.98520  Biso   1.000  H
  C101     1.0000 0.36120  0.76150  0.02960  Biso   1.000  C
  C102     1.0000 0.63880  0.23850  0.97040  Biso   1.000  C
  C103     1.0000 0.30400  0.74660  0.98680  Biso   1.000  C
  C104     1.0000 0.69600  0.25340  0.01320  Biso   1.000  C
  H67      1.0000 0.33670  0.75760  0.94780  Biso   1.000  H
  H68      1.0000 0.66330  0.24240  0.05220  Biso   1.000  H
  C105     1.0000 0.19830  0.71550  0.00180  Biso   1.000  C
  C106     1.0000 0.80170  0.28450  0.99820  Biso   1.000  C
  H69      1.0000 0.15920  0.70770  0.97270  Biso   1.000  H
  H70      1.0000 0.84080  0.29230  0.02730  Biso   1.000  H
  C107     1.0000 0.14990  0.69580  0.05950  Biso   1.000  C
  C108     1.0000 0.85010  0.30420  0.94050  Biso   1.000  C
  H71      1.0000 0.07950  0.67160  0.06940  Biso   1.000  H
  H72      1.0000 0.92050  0.32840  0.93060  Biso   1.000  H
  C109     1.0000 0.20650  0.71210  0.10230  Biso   1.000  C
  C110     1.0000 0.79350  0.28790  0.89770  Biso   1.000  C
  H73      1.0000 0.17390  0.70030  0.14130  Biso   1.000  H
  H74      1.0000 0.82610  0.29970  0.85870  Biso   1.000  H
  C111     1.0000 0.31070  0.74580  0.08760  Biso   1.000  C
  C112     1.0000 0.68930  0.25420  0.91240  Biso   1.000  C
  H75      1.0000 0.34800  0.75840  0.11670  Biso   1.000  H
  H76      1.0000 0.65200  0.24160  0.88330  Biso   1.000  H
  C113     1.0000 0.47040  0.89350  0.84160  Biso   1.000  C
  C114     1.0000 0.52960  0.10650  0.15840  Biso   1.000  C
  C115     1.0000 0.52750  0.84300  0.79720  Biso   1.000  C
  C116     1.0000 0.47250  0.15700  0.20280  Biso   1.000  C
  H77      1.0000 0.60080  0.83040  0.79570  Biso   1.000  H
  H78      1.0000 0.39920  0.16960  0.20430  Biso   1.000  H
  C117     1.0000 0.47700  0.81110  0.75500  Biso   1.000  C
  C118     1.0000 0.52300  0.18890  0.24500  Biso   1.000  C
  H79      1.0000 0.51660  0.77720  0.72550  Biso   1.000  H
  H80      1.0000 0.48340  0.22280  0.27450  Biso   1.000  H
  C119     1.0000 0.36880  0.82900  0.75640  Biso   1.000  C
  C120     1.0000 0.63120  0.17100  0.24360  Biso   1.000  C
  H81      1.0000 0.33500  0.80830  0.72780  Biso   1.000  H
  H82      1.0000 0.66500  0.19170  0.27220  Biso   1.000  H
  C121     1.0000 0.31120  0.87760  0.80040  Biso   1.000  C
  C122     1.0000 0.68880  0.12240  0.19960  Biso   1.000  C
  H83      1.0000 0.23760  0.88890  0.80200  Biso   1.000  H
  H84      1.0000 0.76240  0.11110  0.19800  Biso   1.000  H
  C123     1.0000 0.36110  0.90990  0.84250  Biso   1.000  C
  C124     1.0000 0.63890  0.09010  0.15750  Biso   1.000  C
  H85      1.0000 0.32080  0.94320  0.87190  Biso   1.000  H
  H86      1.0000 0.67920  0.05680  0.12810  Biso   1.000  H
  C125     1.0000 0.66770  0.96680  0.85840  Biso   1.000  C
  C126     1.0000 0.33230  0.03320  0.14160  Biso   1.000  C
  C127     1.0000 0.67840  0.05990  0.82170  Biso   1.000  C
  C128     1.0000 0.32160  0.94010  0.17830  Biso   1.000  C
  H87      1.0000 0.61850  0.10310  0.81890  Biso   1.000  H
  H88      1.0000 0.38150  0.89690  0.18110  Biso   1.000  H
  C129     1.0000 0.77700  0.09020  0.78880  Biso   1.000  C
  C130     1.0000 0.22300  0.90980  0.21120  Biso   1.000  C
  H89      1.0000 0.78370  0.15390  0.76450  Biso   1.000  H
  H90      1.0000 0.21630  0.84610  0.23550  Biso   1.000  H
  C131     1.0000 0.86510  0.02580  0.79240  Biso   1.000  C
  C132     1.0000 0.13490  0.97420  0.20760  Biso   1.000  C
  H91      1.0000 0.93170  0.04590  0.77030  Biso   1.000  H
  H92      1.0000 0.06830  0.95410  0.22970  Biso   1.000  H
  C133     1.0000 0.85540  0.93300  0.82790  Biso   1.000  C
  C134     1.0000 0.14460  0.06700  0.17210  Biso   1.000  C
  H93      1.0000 0.91520  0.88900  0.82920  Biso   1.000  H
  H94      1.0000 0.08480  0.11100  0.17080  Biso   1.000  H
  C135     1.0000 0.75670  0.90240  0.86270  Biso   1.000  C
  C136     1.0000 0.24330  0.09760  0.13730  Biso   1.000  C
  H95      1.0000 0.75090  0.84010  0.88820  Biso   1.000  H
  H96      1.0000 0.24910  0.15990  0.11180  Biso   1.000  H
