data_image0
_cell_length_a       10.826
_cell_length_b       10.876
_cell_length_c       13.584
_cell_angle_alpha    98.64
_cell_angle_beta     99.09
_cell_angle_gamma    100.4

_symmetry_space_group_name_H-M    "P 1"
_symmetry_int_tables_number       1

loop_
  _symmetry_equiv_pos_as_xyz
  'x, y, z'

loop_
  _atom_site_label
  _atom_site_occupancy
  _atom_site_fract_x
  _atom_site_fract_y
  _atom_site_fract_z
  _atom_site_thermal_displace_type
  _atom_site_B_iso_or_equiv
  _atom_site_type_symbol
  Mo1      1.0000 0.79665  0.42422  0.17903  Biso   1.000  Mo
  Mo2      1.0000 0.20335  0.57578  0.82097  Biso   1.000  Mo
  O1       1.0000 0.98400  0.43190  0.08840  Biso   1.000  O
  O2       1.0000 0.01600  0.56810  0.91160  Biso   1.000  O
  O3       1.0000 0.87460  0.51660  0.03710  Biso   1.000  O
  O4       1.0000 0.12540  0.48340  0.96290  Biso   1.000  O
  O5       1.0000 0.84550  0.26370  0.14120  Biso   1.000  O
  O6       1.0000 0.15450  0.73630  0.85880  Biso   1.000  O
  O7       1.0000 0.70860  0.39110  0.26320  Biso   1.000  O
  O8       1.0000 0.29140  0.60890  0.73680  Biso   1.000  O
  O9       1.0000 0.79390  0.59920  0.17820  Biso   1.000  O
  O10      1.0000 0.20610  0.40080  0.82180  Biso   1.000  O
  O11      1.0000 0.96400  0.47800  0.26640  Biso   1.000  O
  O12      1.0000 0.03600  0.52200  0.73360  Biso   1.000  O
  O13      1.0000 0.67830  0.38480  0.05300  Biso   1.000  O
  O14      1.0000 0.32170  0.61520  0.94700  Biso   1.000  O
  Mo3      1.0000 0.96792  0.19931  0.08463  Biso   1.000  Mo
  Mo4      1.0000 0.03208  0.80069  0.91537  Biso   1.000  Mo
  Mo5      1.0000 0.13201  0.50509  0.25797  Biso   1.000  Mo
  Mo6      1.0000 0.86799  0.49491  0.74203  Biso   1.000  Mo
  P1       1.0000 0.00000  0.50000  0.00000  Biso   1.000  P
  Mo7      1.0000 0.82491  0.72163  0.10216  Biso   1.000  Mo
  Mo8      1.0000 0.17509  0.27837  0.89784  Biso   1.000  Mo
  Mo9      1.0000 0.66019  0.42060  0.92712  Biso   1.000  Mo
  Mo10     1.0000 0.33981  0.57940  0.07288  Biso   1.000  Mo
  O15      1.0000 0.86710  0.14860  0.95890  Biso   1.000  O
  O16      1.0000 0.13290  0.85140  0.04110  Biso   1.000  O
  O17      1.0000 0.96170  0.06530  0.12800  Biso   1.000  O
  O18      1.0000 0.03830  0.93470  0.87200  Biso   1.000  O
  O19      1.0000 0.10570  0.31780  0.19440  Biso   1.000  O
  O20      1.0000 0.89430  0.68220  0.80560  Biso   1.000  O
  O21      1.0000 0.00020  0.35970  0.97280  Biso   1.000  O
  O22      1.0000 0.99980  0.64030  0.02720  Biso   1.000  O
  O23      1.0000 0.12800  0.21100  0.02340  Biso   1.000  O
  O24      1.0000 0.87200  0.78900  0.97660  Biso   1.000  O
  O25      1.0000 0.11350  0.56710  0.09090  Biso   1.000  O
  O26      1.0000 0.88650  0.43290  0.90910  Biso   1.000  O
  O27      1.0000 0.19960  0.50460  0.37810  Biso   1.000  O
  O28      1.0000 0.80040  0.49540  0.62190  Biso   1.000  O
  O29      1.0000 0.15140  0.67350  0.25830  Biso   1.000  O
  O30      1.0000 0.84860  0.32650  0.74170  Biso   1.000  O
  O31      1.0000 0.28250  0.49870  0.18800  Biso   1.000  O
  O32      1.0000 0.71750  0.50130  0.81200  Biso   1.000  O
  O33      1.0000 0.98460  0.79540  0.17170  Biso   1.000  O
  O34      1.0000 0.01540  0.20460  0.82830  Biso   1.000  O
  O35      1.0000 0.74190  0.82630  0.14420  Biso   1.000  O
  O36      1.0000 0.25810  0.17370  0.85580  Biso   1.000  O
  O37      1.0000 0.69840  0.60950  0.98170  Biso   1.000  O
  O38      1.0000 0.30160  0.39050  0.01830  Biso   1.000  O
  O39      1.0000 0.50410  0.39170  0.88660  Biso   1.000  O
  O40      1.0000 0.49590  0.60830  0.11340  Biso   1.000  O
  O41      1.0000 0.70140  0.27270  0.87450  Biso   1.000  O
  O42      1.0000 0.29860  0.72730  0.12550  Biso   1.000  O
  Mo11     1.0000 0.83937  0.20367  0.83026  Biso   1.000  Mo
  Mo12     1.0000 0.16063  0.79633  0.16974  Biso   1.000  Mo
  V1       1.0000 0.25738  0.31790  0.13345  Biso   1.000  V
  V2       1.0000 0.74262  0.68210  0.86655  Biso   1.000  V
  O43      1.0000 0.76600  0.07250  0.75390  Biso   1.000  O
  O44      1.0000 0.23400  0.92750  0.24610  Biso   1.000  O
  O45      1.0000 0.35860  0.24800  0.18760  Biso   1.000  O
  O46      1.0000 0.64140  0.75200  0.81240  Biso   1.000  O
  N1       1.0000 0.63270  0.59180  0.43680  Biso   1.000  N
  N2       1.0000 0.36730  0.40820  0.56320  Biso   1.000  N
  C1       1.0000 0.59170  0.63100  0.34950  Biso   1.000  C
  C2       1.0000 0.40830  0.36900  0.65050  Biso   1.000  C
  H1       1.0000 0.56460  0.57150  0.28960  Biso   1.000  H
  H2       1.0000 0.43540  0.42850  0.71040  Biso   1.000  H
  C3       1.0000 0.58900  0.75690  0.34720  Biso   1.000  C
  C4       1.0000 0.41100  0.24310  0.65280  Biso   1.000  C
  H3       1.0000 0.56130  0.78080  0.28590  Biso   1.000  H
  H4       1.0000 0.43870  0.21920  0.71410  Biso   1.000  H
  C5       1.0000 0.62740  0.84890  0.43590  Biso   1.000  C
  C6       1.0000 0.37260  0.15110  0.56410  Biso   1.000  C
  C7       1.0000 0.62700  0.98460  0.43560  Biso   1.000  C
  C8       1.0000 0.37300  0.01540  0.56440  Biso   1.000  C
  C9       1.0000 0.55550  0.02550  0.35710  Biso   1.000  C
  C10      1.0000 0.44450  0.97450  0.64290  Biso   1.000  C
  H5       1.0000 0.50420  0.96550  0.30340  Biso   1.000  H
  H6       1.0000 0.49580  0.03450  0.69660  Biso   1.000  H
  C11      1.0000 0.55900  0.15150  0.35720  Biso   1.000  C
  C12      1.0000 0.44100  0.84850  0.64280  Biso   1.000  C
  H7       1.0000 0.50930  0.17490  0.30370  Biso   1.000  H
  H8       1.0000 0.49070  0.82510  0.69630  Biso   1.000  H
  N3       1.0000 0.63200  0.24310  0.43240  Biso   1.000  N
  N4       1.0000 0.36800  0.75690  0.56760  Biso   1.000  N
  C13      1.0000 0.69650  0.20450  0.51160  Biso   1.000  C
  C14      1.0000 0.30350  0.79550  0.48840  Biso   1.000  C
  H9       1.0000 0.74330  0.26560  0.56650  Biso   1.000  H
  H10      1.0000 0.25670  0.73440  0.43350  Biso   1.000  H
  C15      1.0000 0.69570  0.08010  0.51430  Biso   1.000  C
  C16      1.0000 0.30430  0.91990  0.48570  Biso   1.000  C
  H11      1.0000 0.74250  0.05860  0.57040  Biso   1.000  H
  H12      1.0000 0.25750  0.94140  0.42960  Biso   1.000  H
  C17      1.0000 0.66900  0.80710  0.52440  Biso   1.000  C
  C18      1.0000 0.33100  0.19290  0.47560  Biso   1.000  C
  H13      1.0000 0.69620  0.86480  0.58530  Biso   1.000  H
  H14      1.0000 0.30380  0.13520  0.41470  Biso   1.000  H
  C19      1.0000 0.67000  0.67960  0.52220  Biso   1.000  C
  C20      1.0000 0.33000  0.32040  0.47780  Biso   1.000  C
  H15      1.0000 0.69770  0.65370  0.58260  Biso   1.000  H
  H16      1.0000 0.30230  0.34630  0.41740  Biso   1.000  H
  Cu1      1.0000 0.64165  0.41897  0.43124  Biso   1.000  Cu
  Cu2      1.0000 0.35835  0.58103  0.56876  Biso   1.000  Cu
  Cu3      1.0000 0.00940  0.50440  0.51880  Biso   1.000  Cu
  Cu4      1.0000 0.99060  0.49560  0.48120  Biso   1.000  Cu
  C21      1.0000 0.99560  0.93270  0.50120  Biso   1.000  C
  C22      1.0000 0.00440  0.06730  0.49880  Biso   1.000  C
  C23      1.0000 0.95890  0.83980  0.41430  Biso   1.000  C
  C24      1.0000 0.04110  0.16020  0.58570  Biso   1.000  C
  H17      1.0000 0.93380  0.86360  0.35250  Biso   1.000  H
  H18      1.0000 0.06620  0.13640  0.64750  Biso   1.000  H
  N5       1.0000 0.99210  0.67430  0.50420  Biso   1.000  N
  N6       1.0000 0.00790  0.32570  0.49580  Biso   1.000  N
  C25      1.0000 0.95820  0.71720  0.41620  Biso   1.000  C
  C26      1.0000 0.04180  0.28280  0.58380  Biso   1.000  C
  H19      1.0000 0.93380  0.65890  0.35550  Biso   1.000  H
  H20      1.0000 0.06620  0.34110  0.64450  Biso   1.000  H
  C27      1.0000 0.02420  0.75930  0.58970  Biso   1.000  C
  C28      1.0000 0.97580  0.24070  0.41030  Biso   1.000  C
  H21      1.0000 0.04550  0.73170  0.65050  Biso   1.000  H
  H22      1.0000 0.95450  0.26830  0.34950  Biso   1.000  H
  C29      1.0000 0.02720  0.88810  0.59180  Biso   1.000  C
  C30      1.0000 0.97280  0.11190  0.40820  Biso   1.000  C
  H23      1.0000 0.05020  0.94480  0.65330  Biso   1.000  H
  H24      1.0000 0.94980  0.05520  0.34670  Biso   1.000  H
  N7       1.0000 0.59170  0.08800  0.99900  Biso   1.000  N
  N8       1.0000 0.40830  0.91200  0.00100  Biso   1.000  N
  C31      1.0000 0.52270  0.03040  0.89320  Biso   1.000  C
  C32      1.0000 0.47730  0.96960  0.10680  Biso   1.000  C
  C33      1.0000 0.61480  0.96580  0.93960  Biso   1.000  C
  C34      1.0000 0.38520  0.03420  0.06040  Biso   1.000  C
  C35      1.0000 0.64050  0.99290  0.05110  Biso   1.000  C
  C36      1.0000 0.35950  0.00710  0.94890  Biso   1.000  C
  C37      1.0000 0.59310  0.07160  0.10640  Biso   1.000  C
  C38      1.0000 0.40690  0.92840  0.89360  Biso   1.000  C
  C39      1.0000 0.49550  0.14420  0.05330  Biso   1.000  C
  C40      1.0000 0.50450  0.85580  0.94670  Biso   1.000  C
  C41      1.0000 0.47150  0.11820  0.95410  Biso   1.000  C
  C42      1.0000 0.52850  0.88180  0.04590  Biso   1.000  C
