data_image0
_cell_length_a       6.851
_cell_length_b       8.01
_cell_length_c       22.53
_cell_angle_alpha    90
_cell_angle_beta     90
_cell_angle_gamma    100.16

_symmetry_space_group_name_H-M    "P 1"
_symmetry_int_tables_number       1

loop_
  _symmetry_equiv_pos_as_xyz
  'x, y, z'

loop_
  _atom_site_label
  _atom_site_occupancy
  _atom_site_fract_x
  _atom_site_fract_y
  _atom_site_fract_z
  _atom_site_thermal_displace_type
  _atom_site_B_iso_or_equiv
  _atom_site_type_symbol
  Cu1      1.0000 0.96300  0.10500  0.19560  Biso   1.000  Cu
  Cu2      1.0000 0.53700  0.89500  0.69560  Biso   1.000  Cu
  Cu3      1.0000 0.03700  0.89500  0.80440  Biso   1.000  Cu
  Cu4      1.0000 0.46300  0.10500  0.30440  Biso   1.000  Cu
  Cu5      1.0000 0.10500  0.38000  0.29580  Biso   1.000  Cu
  Cu6      1.0000 0.39500  0.62000  0.79580  Biso   1.000  Cu
  Cu7      1.0000 0.89500  0.62000  0.70420  Biso   1.000  Cu
  Cu8      1.0000 0.60500  0.38000  0.20420  Biso   1.000  Cu
  Br1      1.0000 0.07600  0.08700  0.30220  Biso   1.000  Br
  Br2      1.0000 0.42400  0.91300  0.80220  Biso   1.000  Br
  Br3      1.0000 0.92400  0.91300  0.69780  Biso   1.000  Br
  Br4      1.0000 0.57600  0.08700  0.19780  Biso   1.000  Br
  Br5      1.0000 0.04900  0.42900  0.18150  Biso   1.000  Br
  Br6      1.0000 0.45100  0.57100  0.68150  Biso   1.000  Br
  Br7      1.0000 0.95100  0.57100  0.81850  Biso   1.000  Br
  Br8      1.0000 0.54900  0.42900  0.31850  Biso   1.000  Br
  C1       1.0000 0.01200  0.89700  0.15400  Biso   1.000  C
  C2       1.0000 0.48800  0.10300  0.65400  Biso   1.000  C
  C3       1.0000 0.98800  0.10300  0.84600  Biso   1.000  C
  C4       1.0000 0.51200  0.89700  0.34600  Biso   1.000  C
  C5       1.0000 0.82100  0.89400  0.16000  Biso   1.000  C
  C6       1.0000 0.67900  0.10600  0.66000  Biso   1.000  C
  C7       1.0000 0.17900  0.10600  0.84000  Biso   1.000  C
  C8       1.0000 0.32100  0.89400  0.34000  Biso   1.000  C
  C9       1.0000 0.70100  0.75500  0.19300  Biso   1.000  C
  C10      1.0000 0.79900  0.24500  0.69300  Biso   1.000  C
  C11      1.0000 0.29900  0.24500  0.80700  Biso   1.000  C
  C12      1.0000 0.20100  0.75500  0.30700  Biso   1.000  C
  C13      1.0000 0.60700  0.60000  0.15700  Biso   1.000  C
  C14      1.0000 0.89300  0.40000  0.65700  Biso   1.000  C
  C15      1.0000 0.39300  0.40000  0.84300  Biso   1.000  C
  C16      1.0000 0.10700  0.60000  0.34300  Biso   1.000  C
  C17      1.0000 0.60000  0.48000  0.12200  Biso   1.000  C
  C18      1.0000 0.90000  0.52000  0.62200  Biso   1.000  C
  C19      1.0000 0.40000  0.52000  0.87800  Biso   1.000  C
  C20      1.0000 0.10000  0.48000  0.37800  Biso   1.000  C
  C21      1.0000 0.61100  0.36900  0.07200  Biso   1.000  C
  C22      1.0000 0.88900  0.63100  0.57200  Biso   1.000  C
  C23      1.0000 0.38900  0.63100  0.92800  Biso   1.000  C
  C24      1.0000 0.11100  0.36900  0.42800  Biso   1.000  C
  C25      1.0000 0.78800  0.34800  0.05100  Biso   1.000  C
  C26      1.0000 0.71200  0.65200  0.55100  Biso   1.000  C
  C27      1.0000 0.21200  0.65200  0.94900  Biso   1.000  C
  C28      1.0000 0.28800  0.34800  0.44900  Biso   1.000  C
  C29      1.0000 0.79600  0.24600  0.99800  Biso   1.000  C
  C30      1.0000 0.70400  0.75400  0.49800  Biso   1.000  C
  C31      1.0000 0.20400  0.75400  0.00200  Biso   1.000  C
  C32      1.0000 0.29600  0.24600  0.50200  Biso   1.000  C
  C33      1.0000 0.61400  0.18500  0.96800  Biso   1.000  C
  C34      1.0000 0.88600  0.81500  0.46800  Biso   1.000  C
  C35      1.0000 0.38600  0.81500  0.03200  Biso   1.000  C
  C36      1.0000 0.11400  0.18500  0.53200  Biso   1.000  C
  C37      1.0000 0.44300  0.17300  0.99800  Biso   1.000  C
  C38      1.0000 0.05700  0.82700  0.49800  Biso   1.000  C
  C39      1.0000 0.55700  0.82700  0.00200  Biso   1.000  C
  C40      1.0000 0.94300  0.17300  0.50200  Biso   1.000  C
  C41      1.0000 0.44300  0.28500  0.04900  Biso   1.000  C
  C42      1.0000 0.05700  0.71500  0.54900  Biso   1.000  C
  C43      1.0000 0.55700  0.71500  0.95100  Biso   1.000  C
  C44      1.0000 0.94300  0.28500  0.45100  Biso   1.000  C
  H1       1.0000 0.04700  0.78900  0.17500  Biso   1.000  H
  H2       1.0000 0.45300  0.21100  0.67500  Biso   1.000  H
  H3       1.0000 0.95300  0.21100  0.82500  Biso   1.000  H
  H4       1.0000 0.54700  0.78900  0.32500  Biso   1.000  H
  H5       1.0000 0.08200  0.00000  0.12700  Biso   1.000  H
  H6       1.0000 0.41800  0.00000  0.62700  Biso   1.000  H
  H7       1.0000 0.91800  0.00000  0.87300  Biso   1.000  H
  H8       1.0000 0.58200  0.00000  0.37300  Biso   1.000  H
  H9       1.0000 0.29000  0.98700  0.13200  Biso   1.000  H
  H10      1.0000 0.21000  0.01300  0.63200  Biso   1.000  H
  H11      1.0000 0.71000  0.01300  0.86800  Biso   1.000  H
  H12      1.0000 0.79000  0.98700  0.36800  Biso   1.000  H
  H13      1.0000 0.57500  0.80100  0.21100  Biso   1.000  H
  H14      1.0000 0.92500  0.19900  0.71100  Biso   1.000  H
  H15      1.0000 0.42500  0.19900  0.78900  Biso   1.000  H
  H16      1.0000 0.07500  0.80100  0.28900  Biso   1.000  H
  H17      1.0000 0.81400  0.71700  0.22200  Biso   1.000  H
  H18      1.0000 0.68600  0.28300  0.72200  Biso   1.000  H
  H19      1.0000 0.18600  0.28300  0.77800  Biso   1.000  H
  H20      1.0000 0.31400  0.71700  0.27800  Biso   1.000  H
  H21      1.0000 0.91700  0.42700  0.06500  Biso   1.000  H
  H22      1.0000 0.58300  0.57300  0.56500  Biso   1.000  H
  H23      1.0000 0.08300  0.57300  0.93500  Biso   1.000  H
  H24      1.0000 0.41700  0.42700  0.43500  Biso   1.000  H
  H25      1.0000 0.93800  0.24500  0.97700  Biso   1.000  H
  H26      1.0000 0.56200  0.75500  0.47700  Biso   1.000  H
  H27      1.0000 0.06200  0.75500  0.02300  Biso   1.000  H
  H28      1.0000 0.43800  0.24500  0.52300  Biso   1.000  H
  H29      1.0000 0.59000  0.15800  0.93100  Biso   1.000  H
  H30      1.0000 0.91000  0.84200  0.43100  Biso   1.000  H
  H31      1.0000 0.41000  0.84200  0.06900  Biso   1.000  H
  H32      1.0000 0.09000  0.15800  0.56900  Biso   1.000  H
  H33      1.0000 0.32600  0.09500  0.98100  Biso   1.000  H
  H34      1.0000 0.17400  0.90500  0.48100  Biso   1.000  H
  H35      1.0000 0.67400  0.90500  0.01900  Biso   1.000  H
  H36      1.0000 0.82600  0.09500  0.51900  Biso   1.000  H
  H37      1.0000 0.29600  0.31200  0.06500  Biso   1.000  H
  H38      1.0000 0.20400  0.68800  0.56500  Biso   1.000  H
  H39      1.0000 0.70400  0.68800  0.93500  Biso   1.000  H
  H40      1.0000 0.79600  0.31200  0.43500  Biso   1.000  H
