data_image0
_cell_length_a       15.675
_cell_length_b       11.791
_cell_length_c       11.316
_cell_angle_alpha    90
_cell_angle_beta     130.913
_cell_angle_gamma    90

_symmetry_space_group_name_H-M    "P 1"
_symmetry_int_tables_number       1

loop_
  _symmetry_equiv_pos_as_xyz
  'x, y, z'

loop_
  _atom_site_label
  _atom_site_occupancy
  _atom_site_fract_x
  _atom_site_fract_y
  _atom_site_fract_z
  _atom_site_thermal_displace_type
  _atom_site_B_iso_or_equiv
  _atom_site_type_symbol
  Cu1      1.0000 0.00000  0.03428  0.75000  Biso   1.000  Cu
  Cu2      1.0000 0.50000  0.53428  0.75000  Biso   1.000  Cu
  Cu3      1.0000 0.00000  0.96572  0.25000  Biso   1.000  Cu
  Cu4      1.0000 0.50000  0.46572  0.25000  Biso   1.000  Cu
  Cl1      1.0000 0.00000  0.68238  0.75000  Biso   1.000  Cl
  Cl2      1.0000 0.50000  0.18238  0.75000  Biso   1.000  Cl
  Cl3      1.0000 0.00000  0.31762  0.25000  Biso   1.000  Cl
  Cl4      1.0000 0.50000  0.81762  0.25000  Biso   1.000  Cl
  O1       1.0000 0.88180  0.70030  0.62250  Biso   1.000  O
  O2       1.0000 0.38180  0.20030  0.62250  Biso   1.000  O
  O3       1.0000 0.11820  0.70030  0.87750  Biso   1.000  O
  O4       1.0000 0.61820  0.20030  0.87750  Biso   1.000  O
  O5       1.0000 0.11820  0.29970  0.37750  Biso   1.000  O
  O6       1.0000 0.61820  0.79970  0.37750  Biso   1.000  O
  O7       1.0000 0.88180  0.29970  0.12250  Biso   1.000  O
  O8       1.0000 0.38180  0.79970  0.12250  Biso   1.000  O
  O9       1.0000 0.03400  0.67470  0.65600  Biso   1.000  O
  O10      1.0000 0.53400  0.17470  0.65600  Biso   1.000  O
  O11      1.0000 0.96600  0.67470  0.84400  Biso   1.000  O
  O12      1.0000 0.46600  0.17470  0.84400  Biso   1.000  O
  O13      1.0000 0.96600  0.32530  0.34400  Biso   1.000  O
  O14      1.0000 0.46600  0.82530  0.34400  Biso   1.000  O
  O15      1.0000 0.03400  0.32530  0.15600  Biso   1.000  O
  O16      1.0000 0.53400  0.82530  0.15600  Biso   1.000  O
  O17      1.0000 0.03350  0.58950  0.83490  Biso   1.000  O
  O18      1.0000 0.53350  0.08950  0.83490  Biso   1.000  O
  O19      1.0000 0.96650  0.58950  0.66510  Biso   1.000  O
  O20      1.0000 0.46650  0.08950  0.66510  Biso   1.000  O
  O21      1.0000 0.96650  0.41050  0.16510  Biso   1.000  O
  O22      1.0000 0.46650  0.91050  0.16510  Biso   1.000  O
  O23      1.0000 0.03350  0.41050  0.33490  Biso   1.000  O
  O24      1.0000 0.53350  0.91050  0.33490  Biso   1.000  O
  O25      1.0000 0.05400  0.77440  0.80730  Biso   1.000  O
  O26      1.0000 0.55400  0.27440  0.80730  Biso   1.000  O
  O27      1.0000 0.94600  0.77440  0.69270  Biso   1.000  O
  O28      1.0000 0.44600  0.27440  0.69270  Biso   1.000  O
  O29      1.0000 0.94600  0.22560  0.19270  Biso   1.000  O
  O30      1.0000 0.44600  0.72560  0.19270  Biso   1.000  O
  O31      1.0000 0.05400  0.22560  0.30730  Biso   1.000  O
  O32      1.0000 0.55400  0.72560  0.30730  Biso   1.000  O
  N1       1.0000 0.10100  0.03230  0.71550  Biso   1.000  N
  N2       1.0000 0.60100  0.53230  0.71550  Biso   1.000  N
  N3       1.0000 0.89900  0.03230  0.78450  Biso   1.000  N
  N4       1.0000 0.39900  0.53230  0.78450  Biso   1.000  N
  N5       1.0000 0.89900  0.96770  0.28450  Biso   1.000  N
  N6       1.0000 0.39900  0.46770  0.28450  Biso   1.000  N
  N7       1.0000 0.10100  0.96770  0.21550  Biso   1.000  N
  N8       1.0000 0.60100  0.46770  0.21550  Biso   1.000  N
  N9       1.0000 0.23640  0.97600  0.71990  Biso   1.000  N
  N10      1.0000 0.73640  0.47600  0.71990  Biso   1.000  N
  N11      1.0000 0.76360  0.97600  0.78010  Biso   1.000  N
  N12      1.0000 0.26360  0.47600  0.78010  Biso   1.000  N
  N13      1.0000 0.76360  0.02400  0.28010  Biso   1.000  N
  N14      1.0000 0.26360  0.52400  0.28010  Biso   1.000  N
  N15      1.0000 0.23640  0.02400  0.21990  Biso   1.000  N
  N16      1.0000 0.73640  0.52400  0.21990  Biso   1.000  N
  C1       1.0000 0.10380  0.10190  0.62140  Biso   1.000  C
  C2       1.0000 0.60380  0.60190  0.62140  Biso   1.000  C
  C3       1.0000 0.89620  0.10190  0.87860  Biso   1.000  C
  C4       1.0000 0.39620  0.60190  0.87860  Biso   1.000  C
  C5       1.0000 0.89620  0.89810  0.37860  Biso   1.000  C
  C6       1.0000 0.39620  0.39810  0.37860  Biso   1.000  C
  C7       1.0000 0.10380  0.89810  0.12140  Biso   1.000  C
  C8       1.0000 0.60380  0.39810  0.12140  Biso   1.000  C
  H1       1.0000 0.05460  0.16430  0.56350  Biso   1.000  H
  H2       1.0000 0.55460  0.66430  0.56350  Biso   1.000  H
  H3       1.0000 0.94540  0.16430  0.93650  Biso   1.000  H
  H4       1.0000 0.44540  0.66430  0.93650  Biso   1.000  H
  H5       1.0000 0.94540  0.83570  0.43650  Biso   1.000  H
  H6       1.0000 0.44540  0.33570  0.43650  Biso   1.000  H
  H7       1.0000 0.05460  0.83570  0.06350  Biso   1.000  H
  H8       1.0000 0.55460  0.33570  0.06350  Biso   1.000  H
  C9       1.0000 0.18200  0.95690  0.77210  Biso   1.000  C
  C10      1.0000 0.68200  0.45690  0.77210  Biso   1.000  C
  C11      1.0000 0.81800  0.95690  0.72790  Biso   1.000  C
  C12      1.0000 0.31800  0.45690  0.72790  Biso   1.000  C
  C13      1.0000 0.81800  0.04310  0.22790  Biso   1.000  C
  C14      1.0000 0.31800  0.54310  0.22790  Biso   1.000  C
  C15      1.0000 0.18200  0.04310  0.27210  Biso   1.000  C
  C16      1.0000 0.68200  0.54310  0.27210  Biso   1.000  C
  H9       1.0000 0.19920  0.89700  0.84090  Biso   1.000  H
  H10      1.0000 0.69920  0.39700  0.84090  Biso   1.000  H
  H11      1.0000 0.80080  0.89700  0.65910  Biso   1.000  H
  H12      1.0000 0.30080  0.39700  0.65910  Biso   1.000  H
  H13      1.0000 0.80080  0.10300  0.15910  Biso   1.000  H
  H14      1.0000 0.30080  0.60300  0.15910  Biso   1.000  H
  H15      1.0000 0.19920  0.10300  0.34090  Biso   1.000  H
  H16      1.0000 0.69920  0.60300  0.34090  Biso   1.000  H
  C17      1.0000 0.18700  0.06830  0.62350  Biso   1.000  C
  C18      1.0000 0.68700  0.56830  0.62350  Biso   1.000  C
  C19      1.0000 0.81300  0.06830  0.87650  Biso   1.000  C
  C20      1.0000 0.31300  0.56830  0.87650  Biso   1.000  C
  C21      1.0000 0.81300  0.93170  0.37650  Biso   1.000  C
  C22      1.0000 0.31300  0.43170  0.37650  Biso   1.000  C
  C23      1.0000 0.18700  0.93170  0.12350  Biso   1.000  C
  C24      1.0000 0.68700  0.43170  0.12350  Biso   1.000  C
  H17      1.0000 0.20730  0.10220  0.56870  Biso   1.000  H
  H18      1.0000 0.70730  0.60220  0.56870  Biso   1.000  H
  H19      1.0000 0.79270  0.10220  0.93130  Biso   1.000  H
  H20      1.0000 0.29270  0.60220  0.93130  Biso   1.000  H
  H21      1.0000 0.79270  0.89780  0.43130  Biso   1.000  H
  H22      1.0000 0.29270  0.39780  0.43130  Biso   1.000  H
  H23      1.0000 0.20730  0.89780  0.06870  Biso   1.000  H
  H24      1.0000 0.70730  0.39780  0.06870  Biso   1.000  H
  C25      1.0000 0.32680  0.90680  0.75200  Biso   1.000  C
  C26      1.0000 0.82680  0.40680  0.75200  Biso   1.000  C
  C27      1.0000 0.67320  0.90680  0.74800  Biso   1.000  C
  C28      1.0000 0.17320  0.40680  0.74800  Biso   1.000  C
  C29      1.0000 0.67320  0.09320  0.24800  Biso   1.000  C
  C30      1.0000 0.17320  0.59320  0.24800  Biso   1.000  C
  C31      1.0000 0.32680  0.09320  0.25200  Biso   1.000  C
  C32      1.0000 0.82680  0.59320  0.25200  Biso   1.000  C
  H25      1.0000 0.36220  0.86190  0.84810  Biso   1.000  H
  H26      1.0000 0.86220  0.36190  0.84810  Biso   1.000  H
  H27      1.0000 0.63780  0.86190  0.65190  Biso   1.000  H
  H28      1.0000 0.13780  0.36190  0.65190  Biso   1.000  H
  H29      1.0000 0.63780  0.13810  0.15190  Biso   1.000  H
  H30      1.0000 0.13780  0.63810  0.15190  Biso   1.000  H
  H31      1.0000 0.36220  0.13810  0.34810  Biso   1.000  H
  H32      1.0000 0.86220  0.63810  0.34810  Biso   1.000  H
  H33      1.0000 0.38530  0.95710  0.77130  Biso   1.000  H
  H34      1.0000 0.88530  0.45710  0.77130  Biso   1.000  H
  H35      1.0000 0.61470  0.95710  0.72870  Biso   1.000  H
  H36      1.0000 0.11470  0.45710  0.72870  Biso   1.000  H
  H37      1.0000 0.61470  0.04290  0.22870  Biso   1.000  H
  H38      1.0000 0.11470  0.54290  0.22870  Biso   1.000  H
  H39      1.0000 0.38530  0.04290  0.27130  Biso   1.000  H
  H40      1.0000 0.88530  0.54290  0.27130  Biso   1.000  H
  C33      1.0000 0.28470  0.82690  0.61830  Biso   1.000  C
  C34      1.0000 0.78470  0.32690  0.61830  Biso   1.000  C
  C35      1.0000 0.71530  0.82690  0.88170  Biso   1.000  C
  C36      1.0000 0.21530  0.32690  0.88170  Biso   1.000  C
  C37      1.0000 0.71530  0.17310  0.38170  Biso   1.000  C
  C38      1.0000 0.21530  0.67310  0.38170  Biso   1.000  C
  C39      1.0000 0.28470  0.17310  0.11830  Biso   1.000  C
  C40      1.0000 0.78470  0.67310  0.11830  Biso   1.000  C
  C41      1.0000 0.19560  0.75310  0.55760  Biso   1.000  C
  C42      1.0000 0.69560  0.25310  0.55760  Biso   1.000  C
  C43      1.0000 0.80440  0.75310  0.94240  Biso   1.000  C
  C44      1.0000 0.30440  0.25310  0.94240  Biso   1.000  C
  C45      1.0000 0.80440  0.24690  0.44240  Biso   1.000  C
  C46      1.0000 0.30440  0.74690  0.44240  Biso   1.000  C
  C47      1.0000 0.19560  0.24690  0.05760  Biso   1.000  C
  C48      1.0000 0.69560  0.74690  0.05760  Biso   1.000  C
  H41      1.0000 0.15760  0.75480  0.59700  Biso   1.000  H
  H42      1.0000 0.65760  0.25480  0.59700  Biso   1.000  H
  H43      1.0000 0.84240  0.75480  0.90300  Biso   1.000  H
  H44      1.0000 0.34240  0.25480  0.90300  Biso   1.000  H
  H45      1.0000 0.84240  0.24520  0.40300  Biso   1.000  H
  H46      1.0000 0.34240  0.74520  0.40300  Biso   1.000  H
  H47      1.0000 0.15760  0.24520  0.09700  Biso   1.000  H
  H48      1.0000 0.65760  0.74520  0.09700  Biso   1.000  H
  C49      1.0000 0.33880  0.82290  0.55930  Biso   1.000  C
  C50      1.0000 0.83880  0.32290  0.55930  Biso   1.000  C
  C51      1.0000 0.66120  0.82290  0.94070  Biso   1.000  C
  C52      1.0000 0.16120  0.32290  0.94070  Biso   1.000  C
  C53      1.0000 0.66120  0.17710  0.44070  Biso   1.000  C
  C54      1.0000 0.16120  0.67710  0.44070  Biso   1.000  C
  C55      1.0000 0.33880  0.17710  0.05930  Biso   1.000  C
  C56      1.0000 0.83880  0.67710  0.05930  Biso   1.000  C
  H49      1.0000 0.40010  0.87280  0.59930  Biso   1.000  H
  H50      1.0000 0.90010  0.37280  0.59930  Biso   1.000  H
  H51      1.0000 0.59990  0.87280  0.90070  Biso   1.000  H
  H52      1.0000 0.09990  0.37280  0.90070  Biso   1.000  H
  H53      1.0000 0.59990  0.12720  0.40070  Biso   1.000  H
  H54      1.0000 0.09990  0.62720  0.40070  Biso   1.000  H
  H55      1.0000 0.40010  0.12720  0.09930  Biso   1.000  H
  H56      1.0000 0.90010  0.62720  0.09930  Biso   1.000  H
