data_image0
_cell_length_a       20.417
_cell_length_b       16.598
_cell_length_c       15.912
_cell_angle_alpha    90
_cell_angle_beta     90
_cell_angle_gamma    90

_symmetry_space_group_name_H-M    "P 1"
_symmetry_int_tables_number       1

loop_
  _symmetry_equiv_pos_as_xyz
  'x, y, z'

loop_
  _atom_site_label
  _atom_site_occupancy
  _atom_site_fract_x
  _atom_site_fract_y
  _atom_site_fract_z
  _atom_site_thermal_displace_type
  _atom_site_B_iso_or_equiv
  _atom_site_type_symbol
  F1       1.0000 0.50000  0.09910  0.30100  Biso   1.000  F
  F2       1.0000 0.50000  0.90090  0.80100  Biso   1.000  F
  F3       1.0000 0.00000  0.59910  0.30100  Biso   1.000  F
  F4       1.0000 0.00000  0.40090  0.80100  Biso   1.000  F
  F5       1.0000 0.44220  0.02350  0.25450  Biso   1.000  F
  F6       1.0000 0.55780  0.97650  0.75450  Biso   1.000  F
  F7       1.0000 0.55780  0.02350  0.25450  Biso   1.000  F
  F8       1.0000 0.44220  0.97650  0.75450  Biso   1.000  F
  F9       1.0000 0.94220  0.52350  0.25450  Biso   1.000  F
  F10      1.0000 0.05780  0.47650  0.75450  Biso   1.000  F
  F11      1.0000 0.05780  0.52350  0.25450  Biso   1.000  F
  F12      1.0000 0.94220  0.47650  0.75450  Biso   1.000  F
  F13      1.0000 0.50000  0.94330  0.24510  Biso   1.000  F
  F14      1.0000 0.50000  0.05670  0.74510  Biso   1.000  F
  F15      1.0000 0.00000  0.44330  0.24510  Biso   1.000  F
  F16      1.0000 0.00000  0.55670  0.74510  Biso   1.000  F
  F17      1.0000 0.50000  0.05980  0.15950  Biso   1.000  F
  F18      1.0000 0.50000  0.94020  0.65950  Biso   1.000  F
  F19      1.0000 0.00000  0.55980  0.15950  Biso   1.000  F
  F20      1.0000 0.00000  0.44020  0.65950  Biso   1.000  F
  F21      1.0000 0.19740  0.18270  0.05300  Biso   1.000  F
  F22      1.0000 0.80260  0.81730  0.55300  Biso   1.000  F
  F23      1.0000 0.80260  0.18270  0.05300  Biso   1.000  F
  F24      1.0000 0.19740  0.81730  0.55300  Biso   1.000  F
  F25      1.0000 0.69740  0.68270  0.05300  Biso   1.000  F
  F26      1.0000 0.30260  0.31730  0.55300  Biso   1.000  F
  F27      1.0000 0.30260  0.68270  0.05300  Biso   1.000  F
  F28      1.0000 0.69740  0.31730  0.55300  Biso   1.000  F
  F29      1.0000 0.15050  0.16320  0.92770  Biso   1.000  F
  F30      1.0000 0.84950  0.83680  0.42770  Biso   1.000  F
  F31      1.0000 0.84950  0.16320  0.92770  Biso   1.000  F
  F32      1.0000 0.15050  0.83680  0.42770  Biso   1.000  F
  F33      1.0000 0.65050  0.66320  0.92770  Biso   1.000  F
  F34      1.0000 0.34950  0.33680  0.42770  Biso   1.000  F
  F35      1.0000 0.34950  0.66320  0.92770  Biso   1.000  F
  F36      1.0000 0.65050  0.33680  0.42770  Biso   1.000  F
  F37      1.0000 0.24820  0.22330  0.93830  Biso   1.000  F
  F38      1.0000 0.75180  0.77670  0.43830  Biso   1.000  F
  F39      1.0000 0.75180  0.22330  0.93830  Biso   1.000  F
  F40      1.0000 0.24820  0.77670  0.43830  Biso   1.000  F
  F41      1.0000 0.74820  0.72330  0.93830  Biso   1.000  F
  F42      1.0000 0.25180  0.27670  0.43830  Biso   1.000  F
  F43      1.0000 0.25180  0.72330  0.93830  Biso   1.000  F
  F44      1.0000 0.74820  0.27670  0.43830  Biso   1.000  F
  F45      1.0000 0.23430  0.09380  0.95760  Biso   1.000  F
  F46      1.0000 0.76570  0.90620  0.45760  Biso   1.000  F
  F47      1.0000 0.76570  0.09380  0.95760  Biso   1.000  F
  F48      1.0000 0.23430  0.90620  0.45760  Biso   1.000  F
  F49      1.0000 0.73430  0.59380  0.95760  Biso   1.000  F
  F50      1.0000 0.26570  0.40620  0.45760  Biso   1.000  F
  F51      1.0000 0.26570  0.59380  0.95760  Biso   1.000  F
  F52      1.0000 0.73430  0.40620  0.45760  Biso   1.000  F
  N1       1.0000 0.30400  0.10360  0.60300  Biso   1.000  N
  N2       1.0000 0.69600  0.89640  0.10300  Biso   1.000  N
  N3       1.0000 0.69600  0.10360  0.60300  Biso   1.000  N
  N4       1.0000 0.30400  0.89640  0.10300  Biso   1.000  N
  N5       1.0000 0.80400  0.60360  0.60300  Biso   1.000  N
  N6       1.0000 0.19600  0.39640  0.10300  Biso   1.000  N
  N7       1.0000 0.19600  0.60360  0.60300  Biso   1.000  N
  N8       1.0000 0.80400  0.39640  0.10300  Biso   1.000  N
  N9       1.0000 0.37900  0.94820  0.49560  Biso   1.000  N
  N10      1.0000 0.62100  0.05180  0.99560  Biso   1.000  N
  N11      1.0000 0.62100  0.94820  0.49560  Biso   1.000  N
  N12      1.0000 0.37900  0.05180  0.99560  Biso   1.000  N
  N13      1.0000 0.87900  0.44820  0.49560  Biso   1.000  N
  N14      1.0000 0.12100  0.55180  0.99560  Biso   1.000  N
  N15      1.0000 0.12100  0.44820  0.49560  Biso   1.000  N
  N16      1.0000 0.87900  0.55180  0.99560  Biso   1.000  N
  N17      1.0000 0.30790  0.09900  0.38890  Biso   1.000  N
  N18      1.0000 0.69210  0.90100  0.88890  Biso   1.000  N
  N19      1.0000 0.69210  0.09900  0.38890  Biso   1.000  N
  N20      1.0000 0.30790  0.90100  0.88890  Biso   1.000  N
  N21      1.0000 0.80790  0.59900  0.38890  Biso   1.000  N
  N22      1.0000 0.19210  0.40100  0.88890  Biso   1.000  N
  N23      1.0000 0.19210  0.59900  0.38890  Biso   1.000  N
  N24      1.0000 0.80790  0.40100  0.88890  Biso   1.000  N
  N25      1.0000 0.44180  0.13220  0.50970  Biso   1.000  N
  N26      1.0000 0.55820  0.86780  0.00970  Biso   1.000  N
  N27      1.0000 0.55820  0.13220  0.50970  Biso   1.000  N
  N28      1.0000 0.44180  0.86780  0.00970  Biso   1.000  N
  N29      1.0000 0.94180  0.63220  0.50970  Biso   1.000  N
  N30      1.0000 0.05820  0.36780  0.00970  Biso   1.000  N
  N31      1.0000 0.05820  0.63220  0.50970  Biso   1.000  N
  N32      1.0000 0.94180  0.36780  0.00970  Biso   1.000  N
  N33      1.0000 0.21790  0.17400  0.66960  Biso   1.000  N
  N34      1.0000 0.78210  0.82600  0.16960  Biso   1.000  N
  N35      1.0000 0.78210  0.17400  0.66960  Biso   1.000  N
  N36      1.0000 0.21790  0.82600  0.16960  Biso   1.000  N
  N37      1.0000 0.71790  0.67400  0.66960  Biso   1.000  N
  N38      1.0000 0.28210  0.32600  0.16960  Biso   1.000  N
  N39      1.0000 0.28210  0.67400  0.66960  Biso   1.000  N
  N40      1.0000 0.71790  0.32600  0.16960  Biso   1.000  N
  N41      1.0000 0.19190  0.33940  0.75680  Biso   1.000  N
  N42      1.0000 0.80810  0.66060  0.25680  Biso   1.000  N
  N43      1.0000 0.80810  0.33940  0.75680  Biso   1.000  N
  N44      1.0000 0.19190  0.66060  0.25680  Biso   1.000  N
  N45      1.0000 0.69190  0.83940  0.75680  Biso   1.000  N
  N46      1.0000 0.30810  0.16060  0.25680  Biso   1.000  N
  N47      1.0000 0.30810  0.83940  0.75680  Biso   1.000  N
  N48      1.0000 0.69190  0.16060  0.25680  Biso   1.000  N
  N49      1.0000 0.05870  0.21230  0.71830  Biso   1.000  N
  N50      1.0000 0.94130  0.78770  0.21830  Biso   1.000  N
  N51      1.0000 0.94130  0.21230  0.71830  Biso   1.000  N
  N52      1.0000 0.05870  0.78770  0.21830  Biso   1.000  N
  N53      1.0000 0.55870  0.71230  0.71830  Biso   1.000  N
  N54      1.0000 0.44130  0.28770  0.21830  Biso   1.000  N
  N55      1.0000 0.44130  0.71230  0.71830  Biso   1.000  N
  N56      1.0000 0.55870  0.28770  0.21830  Biso   1.000  N
  N57      1.0000 0.12570  0.31910  0.56240  Biso   1.000  N
  N58      1.0000 0.87430  0.68090  0.06240  Biso   1.000  N
  N59      1.0000 0.87430  0.31910  0.56240  Biso   1.000  N
  N60      1.0000 0.12570  0.68090  0.06240  Biso   1.000  N
  N61      1.0000 0.62570  0.81910  0.56240  Biso   1.000  N
  N62      1.0000 0.37430  0.18090  0.06240  Biso   1.000  N
  N63      1.0000 0.37430  0.81910  0.56240  Biso   1.000  N
  N64      1.0000 0.62570  0.18090  0.06240  Biso   1.000  N
  Cu1      1.0000 0.35574  0.06859  0.49691  Biso   1.000  Cu
  Cu2      1.0000 0.64426  0.93141  0.99691  Biso   1.000  Cu
  Cu3      1.0000 0.64426  0.06859  0.49691  Biso   1.000  Cu
  Cu4      1.0000 0.35574  0.93141  0.99691  Biso   1.000  Cu
  Cu5      1.0000 0.85574  0.56859  0.49691  Biso   1.000  Cu
  Cu6      1.0000 0.14426  0.43141  0.99691  Biso   1.000  Cu
  Cu7      1.0000 0.14426  0.56859  0.49691  Biso   1.000  Cu
  Cu8      1.0000 0.85574  0.43141  0.99691  Biso   1.000  Cu
  Cu9      1.0000 0.14454  0.25877  0.67074  Biso   1.000  Cu
  Cu10     1.0000 0.85546  0.74123  0.17074  Biso   1.000  Cu
  Cu11     1.0000 0.85546  0.25877  0.67074  Biso   1.000  Cu
  Cu12     1.0000 0.14454  0.74123  0.17074  Biso   1.000  Cu
  Cu13     1.0000 0.64454  0.75877  0.67074  Biso   1.000  Cu
  Cu14     1.0000 0.35546  0.24123  0.17074  Biso   1.000  Cu
  Cu15     1.0000 0.35546  0.75877  0.67074  Biso   1.000  Cu
  Cu16     1.0000 0.64454  0.24123  0.17074  Biso   1.000  Cu
  C1       1.0000 0.25240  0.14960  0.60220  Biso   1.000  C
  C2       1.0000 0.74760  0.85040  0.10220  Biso   1.000  C
  C3       1.0000 0.74760  0.14960  0.60220  Biso   1.000  C
  C4       1.0000 0.25240  0.85040  0.10220  Biso   1.000  C
  C5       1.0000 0.75240  0.64960  0.60220  Biso   1.000  C
  C6       1.0000 0.24760  0.35040  0.10220  Biso   1.000  C
  C7       1.0000 0.24760  0.64960  0.60220  Biso   1.000  C
  C8       1.0000 0.75240  0.35040  0.10220  Biso   1.000  C
  H1       1.0000 0.23810  0.16750  0.54990  Biso   1.000  H
  H2       1.0000 0.76190  0.83250  0.04990  Biso   1.000  H
  H3       1.0000 0.76190  0.16750  0.54990  Biso   1.000  H
  H4       1.0000 0.23810  0.83250  0.04990  Biso   1.000  H
  H5       1.0000 0.73810  0.66750  0.54990  Biso   1.000  H
  H6       1.0000 0.26190  0.33250  0.04990  Biso   1.000  H
  H7       1.0000 0.26190  0.66750  0.54990  Biso   1.000  H
  H8       1.0000 0.73810  0.33250  0.04990  Biso   1.000  H
  C9       1.0000 0.24180  0.14870  0.74370  Biso   1.000  C
  C10      1.0000 0.75820  0.85130  0.24370  Biso   1.000  C
  C11      1.0000 0.75820  0.14870  0.74370  Biso   1.000  C
  C12      1.0000 0.24180  0.85130  0.24370  Biso   1.000  C
  C13      1.0000 0.74180  0.64870  0.74370  Biso   1.000  C
  C14      1.0000 0.25820  0.35130  0.24370  Biso   1.000  C
  C15      1.0000 0.25820  0.64870  0.74370  Biso   1.000  C
  C16      1.0000 0.74180  0.35130  0.24370  Biso   1.000  C
  H9       1.0000 0.22140  0.16680  0.79240  Biso   1.000  H
  H10      1.0000 0.77860  0.83320  0.29240  Biso   1.000  H
  H11      1.0000 0.77860  0.16680  0.79240  Biso   1.000  H
  H12      1.0000 0.22140  0.83320  0.29240  Biso   1.000  H
  H13      1.0000 0.72140  0.66680  0.79240  Biso   1.000  H
  H14      1.0000 0.27860  0.33320  0.29240  Biso   1.000  H
  H15      1.0000 0.27860  0.66680  0.79240  Biso   1.000  H
  H16      1.0000 0.72140  0.33320  0.29240  Biso   1.000  H
  C17      1.0000 0.29380  0.09840  0.75210  Biso   1.000  C
  C18      1.0000 0.70620  0.90160  0.25210  Biso   1.000  C
  C19      1.0000 0.70620  0.09840  0.75210  Biso   1.000  C
  C20      1.0000 0.29380  0.90160  0.25210  Biso   1.000  C
  C21      1.0000 0.79380  0.59840  0.75210  Biso   1.000  C
  C22      1.0000 0.20620  0.40160  0.25210  Biso   1.000  C
  C23      1.0000 0.20620  0.59840  0.75210  Biso   1.000  C
  C24      1.0000 0.79380  0.40160  0.25210  Biso   1.000  C
  H17      1.0000 0.30670  0.07810  0.80390  Biso   1.000  H
  H18      1.0000 0.69330  0.92190  0.30390  Biso   1.000  H
  H19      1.0000 0.69330  0.07810  0.80390  Biso   1.000  H
  H20      1.0000 0.30670  0.92190  0.30390  Biso   1.000  H
  H21      1.0000 0.80670  0.57810  0.80390  Biso   1.000  H
  H22      1.0000 0.19330  0.42190  0.30390  Biso   1.000  H
  H23      1.0000 0.19330  0.57810  0.80390  Biso   1.000  H
  H24      1.0000 0.80670  0.42190  0.30390  Biso   1.000  H
  C25      1.0000 0.32660  0.07920  0.67750  Biso   1.000  C
  C26      1.0000 0.67340  0.92080  0.17750  Biso   1.000  C
  C27      1.0000 0.67340  0.07920  0.67750  Biso   1.000  C
  C28      1.0000 0.32660  0.92080  0.17750  Biso   1.000  C
  C29      1.0000 0.82660  0.57920  0.67750  Biso   1.000  C
  C30      1.0000 0.17340  0.42080  0.17750  Biso   1.000  C
  C31      1.0000 0.17340  0.57920  0.67750  Biso   1.000  C
  C32      1.0000 0.82660  0.42080  0.17750  Biso   1.000  C
  H25      1.0000 0.36490  0.04900  0.67990  Biso   1.000  H
  H26      1.0000 0.63510  0.95100  0.17990  Biso   1.000  H
  H27      1.0000 0.63510  0.04900  0.67990  Biso   1.000  H
  H28      1.0000 0.36490  0.95100  0.17990  Biso   1.000  H
  H29      1.0000 0.86490  0.54900  0.67990  Biso   1.000  H
  H30      1.0000 0.13510  0.45100  0.17990  Biso   1.000  H
  H31      1.0000 0.13510  0.54900  0.67990  Biso   1.000  H
  H32      1.0000 0.86490  0.45100  0.17990  Biso   1.000  H
  C33      1.0000 0.33600  0.13730  0.32830  Biso   1.000  C
  C34      1.0000 0.66400  0.86270  0.82830  Biso   1.000  C
  C35      1.0000 0.66400  0.13730  0.32830  Biso   1.000  C
  C36      1.0000 0.33600  0.86270  0.82830  Biso   1.000  C
  C37      1.0000 0.83600  0.63730  0.32830  Biso   1.000  C
  C38      1.0000 0.16400  0.36270  0.82830  Biso   1.000  C
  C39      1.0000 0.16400  0.63730  0.32830  Biso   1.000  C
  C40      1.0000 0.83600  0.36270  0.82830  Biso   1.000  C
  H33      1.0000 0.38000  0.14980  0.33530  Biso   1.000  H
  H34      1.0000 0.62000  0.85020  0.83530  Biso   1.000  H
  H35      1.0000 0.62000  0.14980  0.33530  Biso   1.000  H
  H36      1.0000 0.38000  0.85020  0.83530  Biso   1.000  H
  H37      1.0000 0.88000  0.64980  0.33530  Biso   1.000  H
  H38      1.0000 0.12000  0.35020  0.83530  Biso   1.000  H
  H39      1.0000 0.12000  0.64980  0.33530  Biso   1.000  H
  H40      1.0000 0.88000  0.35020  0.83530  Biso   1.000  H
  C41      1.0000 0.24520  0.08020  0.37960  Biso   1.000  C
  C42      1.0000 0.75480  0.91980  0.87960  Biso   1.000  C
  C43      1.0000 0.75480  0.08020  0.37960  Biso   1.000  C
  C44      1.0000 0.24520  0.91980  0.87960  Biso   1.000  C
  C45      1.0000 0.74520  0.58020  0.37960  Biso   1.000  C
  C46      1.0000 0.25480  0.41980  0.87960  Biso   1.000  C
  C47      1.0000 0.25480  0.58020  0.37960  Biso   1.000  C
  C48      1.0000 0.74520  0.41980  0.87960  Biso   1.000  C
  H41      1.0000 0.22320  0.05390  0.42280  Biso   1.000  H
  H42      1.0000 0.77680  0.94610  0.92280  Biso   1.000  H
  H43      1.0000 0.77680  0.05390  0.42280  Biso   1.000  H
  H44      1.0000 0.22320  0.94610  0.92280  Biso   1.000  H
  H45      1.0000 0.72320  0.55390  0.42280  Biso   1.000  H
  H46      1.0000 0.27680  0.44610  0.92280  Biso   1.000  H
  H47      1.0000 0.27680  0.55390  0.42280  Biso   1.000  H
  H48      1.0000 0.72320  0.44610  0.92280  Biso   1.000  H
  C49      1.0000 0.21200  0.09940  0.30610  Biso   1.000  C
  C50      1.0000 0.78800  0.90060  0.80610  Biso   1.000  C
  C51      1.0000 0.78800  0.09940  0.30610  Biso   1.000  C
  C52      1.0000 0.21200  0.90060  0.80610  Biso   1.000  C
  C53      1.0000 0.71200  0.59940  0.30610  Biso   1.000  C
  C54      1.0000 0.28800  0.40060  0.80610  Biso   1.000  C
  C55      1.0000 0.28800  0.59940  0.30610  Biso   1.000  C
  C56      1.0000 0.71200  0.40060  0.80610  Biso   1.000  C
  H49      1.0000 0.16870  0.08410  0.29730  Biso   1.000  H
  H50      1.0000 0.83130  0.91590  0.79730  Biso   1.000  H
  H51      1.0000 0.83130  0.08410  0.29730  Biso   1.000  H
  H52      1.0000 0.16870  0.91590  0.79730  Biso   1.000  H
  H53      1.0000 0.66870  0.58410  0.29730  Biso   1.000  H
  H54      1.0000 0.33130  0.41590  0.79730  Biso   1.000  H
  H55      1.0000 0.33130  0.58410  0.29730  Biso   1.000  H
  H56      1.0000 0.66870  0.41590  0.79730  Biso   1.000  H
  C57      1.0000 0.25340  0.35780  0.74750  Biso   1.000  C
  C58      1.0000 0.74660  0.64220  0.24750  Biso   1.000  C
  C59      1.0000 0.74660  0.35780  0.74750  Biso   1.000  C
  C60      1.0000 0.25340  0.64220  0.24750  Biso   1.000  C
  C61      1.0000 0.75340  0.85780  0.74750  Biso   1.000  C
  C62      1.0000 0.24660  0.14220  0.24750  Biso   1.000  C
  C63      1.0000 0.24660  0.85780  0.74750  Biso   1.000  C
  C64      1.0000 0.75340  0.14220  0.24750  Biso   1.000  C
  H57      1.0000 0.27480  0.34120  0.69880  Biso   1.000  H
  H58      1.0000 0.72520  0.65880  0.19880  Biso   1.000  H
  H59      1.0000 0.72520  0.34120  0.69880  Biso   1.000  H
  H60      1.0000 0.27480  0.65880  0.19880  Biso   1.000  H
  H61      1.0000 0.77480  0.84120  0.69880  Biso   1.000  H
  H62      1.0000 0.22520  0.15880  0.19880  Biso   1.000  H
  H63      1.0000 0.22520  0.84120  0.69880  Biso   1.000  H
  H64      1.0000 0.77480  0.15880  0.19880  Biso   1.000  H
  C65      1.0000 0.00000  0.23890  0.69270  Biso   1.000  C
  C66      1.0000 0.00000  0.76110  0.19270  Biso   1.000  C
  C67      1.0000 0.50000  0.73890  0.69270  Biso   1.000  C
  C68      1.0000 0.50000  0.26110  0.19270  Biso   1.000  C
  H65      1.0000 0.00000  0.28000  0.65310  Biso   1.000  H
  H66      1.0000 0.00000  0.72000  0.15310  Biso   1.000  H
  H67      1.0000 0.50000  0.78000  0.65310  Biso   1.000  H
  H68      1.0000 0.50000  0.22000  0.15310  Biso   1.000  H
  C69      1.0000 0.00000  0.11900  0.80380  Biso   1.000  C
  C70      1.0000 0.00000  0.88100  0.30380  Biso   1.000  C
  C71      1.0000 0.50000  0.61900  0.80380  Biso   1.000  C
  C72      1.0000 0.50000  0.38100  0.30380  Biso   1.000  C
  H69      1.0000 0.00000  0.07770  0.84320  Biso   1.000  H
  H70      1.0000 0.00000  0.92230  0.34320  Biso   1.000  H
  H71      1.0000 0.50000  0.57770  0.84320  Biso   1.000  H
  H72      1.0000 0.50000  0.42230  0.34320  Biso   1.000  H
  C73      1.0000 0.05570  0.15230  0.77200  Biso   1.000  C
  C74      1.0000 0.94430  0.84770  0.27200  Biso   1.000  C
  C75      1.0000 0.94430  0.15230  0.77200  Biso   1.000  C
  C76      1.0000 0.05570  0.84770  0.27200  Biso   1.000  C
  C77      1.0000 0.55570  0.65230  0.77200  Biso   1.000  C
  C78      1.0000 0.44430  0.34770  0.27200  Biso   1.000  C
  C79      1.0000 0.44430  0.65230  0.77200  Biso   1.000  C
  C80      1.0000 0.55570  0.34770  0.27200  Biso   1.000  C
  H73      1.0000 0.09520  0.13050  0.78990  Biso   1.000  H
  H74      1.0000 0.90480  0.86950  0.28990  Biso   1.000  H
  H75      1.0000 0.90480  0.13050  0.78990  Biso   1.000  H
  H76      1.0000 0.09520  0.86950  0.28990  Biso   1.000  H
  H77      1.0000 0.59520  0.63050  0.78990  Biso   1.000  H
  H78      1.0000 0.40480  0.36950  0.28990  Biso   1.000  H
  H79      1.0000 0.40480  0.63050  0.78990  Biso   1.000  H
  H80      1.0000 0.59520  0.36950  0.28990  Biso   1.000  H
  C81      1.0000 0.36470  0.89850  0.56010  Biso   1.000  C
  C82      1.0000 0.63530  0.10150  0.06010  Biso   1.000  C
  C83      1.0000 0.63530  0.89850  0.56010  Biso   1.000  C
  C84      1.0000 0.36470  0.10150  0.06010  Biso   1.000  C
  C85      1.0000 0.86470  0.39850  0.56010  Biso   1.000  C
  C86      1.0000 0.13530  0.60150  0.06010  Biso   1.000  C
  C87      1.0000 0.13530  0.39850  0.56010  Biso   1.000  C
  C88      1.0000 0.86470  0.60150  0.06010  Biso   1.000  C
  H81      1.0000 0.34640  0.92190  0.60770  Biso   1.000  H
  H82      1.0000 0.65360  0.07810  0.10770  Biso   1.000  H
  H83      1.0000 0.65360  0.92190  0.60770  Biso   1.000  H
  H84      1.0000 0.34640  0.07810  0.10770  Biso   1.000  H
  H85      1.0000 0.84640  0.42190  0.60770  Biso   1.000  H
  H86      1.0000 0.15360  0.57810  0.10770  Biso   1.000  H
  H87      1.0000 0.15360  0.42190  0.60770  Biso   1.000  H
  H88      1.0000 0.84640  0.57810  0.10770  Biso   1.000  H
  C89      1.0000 0.40620  0.91090  0.42900  Biso   1.000  C
  C90      1.0000 0.59380  0.08910  0.92900  Biso   1.000  C
  C91      1.0000 0.59380  0.91090  0.42900  Biso   1.000  C
  C92      1.0000 0.40620  0.08910  0.92900  Biso   1.000  C
  C93      1.0000 0.90620  0.41090  0.42900  Biso   1.000  C
  C94      1.0000 0.09380  0.58910  0.92900  Biso   1.000  C
  C95      1.0000 0.09380  0.41090  0.42900  Biso   1.000  C
  C96      1.0000 0.90620  0.58910  0.92900  Biso   1.000  C
  H89      1.0000 0.41830  0.94250  0.38330  Biso   1.000  H
  H90      1.0000 0.58170  0.05750  0.88330  Biso   1.000  H
  H91      1.0000 0.58170  0.94250  0.38330  Biso   1.000  H
  H92      1.0000 0.41830  0.05750  0.88330  Biso   1.000  H
  H93      1.0000 0.91830  0.44250  0.38330  Biso   1.000  H
  H94      1.0000 0.08170  0.55750  0.88330  Biso   1.000  H
  H95      1.0000 0.08170  0.44250  0.38330  Biso   1.000  H
  H96      1.0000 0.91830  0.55750  0.88330  Biso   1.000  H
  C97      1.0000 0.41700  0.83240  0.42400  Biso   1.000  C
  C98      1.0000 0.58300  0.16760  0.92400  Biso   1.000  C
  C99      1.0000 0.58300  0.83240  0.42400  Biso   1.000  C
  C100     1.0000 0.41700  0.16760  0.92400  Biso   1.000  C
  C101     1.0000 0.91700  0.33240  0.42400  Biso   1.000  C
  C102     1.0000 0.08300  0.66760  0.92400  Biso   1.000  C
  C103     1.0000 0.08300  0.33240  0.42400  Biso   1.000  C
  C104     1.0000 0.91700  0.66760  0.92400  Biso   1.000  C
  H97      1.0000 0.43520  0.80900  0.37630  Biso   1.000  H
  H98      1.0000 0.56480  0.19100  0.87630  Biso   1.000  H
  H99      1.0000 0.56480  0.80900  0.37630  Biso   1.000  H
  H100     1.0000 0.43520  0.19100  0.87630  Biso   1.000  H
  H101     1.0000 0.93520  0.30900  0.37630  Biso   1.000  H
  H102     1.0000 0.06480  0.69100  0.87630  Biso   1.000  H
  H103     1.0000 0.06480  0.30900  0.37630  Biso   1.000  H
  H104     1.0000 0.93520  0.69100  0.87630  Biso   1.000  H
  C105     1.0000 0.10050  0.28660  0.49470  Biso   1.000  C
  C106     1.0000 0.89950  0.71340  0.99470  Biso   1.000  C
  C107     1.0000 0.89950  0.28660  0.49470  Biso   1.000  C
  C108     1.0000 0.10050  0.71340  0.99470  Biso   1.000  C
  C109     1.0000 0.60050  0.78660  0.49470  Biso   1.000  C
  C110     1.0000 0.39950  0.21340  0.99470  Biso   1.000  C
  C111     1.0000 0.39950  0.78660  0.49470  Biso   1.000  C
  C112     1.0000 0.60050  0.21340  0.99470  Biso   1.000  C
  H105     1.0000 0.09400  0.23120  0.49340  Biso   1.000  H
  H106     1.0000 0.90600  0.76880  0.99340  Biso   1.000  H
  H107     1.0000 0.90600  0.23120  0.49340  Biso   1.000  H
  H108     1.0000 0.09400  0.76880  0.99340  Biso   1.000  H
  H109     1.0000 0.59400  0.73120  0.49340  Biso   1.000  H
  H110     1.0000 0.40600  0.26880  0.99340  Biso   1.000  H
  H111     1.0000 0.40600  0.73120  0.49340  Biso   1.000  H
  H112     1.0000 0.59400  0.26880  0.99340  Biso   1.000  H
  C113     1.0000 0.44220  0.20810  0.52780  Biso   1.000  C
  C114     1.0000 0.55780  0.79190  0.02780  Biso   1.000  C
  C115     1.0000 0.55780  0.20810  0.52780  Biso   1.000  C
  C116     1.0000 0.44220  0.79190  0.02780  Biso   1.000  C
  C117     1.0000 0.94220  0.70810  0.52780  Biso   1.000  C
  C118     1.0000 0.05780  0.29190  0.02780  Biso   1.000  C
  C119     1.0000 0.05780  0.70810  0.52780  Biso   1.000  C
  C120     1.0000 0.94220  0.29190  0.02780  Biso   1.000  C
  H113     1.0000 0.40270  0.23560  0.53130  Biso   1.000  H
  H114     1.0000 0.59730  0.76440  0.03130  Biso   1.000  H
  H115     1.0000 0.59730  0.23560  0.53130  Biso   1.000  H
  H116     1.0000 0.40270  0.76440  0.03130  Biso   1.000  H
  H117     1.0000 0.90270  0.73560  0.53130  Biso   1.000  H
  H118     1.0000 0.09730  0.26440  0.03130  Biso   1.000  H
  H119     1.0000 0.09730  0.73560  0.53130  Biso   1.000  H
  H120     1.0000 0.90270  0.26440  0.03130  Biso   1.000  H
  C121     1.0000 0.50000  0.24970  0.54230  Biso   1.000  C
  C122     1.0000 0.50000  0.75030  0.04230  Biso   1.000  C
  C123     1.0000 0.00000  0.74970  0.54230  Biso   1.000  C
  C124     1.0000 0.00000  0.25030  0.04230  Biso   1.000  C
  H121     1.0000 0.50000  0.30280  0.56080  Biso   1.000  H
  H122     1.0000 0.50000  0.69720  0.06080  Biso   1.000  H
  H123     1.0000 0.00000  0.80280  0.56080  Biso   1.000  H
  H124     1.0000 0.00000  0.19720  0.06080  Biso   1.000  H
  C125     1.0000 0.50000  0.09840  0.49990  Biso   1.000  C
  C126     1.0000 0.50000  0.90160  0.99990  Biso   1.000  C
  C127     1.0000 0.00000  0.59840  0.49990  Biso   1.000  C
  C128     1.0000 0.00000  0.40160  0.99990  Biso   1.000  C
  H125     1.0000 0.50000  0.04440  0.48430  Biso   1.000  H
  H126     1.0000 0.50000  0.95560  0.98430  Biso   1.000  H
  H127     1.0000 0.00000  0.54440  0.48430  Biso   1.000  H
  H128     1.0000 0.00000  0.45560  0.98430  Biso   1.000  H
  B1       1.0000 0.50000  0.02850  0.23560  Biso   1.000  B
  B2       1.0000 0.50000  0.97150  0.73560  Biso   1.000  B
  B3       1.0000 0.00000  0.52850  0.23560  Biso   1.000  B
  B4       1.0000 0.00000  0.47150  0.73560  Biso   1.000  B
  B5       1.0000 0.20560  0.15810  0.97030  Biso   1.000  B
  B6       1.0000 0.79440  0.84190  0.47030  Biso   1.000  B
  B7       1.0000 0.79440  0.15810  0.97030  Biso   1.000  B
  B8       1.0000 0.20560  0.84190  0.47030  Biso   1.000  B
  B9       1.0000 0.70560  0.65810  0.97030  Biso   1.000  B
  B10      1.0000 0.29440  0.34190  0.47030  Biso   1.000  B
  B11      1.0000 0.29440  0.65810  0.97030  Biso   1.000  B
  B12      1.0000 0.70560  0.34190  0.47030  Biso   1.000  B
  C129     1.0000 0.00000  0.03760  0.52380  Biso   1.000  C
  C130     1.0000 0.00000  0.96240  0.02380  Biso   1.000  C
  C131     1.0000 0.50000  0.53760  0.52380  Biso   1.000  C
  C132     1.0000 0.50000  0.46240  0.02380  Biso   1.000  C
  C133     1.0000 0.14100  0.01230  0.64080  Biso   1.000  C
  C134     1.0000 0.85900  0.98770  0.14080  Biso   1.000  C
  C135     1.0000 0.85900  0.01230  0.64080  Biso   1.000  C
  C136     1.0000 0.14100  0.98770  0.14080  Biso   1.000  C
  C137     1.0000 0.64100  0.51230  0.64080  Biso   1.000  C
  C138     1.0000 0.35900  0.48770  0.14080  Biso   1.000  C
  C139     1.0000 0.35900  0.51230  0.64080  Biso   1.000  C
  C140     1.0000 0.64100  0.48770  0.14080  Biso   1.000  C
  C141     1.0000 0.12990  0.07540  0.53400  Biso   1.000  C
  C142     1.0000 0.87010  0.92460  0.03400  Biso   1.000  C
  C143     1.0000 0.87010  0.07540  0.53400  Biso   1.000  C
  C144     1.0000 0.12990  0.92460  0.03400  Biso   1.000  C
  C145     1.0000 0.62990  0.57540  0.53400  Biso   1.000  C
  C146     1.0000 0.37010  0.42460  0.03400  Biso   1.000  C
  C147     1.0000 0.37010  0.57540  0.53400  Biso   1.000  C
  C148     1.0000 0.62990  0.42460  0.03400  Biso   1.000  C
  C149     1.0000 0.00000  0.17470  0.37390  Biso   1.000  C
  C150     1.0000 0.00000  0.82530  0.87390  Biso   1.000  C
  C151     1.0000 0.50000  0.67470  0.37390  Biso   1.000  C
  C152     1.0000 0.50000  0.32530  0.87390  Biso   1.000  C
  C153     1.0000 0.04990  0.07130  0.34110  Biso   1.000  C
  C154     1.0000 0.95010  0.92870  0.84110  Biso   1.000  C
  C155     1.0000 0.95010  0.07130  0.34110  Biso   1.000  C
  C156     1.0000 0.04990  0.92870  0.84110  Biso   1.000  C
  C157     1.0000 0.54990  0.57130  0.34110  Biso   1.000  C
  C158     1.0000 0.45010  0.42870  0.84110  Biso   1.000  C
  C159     1.0000 0.45010  0.57130  0.34110  Biso   1.000  C
  C160     1.0000 0.54990  0.42870  0.84110  Biso   1.000  C
  C161     1.0000 0.11970  0.03380  0.58760  Biso   1.000  C
  C162     1.0000 0.88030  0.96620  0.08760  Biso   1.000  C
  C163     1.0000 0.88030  0.03380  0.58760  Biso   1.000  C
  C164     1.0000 0.11970  0.96620  0.08760  Biso   1.000  C
  C165     1.0000 0.61970  0.53380  0.58760  Biso   1.000  C
  C166     1.0000 0.38030  0.46620  0.08760  Biso   1.000  C
  C167     1.0000 0.38030  0.53380  0.58760  Biso   1.000  C
  C168     1.0000 0.61970  0.46620  0.08760  Biso   1.000  C
