data_image0
_cell_length_a       10.177
_cell_length_b       11.855
_cell_length_c       13.009
_cell_angle_alpha    100.42
_cell_angle_beta     100.3
_cell_angle_gamma    115.33

_symmetry_space_group_name_H-M    "P 1"
_symmetry_int_tables_number       1

loop_
  _symmetry_equiv_pos_as_xyz
  'x, y, z'

loop_
  _atom_site_label
  _atom_site_occupancy
  _atom_site_fract_x
  _atom_site_fract_y
  _atom_site_fract_z
  _atom_site_thermal_displace_type
  _atom_site_B_iso_or_equiv
  _atom_site_type_symbol
  Cu1      1.0000 0.93254  0.90713  0.40396  Biso   1.000  Cu
  Cu2      1.0000 0.06746  0.09287  0.59604  Biso   1.000  Cu
  I1       1.0000 0.13114  0.15029  0.42107  Biso   1.000  I
  I2       1.0000 0.86886  0.84971  0.57893  Biso   1.000  I
  N1       1.0000 0.01570  0.79180  0.33380  Biso   1.000  N
  N2       1.0000 0.98430  0.20820  0.66620  Biso   1.000  N
  N3       1.0000 0.05530  0.66570  0.20660  Biso   1.000  N
  N4       1.0000 0.94470  0.33430  0.79340  Biso   1.000  N
  N5       1.0000 0.74440  0.86170  0.28100  Biso   1.000  N
  N6       1.0000 0.25560  0.13830  0.71900  Biso   1.000  N
  N7       1.0000 0.60230  0.87740  0.13710  Biso   1.000  N
  N8       1.0000 0.39770  0.12260  0.86290  Biso   1.000  N
  C1       1.0000 0.96120  0.71210  0.23510  Biso   1.000  C
  C2       1.0000 0.03880  0.28790  0.76490  Biso   1.000  C
  H1       1.0000 0.86730  0.68930  0.18860  Biso   1.000  H
  H2       1.0000 0.13270  0.31070  0.81140  Biso   1.000  H
  C3       1.0000 0.15540  0.79750  0.37560  Biso   1.000  C
  C4       1.0000 0.84460  0.20250  0.62440  Biso   1.000  C
  C5       1.0000 0.26150  0.86640  0.47590  Biso   1.000  C
  C6       1.0000 0.73850  0.13360  0.52410  Biso   1.000  C
  H3       1.0000 0.24690  0.92080  0.52850  Biso   1.000  H
  H4       1.0000 0.75310  0.07920  0.47150  Biso   1.000  H
  C7       1.0000 0.39030  0.85180  0.49540  Biso   1.000  C
  C8       1.0000 0.60970  0.14820  0.50460  Biso   1.000  C
  H5       1.0000 0.46170  0.89430  0.56370  Biso   1.000  H
  H6       1.0000 0.53830  0.10570  0.43630  Biso   1.000  H
  C9       1.0000 0.41650  0.77430  0.41460  Biso   1.000  C
  C10      1.0000 0.58350  0.22570  0.58540  Biso   1.000  C
  H7       1.0000 0.50600  0.76880  0.42980  Biso   1.000  H
  H8       1.0000 0.49400  0.23120  0.57020  Biso   1.000  H
  C11      1.0000 0.31330  0.70740  0.31480  Biso   1.000  C
  C12      1.0000 0.68670  0.29260  0.68520  Biso   1.000  C
  H9       1.0000 0.33010  0.65610  0.26110  Biso   1.000  H
  H10      1.0000 0.66990  0.34390  0.73890  Biso   1.000  H
  C13      1.0000 0.18310  0.71880  0.29680  Biso   1.000  C
  C14      1.0000 0.81690  0.28120  0.70320  Biso   1.000  C
  C15      1.0000 0.02810  0.58110  0.10170  Biso   1.000  C
  C16      1.0000 0.97190  0.41890  0.89830  Biso   1.000  C
  C17      1.0000 0.01080  0.45620  0.09460  Biso   1.000  C
  C18      1.0000 0.98920  0.54380  0.90540  Biso   1.000  C
  C19      1.0000 0.02270  0.40810  0.18730  Biso   1.000  C
  C20      1.0000 0.97730  0.59190  0.81270  Biso   1.000  C
  H11      1.0000 0.04100  0.46100  0.25600  Biso   1.000  H
  H12      1.0000 0.95900  0.53900  0.74400  Biso   1.000  H
  C21      1.0000 0.00770  0.28640  0.17690  Biso   1.000  C
  C22      1.0000 0.99230  0.71360  0.82310  Biso   1.000  C
  H13      1.0000 0.01830  0.25760  0.23830  Biso   1.000  H
  H14      1.0000 0.98170  0.74240  0.76170  Biso   1.000  H
  C23      1.0000 0.97640  0.20470  0.07340  Biso   1.000  C
  C24      1.0000 0.02360  0.79530  0.92660  Biso   1.000  C
  H15      1.0000 0.96390  0.12100  0.06720  Biso   1.000  H
  H16      1.0000 0.03610  0.87900  0.93280  Biso   1.000  H
  C25      1.0000 0.96360  0.24360  0.98190  Biso   1.000  C
  C26      1.0000 0.03640  0.75640  0.01810  Biso   1.000  C
  H17      1.0000 0.94330  0.18700  0.91460  Biso   1.000  H
  H18      1.0000 0.05670  0.81300  0.08540  Biso   1.000  H
  C27      1.0000 0.01860  0.62840  0.01140  Biso   1.000  C
  C28      1.0000 0.98140  0.37160  0.98860  Biso   1.000  C
  C29      1.0000 0.72470  0.94180  0.22800  Biso   1.000  C
  C30      1.0000 0.27530  0.05820  0.77200  Biso   1.000  C
  H19      1.0000 0.78720  0.03160  0.25040  Biso   1.000  H
  H20      1.0000 0.21280  0.96840  0.74960  Biso   1.000  H
  C31      1.0000 0.62620  0.73730  0.22200  Biso   1.000  C
  C32      1.0000 0.37380  0.26270  0.77800  Biso   1.000  C
  C33      1.0000 0.59130  0.61850  0.24160  Biso   1.000  C
  C34      1.0000 0.40870  0.38150  0.75840  Biso   1.000  C
  H21      1.0000 0.64870  0.61210  0.30230  Biso   1.000  H
  H22      1.0000 0.35130  0.38790  0.69770  Biso   1.000  H
  C35      1.0000 0.46790  0.50960  0.16730  Biso   1.000  C
  C36      1.0000 0.53210  0.49040  0.83270  Biso   1.000  C
  H23      1.0000 0.44200  0.42830  0.17830  Biso   1.000  H
  H24      1.0000 0.55800  0.57170  0.82170  Biso   1.000  H
  C37      1.0000 0.38040  0.51840  0.07580  Biso   1.000  C
  C38      1.0000 0.61960  0.48160  0.92420  Biso   1.000  C
  H25      1.0000 0.29850  0.44270  0.02740  Biso   1.000  H
  H26      1.0000 0.70150  0.55730  0.97260  Biso   1.000  H
  C39      1.0000 0.41260  0.63590  0.05560  Biso   1.000  C
  C40      1.0000 0.58740  0.36410  0.94440  Biso   1.000  C
  H27      1.0000 0.35440  0.64190  0.99510  Biso   1.000  H
  H28      1.0000 0.64560  0.35810  0.00490  Biso   1.000  H
  C41      1.0000 0.53680  0.74540  0.13080  Biso   1.000  C
  C42      1.0000 0.46320  0.25460  0.86920  Biso   1.000  C
  C43      1.0000 0.54890  0.93820  0.06600  Biso   1.000  C
  C44      1.0000 0.45110  0.06180  0.93400  Biso   1.000  C
  C45      1.0000 0.46010  0.99370  0.09920  Biso   1.000  C
  C46      1.0000 0.53990  0.00630  0.90080  Biso   1.000  C
  C47      1.0000 0.41720  0.98750  0.19720  Biso   1.000  C
  C48      1.0000 0.58280  0.01250  0.80280  Biso   1.000  C
  H29      1.0000 0.44680  0.94440  0.24170  Biso   1.000  H
  H30      1.0000 0.55320  0.05560  0.75830  Biso   1.000  H
  C49      1.0000 0.33200  0.04530  0.22600  Biso   1.000  C
  C50      1.0000 0.66800  0.95470  0.77400  Biso   1.000  C
  H31      1.0000 0.30420  0.04050  0.29000  Biso   1.000  H
  H32      1.0000 0.69580  0.95950  0.71000  Biso   1.000  H
  C51      1.0000 0.28650  0.11160  0.16040  Biso   1.000  C
  C52      1.0000 0.71350  0.88840  0.83960  Biso   1.000  C
  H33      1.0000 0.23010  0.15090  0.18190  Biso   1.000  H
  H34      1.0000 0.76990  0.84910  0.81810  Biso   1.000  H
  C53      1.0000 0.32450  0.11890  0.06470  Biso   1.000  C
  C54      1.0000 0.67550  0.88110  0.93530  Biso   1.000  C
  H35      1.0000 0.29360  0.16300  0.02190  Biso   1.000  H
  H36      1.0000 0.70640  0.83700  0.97810  Biso   1.000  H
  C55      1.0000 0.58870  0.94100  0.96910  Biso   1.000  C
  C56      1.0000 0.41130  0.05900  0.03090  Biso   1.000  C
  C57      1.0000 0.27420  0.61550  0.58500  Biso   1.000  C
  C58      1.0000 0.72580  0.38450  0.41500  Biso   1.000  C
  Cl1      1.0000 0.43860  0.59860  0.58330  Biso   1.000  Cl
  Cl2      1.0000 0.56140  0.40140  0.41670  Biso   1.000  Cl
  Cl3      1.0000 0.28800  0.62200  0.72480  Biso   1.000  Cl
  Cl4      1.0000 0.71200  0.37800  0.27520  Biso   1.000  Cl
  Cl5      1.0000 0.08500  0.51500  0.49900  Biso   1.000  Cl
  Cl6      1.0000 0.91500  0.48500  0.50100  Biso   1.000  Cl
  Cl7      1.0000 0.13930  0.44870  0.54790  Biso   1.000  Cl
  Cl8      1.0000 0.86070  0.55130  0.45210  Biso   1.000  Cl
  Cl9      1.0000 0.29390  0.68020  0.72360  Biso   1.000  Cl
  Cl10     1.0000 0.70610  0.31980  0.27640  Biso   1.000  Cl
  O1       1.0000 0.93300  0.34700  0.42820  Biso   1.000  O
  O2       1.0000 0.06700  0.65300  0.57180  Biso   1.000  O
