data_image0
_cell_length_a       9.876
_cell_length_b       9.295
_cell_length_c       22.594
_cell_angle_alpha    90
_cell_angle_beta     106.8
_cell_angle_gamma    90

_symmetry_space_group_name_H-M    "P 1"
_symmetry_int_tables_number       1

loop_
  _symmetry_equiv_pos_as_xyz
  'x, y, z'

loop_
  _atom_site_label
  _atom_site_occupancy
  _atom_site_fract_x
  _atom_site_fract_y
  _atom_site_fract_z
  _atom_site_thermal_displace_type
  _atom_site_B_iso_or_equiv
  _atom_site_type_symbol
  N1       1.0000 0.97300  0.13780  0.87580  Biso   1.000  N
  N2       1.0000 0.02700  0.63780  0.62420  Biso   1.000  N
  N3       1.0000 0.02700  0.86220  0.12420  Biso   1.000  N
  N4       1.0000 0.97300  0.36220  0.37580  Biso   1.000  N
  O1       1.0000 0.05510  0.08280  0.92150  Biso   1.000  O
  O2       1.0000 0.94490  0.58280  0.57850  Biso   1.000  O
  O3       1.0000 0.94490  0.91720  0.07850  Biso   1.000  O
  O4       1.0000 0.05510  0.41720  0.42150  Biso   1.000  O
  O5       1.0000 0.01910  0.19590  0.83590  Biso   1.000  O
  O6       1.0000 0.98090  0.69590  0.66410  Biso   1.000  O
  O7       1.0000 0.98090  0.80410  0.16410  Biso   1.000  O
  O8       1.0000 0.01910  0.30410  0.33590  Biso   1.000  O
  O9       1.0000 0.84780  0.13710  0.86840  Biso   1.000  O
  O10      1.0000 0.15220  0.63710  0.63160  Biso   1.000  O
  O11      1.0000 0.15220  0.86290  0.13160  Biso   1.000  O
  O12      1.0000 0.84780  0.36290  0.36840  Biso   1.000  O
  Cu1      1.0000 0.69374  0.87556  0.84682  Biso   1.000  Cu
  Cu2      1.0000 0.30626  0.37556  0.65318  Biso   1.000  Cu
  Cu3      1.0000 0.30626  0.12444  0.15318  Biso   1.000  Cu
  Cu4      1.0000 0.69374  0.62444  0.34682  Biso   1.000  Cu
  N5       1.0000 0.61190  0.91160  0.75670  Biso   1.000  N
  N6       1.0000 0.38810  0.41160  0.74330  Biso   1.000  N
  N7       1.0000 0.38810  0.08840  0.24330  Biso   1.000  N
  N8       1.0000 0.61190  0.58840  0.25670  Biso   1.000  N
  C1       1.0000 0.48880  0.85650  0.72370  Biso   1.000  C
  C2       1.0000 0.51120  0.35650  0.77630  Biso   1.000  C
  C3       1.0000 0.51120  0.14350  0.27630  Biso   1.000  C
  C4       1.0000 0.48880  0.64350  0.22370  Biso   1.000  C
  H1       1.0000 0.44770  0.78640  0.74220  Biso   1.000  H
  H2       1.0000 0.55230  0.28640  0.75780  Biso   1.000  H
  H3       1.0000 0.55230  0.21360  0.25780  Biso   1.000  H
  H4       1.0000 0.44770  0.71360  0.24220  Biso   1.000  H
  C5       1.0000 0.60360  0.05700  0.66800  Biso   1.000  C
  C6       1.0000 0.39640  0.55700  0.83200  Biso   1.000  C
  C7       1.0000 0.39640  0.94300  0.33200  Biso   1.000  C
  C8       1.0000 0.60360  0.44300  0.16800  Biso   1.000  C
  H5       1.0000 0.64890  0.12550  0.65040  Biso   1.000  H
  H6       1.0000 0.35110  0.62550  0.84960  Biso   1.000  H
  H7       1.0000 0.35110  0.87450  0.34960  Biso   1.000  H
  H8       1.0000 0.64890  0.37450  0.15040  Biso   1.000  H
  C9       1.0000 0.41830  0.89590  0.66420  Biso   1.000  C
  C10      1.0000 0.58170  0.39590  0.83580  Biso   1.000  C
  C11      1.0000 0.58170  0.10410  0.33580  Biso   1.000  C
  C12      1.0000 0.41830  0.60410  0.16420  Biso   1.000  C
  H9       1.0000 0.33300  0.85200  0.64360  Biso   1.000  H
  H10      1.0000 0.66700  0.35200  0.85640  Biso   1.000  H
  H11      1.0000 0.66700  0.14800  0.35640  Biso   1.000  H
  H12      1.0000 0.33300  0.64800  0.14360  Biso   1.000  H
  C13      1.0000 0.47510  0.00230  0.63450  Biso   1.000  C
  C14      1.0000 0.52490  0.50230  0.86550  Biso   1.000  C
  C15      1.0000 0.52490  0.99770  0.36550  Biso   1.000  C
  C16      1.0000 0.47510  0.49770  0.13450  Biso   1.000  C
  C17      1.0000 0.40280  0.04650  0.56940  Biso   1.000  C
  C18      1.0000 0.59720  0.54650  0.93060  Biso   1.000  C
  C19      1.0000 0.59720  0.95350  0.43060  Biso   1.000  C
  C20      1.0000 0.40280  0.45350  0.06940  Biso   1.000  C
  C21      1.0000 0.39150  0.19350  0.48280  Biso   1.000  C
  C22      1.0000 0.60850  0.69350  0.01720  Biso   1.000  C
  C23      1.0000 0.60850  0.80650  0.51720  Biso   1.000  C
  C24      1.0000 0.39150  0.30650  0.98280  Biso   1.000  C
  N9       1.0000 0.28260  0.97360  0.53870  Biso   1.000  N
  N10      1.0000 0.71740  0.47360  0.96130  Biso   1.000  N
  N11      1.0000 0.71740  0.02640  0.46130  Biso   1.000  N
  N12      1.0000 0.28260  0.52640  0.03870  Biso   1.000  N
  C25      1.0000 0.26860  0.11900  0.45070  Biso   1.000  C
  C26      1.0000 0.73140  0.61900  0.04930  Biso   1.000  C
  C27      1.0000 0.73140  0.88100  0.54930  Biso   1.000  C
  C28      1.0000 0.26860  0.38100  0.95070  Biso   1.000  C
  H13      1.0000 0.22230  0.14410  0.41000  Biso   1.000  H
  H14      1.0000 0.77770  0.64410  0.09000  Biso   1.000  H
  H15      1.0000 0.77770  0.85590  0.59000  Biso   1.000  H
  H16      1.0000 0.22230  0.35590  0.91000  Biso   1.000  H
  C29      1.0000 0.21540  0.00920  0.47830  Biso   1.000  C
  C30      1.0000 0.78460  0.50920  0.02170  Biso   1.000  C
  C31      1.0000 0.78460  0.99080  0.52170  Biso   1.000  C
  C32      1.0000 0.21540  0.49080  0.97830  Biso   1.000  C
  C33      1.0000 0.08780  0.92290  0.44540  Biso   1.000  C
  C34      1.0000 0.91220  0.42290  0.05460  Biso   1.000  C
  C35      1.0000 0.91220  0.07710  0.55460  Biso   1.000  C
  C36      1.0000 0.08780  0.57710  0.94540  Biso   1.000  C
  C37      1.0000 0.00370  0.95730  0.38660  Biso   1.000  C
  C38      1.0000 0.99630  0.45730  0.11340  Biso   1.000  C
  C39      1.0000 0.99630  0.04270  0.61340  Biso   1.000  C
  C40      1.0000 0.00370  0.54270  0.88660  Biso   1.000  C
  H17      1.0000 0.02480  0.03620  0.36560  Biso   1.000  H
  H18      1.0000 0.97520  0.53620  0.13440  Biso   1.000  H
  H19      1.0000 0.97520  0.96380  0.63440  Biso   1.000  H
  H20      1.0000 0.02480  0.46380  0.86560  Biso   1.000  H
  C41      1.0000 0.93230  0.72590  0.44330  Biso   1.000  C
  C42      1.0000 0.06770  0.22590  0.05670  Biso   1.000  C
  C43      1.0000 0.06770  0.27410  0.55670  Biso   1.000  C
  C44      1.0000 0.93230  0.77410  0.94330  Biso   1.000  C
  H21      1.0000 0.90790  0.64790  0.46390  Biso   1.000  H
  H22      1.0000 0.09210  0.14790  0.03610  Biso   1.000  H
  H23      1.0000 0.09210  0.35210  0.53610  Biso   1.000  H
  H24      1.0000 0.90790  0.85210  0.96390  Biso   1.000  H
  C45      1.0000 0.88730  0.87120  0.35990  Biso   1.000  C
  C46      1.0000 0.11270  0.37120  0.14010  Biso   1.000  C
  C47      1.0000 0.11270  0.12880  0.64010  Biso   1.000  C
  C48      1.0000 0.88730  0.62880  0.85990  Biso   1.000  C
  H25      1.0000 0.82980  0.89740  0.32100  Biso   1.000  H
  H26      1.0000 0.17020  0.39740  0.17900  Biso   1.000  H
  H27      1.0000 0.17020  0.10260  0.67900  Biso   1.000  H
  H28      1.0000 0.82980  0.60260  0.82100  Biso   1.000  H
  N13      1.0000 0.85200  0.75320  0.38610  Biso   1.000  N
  N14      1.0000 0.14800  0.25320  0.11390  Biso   1.000  N
  N15      1.0000 0.14800  0.24680  0.61390  Biso   1.000  N
  N16      1.0000 0.85200  0.74680  0.88610  Biso   1.000  N
  N17      1.0000 0.58430  0.51080  0.39500  Biso   1.000  N
  N18      1.0000 0.41570  0.01080  0.10500  Biso   1.000  N
  N19      1.0000 0.41570  0.48920  0.60500  Biso   1.000  N
  N20      1.0000 0.58430  0.98920  0.89500  Biso   1.000  N
  C49      1.0000 0.66500  0.01100  0.72700  Biso   1.000  C
  C50      1.0000 0.33500  0.51100  0.77300  Biso   1.000  C
  C51      1.0000 0.33500  0.98900  0.27300  Biso   1.000  C
  C52      1.0000 0.66500  0.48900  0.22700  Biso   1.000  C
  H29      1.0000 0.75100  0.05240  0.74830  Biso   1.000  H
  H30      1.0000 0.24900  0.55240  0.75170  Biso   1.000  H
  H31      1.0000 0.24900  0.94760  0.25170  Biso   1.000  H
  H32      1.0000 0.75100  0.44760  0.24830  Biso   1.000  H
  C53      1.0000 0.45550  0.15420  0.54230  Biso   1.000  C
  C54      1.0000 0.54450  0.65420  0.95770  Biso   1.000  C
  C55      1.0000 0.54450  0.84580  0.45770  Biso   1.000  C
  C56      1.0000 0.45550  0.34580  0.04230  Biso   1.000  C
  H33      1.0000 0.53680  0.20220  0.56470  Biso   1.000  H
  H34      1.0000 0.46320  0.70220  0.93530  Biso   1.000  H
  H35      1.0000 0.46320  0.79780  0.43530  Biso   1.000  H
  H36      1.0000 0.53680  0.29780  0.06470  Biso   1.000  H
  C57      1.0000 0.04890  0.80540  0.47400  Biso   1.000  C
  C58      1.0000 0.95110  0.30540  0.02600  Biso   1.000  C
  C59      1.0000 0.95110  0.19460  0.52600  Biso   1.000  C
  C60      1.0000 0.04890  0.69460  0.97400  Biso   1.000  C
  H37      1.0000 0.10130  0.78000  0.51380  Biso   1.000  H
  H38      1.0000 0.89870  0.28000  0.98620  Biso   1.000  H
  H39      1.0000 0.89870  0.22000  0.48620  Biso   1.000  H
  H40      1.0000 0.10130  0.72000  0.01380  Biso   1.000  H
  C61      1.0000 0.45420  0.30750  0.45280  Biso   1.000  C
  C62      1.0000 0.54580  0.80750  0.04720  Biso   1.000  C
  C63      1.0000 0.54580  0.69250  0.54720  Biso   1.000  C
  C64      1.0000 0.45420  0.19250  0.95280  Biso   1.000  C
  C65      1.0000 0.38150  0.37180  0.39710  Biso   1.000  C
  C66      1.0000 0.61850  0.87180  0.10290  Biso   1.000  C
  C67      1.0000 0.61850  0.62820  0.60290  Biso   1.000  C
  C68      1.0000 0.38150  0.12820  0.89710  Biso   1.000  C
  H41      1.0000 0.28760  0.34780  0.37810  Biso   1.000  H
  H42      1.0000 0.71240  0.84780  0.12190  Biso   1.000  H
  H43      1.0000 0.71240  0.65220  0.62190  Biso   1.000  H
  H44      1.0000 0.28760  0.15220  0.87810  Biso   1.000  H
  C69      1.0000 0.44870  0.47090  0.37040  Biso   1.000  C
  C70      1.0000 0.55130  0.97090  0.12960  Biso   1.000  C
  C71      1.0000 0.55130  0.52910  0.62960  Biso   1.000  C
  C72      1.0000 0.44870  0.02910  0.87040  Biso   1.000  C
  H45      1.0000 0.39770  0.51270  0.33320  Biso   1.000  H
  H46      1.0000 0.60230  0.01270  0.16680  Biso   1.000  H
  H47      1.0000 0.60230  0.48730  0.66680  Biso   1.000  H
  H48      1.0000 0.39770  0.98730  0.83320  Biso   1.000  H
  C73      1.0000 0.65070  0.45100  0.44910  Biso   1.000  C
  C74      1.0000 0.34930  0.95100  0.05090  Biso   1.000  C
  C75      1.0000 0.34930  0.54900  0.55090  Biso   1.000  C
  C76      1.0000 0.65070  0.04900  0.94910  Biso   1.000  C
  H49      1.0000 0.74330  0.47960  0.46820  Biso   1.000  H
  H50      1.0000 0.25670  0.97960  0.03180  Biso   1.000  H
  H51      1.0000 0.25670  0.52040  0.53180  Biso   1.000  H
  H52      1.0000 0.74330  0.02040  0.96820  Biso   1.000  H
  C77      1.0000 0.59270  0.35100  0.47860  Biso   1.000  C
  C78      1.0000 0.40730  0.85100  0.02140  Biso   1.000  C
  C79      1.0000 0.40730  0.64900  0.52140  Biso   1.000  C
  C80      1.0000 0.59270  0.14900  0.97860  Biso   1.000  C
  H53      1.0000 0.64610  0.31210  0.51600  Biso   1.000  H
  H54      1.0000 0.35390  0.81210  0.98400  Biso   1.000  H
  H55      1.0000 0.35390  0.68790  0.48400  Biso   1.000  H
  H56      1.0000 0.64610  0.18790  0.01600  Biso   1.000  H
  C81      1.0000 0.09080  0.86630  0.79210  Biso   1.000  C
  C82      1.0000 0.90920  0.36630  0.70790  Biso   1.000  C
  C83      1.0000 0.90920  0.13370  0.20790  Biso   1.000  C
  C84      1.0000 0.09080  0.63370  0.29210  Biso   1.000  C
  H57      1.0000 0.13730  0.84440  0.83470  Biso   1.000  H
  H58      1.0000 0.86270  0.34440  0.66530  Biso   1.000  H
  H59      1.0000 0.86270  0.15560  0.16530  Biso   1.000  H
  H60      1.0000 0.13730  0.65560  0.33470  Biso   1.000  H
  H61      1.0000 0.01230  0.80210  0.77670  Biso   1.000  H
  H62      1.0000 0.98770  0.30210  0.72330  Biso   1.000  H
  H63      1.0000 0.98770  0.19790  0.22330  Biso   1.000  H
  H64      1.0000 0.01230  0.69790  0.27670  Biso   1.000  H
  H65      1.0000 0.05720  0.96370  0.78880  Biso   1.000  H
  H66      1.0000 0.94280  0.46370  0.71120  Biso   1.000  H
  H67      1.0000 0.94280  0.03630  0.21120  Biso   1.000  H
  H68      1.0000 0.05720  0.53630  0.28880  Biso   1.000  H
  O13      1.0000 0.17960  0.85110  0.75990  Biso   1.000  O
  O14      1.0000 0.82040  0.35110  0.74010  Biso   1.000  O
  O15      1.0000 0.82040  0.14890  0.24010  Biso   1.000  O
  O16      1.0000 0.17960  0.64890  0.25990  Biso   1.000  O
  H69      1.0000 0.12690  0.80470  0.72950  Biso   1.000  H
  H70      1.0000 0.87310  0.30470  0.77050  Biso   1.000  H
  H71      1.0000 0.87310  0.19530  0.27050  Biso   1.000  H
  H72      1.0000 0.12690  0.69530  0.22950  Biso   1.000  H
