data_image0
_cell_length_a       8.328
_cell_length_b       10.495
_cell_length_c       16.733
_cell_angle_alpha    90
_cell_angle_beta     90
_cell_angle_gamma    90

_symmetry_space_group_name_H-M    "P 1"
_symmetry_int_tables_number       1

loop_
  _symmetry_equiv_pos_as_xyz
  'x, y, z'

loop_
  _atom_site_label
  _atom_site_occupancy
  _atom_site_fract_x
  _atom_site_fract_y
  _atom_site_fract_z
  _atom_site_thermal_displace_type
  _atom_site_B_iso_or_equiv
  _atom_site_type_symbol
  C1       1.0000 0.74090  0.47160  0.63250  Biso   1.000  C
  C2       1.0000 0.75910  0.52840  0.13250  Biso   1.000  C
  C3       1.0000 0.25910  0.97160  0.86750  Biso   1.000  C
  C4       1.0000 0.24090  0.02840  0.36750  Biso   1.000  C
  C5       1.0000 0.76360  0.66400  0.70470  Biso   1.000  C
  C6       1.0000 0.73640  0.33600  0.20470  Biso   1.000  C
  C7       1.0000 0.23640  0.16400  0.79530  Biso   1.000  C
  C8       1.0000 0.26360  0.83600  0.29530  Biso   1.000  C
  Cl1      1.0000 0.43180  0.76310  0.49415  Biso   1.000  Cl
  Cl2      1.0000 0.06820  0.23690  0.99415  Biso   1.000  Cl
  Cl3      1.0000 0.56820  0.26310  0.00585  Biso   1.000  Cl
  Cl4      1.0000 0.93180  0.73690  0.50585  Biso   1.000  Cl
  Cl5      1.0000 0.22240  0.45890  0.53790  Biso   1.000  Cl
  Cl6      1.0000 0.27760  0.54110  0.03790  Biso   1.000  Cl
  Cl7      1.0000 0.77760  0.95890  0.96210  Biso   1.000  Cl
  Cl8      1.0000 0.72240  0.04110  0.46210  Biso   1.000  Cl
  Cl9      1.0000 0.23940  0.73510  0.69108  Biso   1.000  Cl
  Cl10     1.0000 0.26060  0.26490  0.19108  Biso   1.000  Cl
  Cl11     1.0000 0.76060  0.23510  0.80892  Biso   1.000  Cl
  Cl12     1.0000 0.73940  0.76490  0.30892  Biso   1.000  Cl
  Cu1      1.0000 0.48259  0.53806  0.51677  Biso   1.000  Cu
  Cu2      1.0000 0.01741  0.46194  0.01677  Biso   1.000  Cu
  Cu3      1.0000 0.51741  0.03806  0.98323  Biso   1.000  Cu
  Cu4      1.0000 0.98259  0.96194  0.48323  Biso   1.000  Cu
  Cu5      1.0000 0.48216  0.80715  0.63079  Biso   1.000  Cu
  Cu6      1.0000 0.01784  0.19285  0.13079  Biso   1.000  Cu
  Cu7      1.0000 0.51784  0.30715  0.86921  Biso   1.000  Cu
  Cu8      1.0000 0.98216  0.69285  0.36921  Biso   1.000  Cu
  Cu9      1.0000 0.13818  0.65244  0.57881  Biso   1.000  Cu
  Cu10     1.0000 0.36182  0.34756  0.07881  Biso   1.000  Cu
  Cu11     1.0000 0.86182  0.15244  0.92119  Biso   1.000  Cu
  Cu12     1.0000 0.63818  0.84756  0.42119  Biso   1.000  Cu
  N1       1.0000 0.62620  0.55150  0.61420  Biso   1.000  N
  N2       1.0000 0.87380  0.44850  0.11420  Biso   1.000  N
  N3       1.0000 0.37380  0.05150  0.88580  Biso   1.000  N
  N4       1.0000 0.12620  0.94850  0.38580  Biso   1.000  N
  N5       1.0000 0.63880  0.66380  0.65540  Biso   1.000  N
  N6       1.0000 0.86120  0.33620  0.15540  Biso   1.000  N
  N7       1.0000 0.36120  0.16380  0.84460  Biso   1.000  N
  N8       1.0000 0.13880  0.83620  0.34460  Biso   1.000  N
  S1       1.0000 0.87430  0.52810  0.70059  Biso   1.000  S
  S2       1.0000 0.62570  0.47190  0.20059  Biso   1.000  S
  S3       1.0000 0.12570  0.02810  0.79941  Biso   1.000  S
  S4       1.0000 0.37430  0.97190  0.29941  Biso   1.000  S
  S5       1.0000 0.75900  0.32050  0.59087  Biso   1.000  S
  S6       1.0000 0.74100  0.67950  0.09087  Biso   1.000  S
  S7       1.0000 0.24100  0.82050  0.90913  Biso   1.000  S
  S8       1.0000 0.25900  0.17950  0.40913  Biso   1.000  S
  S9       1.0000 0.81530  0.78280  0.77041  Biso   1.000  S
  S10      1.0000 0.68470  0.21720  0.27041  Biso   1.000  S
  S11      1.0000 0.18470  0.28280  0.72959  Biso   1.000  S
  S12      1.0000 0.31530  0.71720  0.22959  Biso   1.000  S
  C9       1.0000 0.56280  0.48060  0.40290  Biso   1.000  C
  C10      1.0000 0.93720  0.51940  0.90290  Biso   1.000  C
  C11      1.0000 0.43720  0.98060  0.09710  Biso   1.000  C
  C12      1.0000 0.06280  0.01940  0.59710  Biso   1.000  C
  H1       1.0000 0.63670  0.54450  0.38650  Biso   1.000  H
  H2       1.0000 0.86330  0.45550  0.88650  Biso   1.000  H
  H3       1.0000 0.36330  0.04450  0.11350  Biso   1.000  H
  H4       1.0000 0.13670  0.95550  0.61350  Biso   1.000  H
  H5       1.0000 0.45530  0.48240  0.38400  Biso   1.000  H
  H6       1.0000 0.04470  0.51760  0.88400  Biso   1.000  H
  H7       1.0000 0.54470  0.98240  0.11600  Biso   1.000  H
  H8       1.0000 0.95530  0.01760  0.61600  Biso   1.000  H
  C13      1.0000 0.61100  0.38680  0.45310  Biso   1.000  C
  C14      1.0000 0.88900  0.61320  0.95310  Biso   1.000  C
  C15      1.0000 0.38900  0.88680  0.04690  Biso   1.000  C
  C16      1.0000 0.11100  0.11320  0.54690  Biso   1.000  C
  H9       1.0000 0.53100  0.32610  0.46700  Biso   1.000  H
  H10      1.0000 0.96900  0.67390  0.96700  Biso   1.000  H
  H11      1.0000 0.46900  0.82610  0.03300  Biso   1.000  H
  H12      1.0000 0.03100  0.17390  0.53300  Biso   1.000  H
  C17      1.0000 0.76670  0.36620  0.48850  Biso   1.000  C
  C18      1.0000 0.73330  0.63380  0.98850  Biso   1.000  C
  C19      1.0000 0.23330  0.86620  0.01150  Biso   1.000  C
  C20      1.0000 0.26670  0.13380  0.51150  Biso   1.000  C
  H13      1.0000 0.83020  0.44560  0.48380  Biso   1.000  H
  H14      1.0000 0.66980  0.55440  0.98380  Biso   1.000  H
  H15      1.0000 0.16980  0.94560  0.01620  Biso   1.000  H
  H16      1.0000 0.33020  0.05440  0.51620  Biso   1.000  H
  H17      1.0000 0.82330  0.29910  0.45790  Biso   1.000  H
  H18      1.0000 0.67670  0.70090  0.95790  Biso   1.000  H
  H19      1.0000 0.17670  0.79910  0.04210  Biso   1.000  H
  H20      1.0000 0.32330  0.20090  0.54210  Biso   1.000  H
  C21      1.0000 0.49680  0.00110  0.65650  Biso   1.000  C
  C22      1.0000 0.00320  0.99890  0.15650  Biso   1.000  C
  C23      1.0000 0.50320  0.50110  0.84350  Biso   1.000  C
  C24      1.0000 0.99680  0.49890  0.34350  Biso   1.000  C
  H21      1.0000 0.40880  0.01410  0.69170  Biso   1.000  H
  H22      1.0000 0.09120  0.98590  0.19170  Biso   1.000  H
  H23      1.0000 0.59120  0.51410  0.80830  Biso   1.000  H
  H24      1.0000 0.90880  0.48590  0.30830  Biso   1.000  H
  H25      1.0000 0.49010  0.02860  0.60250  Biso   1.000  H
  H26      1.0000 0.00990  0.97140  0.10250  Biso   1.000  H
  H27      1.0000 0.50990  0.52860  0.89750  Biso   1.000  H
  H28      1.0000 0.99010  0.47140  0.39750  Biso   1.000  H
  C25      1.0000 0.63230  0.94340  0.68340  Biso   1.000  C
  C26      1.0000 0.86770  0.05660  0.18340  Biso   1.000  C
  C27      1.0000 0.36770  0.44340  0.81660  Biso   1.000  C
  C28      1.0000 0.13230  0.55660  0.31660  Biso   1.000  C
  H29      1.0000 0.71710  0.93250  0.64610  Biso   1.000  H
  H30      1.0000 0.78290  0.06750  0.14610  Biso   1.000  H
  H31      1.0000 0.28290  0.43250  0.85390  Biso   1.000  H
  H32      1.0000 0.21710  0.56750  0.35390  Biso   1.000  H
  C29      1.0000 0.65900  0.89700  0.76340  Biso   1.000  C
  C30      1.0000 0.84100  0.10300  0.26340  Biso   1.000  C
  C31      1.0000 0.34100  0.39700  0.73660  Biso   1.000  C
  C32      1.0000 0.15900  0.60300  0.23660  Biso   1.000  C
  H33      1.0000 0.55860  0.85860  0.78360  Biso   1.000  H
  H34      1.0000 0.94140  0.14140  0.28360  Biso   1.000  H
  H35      1.0000 0.44140  0.35860  0.71640  Biso   1.000  H
  H36      1.0000 0.05860  0.64140  0.21640  Biso   1.000  H
  H37      1.0000 0.68580  0.97020  0.79840  Biso   1.000  H
  H38      1.0000 0.81420  0.02980  0.29840  Biso   1.000  H
  H39      1.0000 0.31420  0.47020  0.70160  Biso   1.000  H
  H40      1.0000 0.18580  0.52980  0.20160  Biso   1.000  H
  C33      1.0000 0.61300  0.95900  0.64160  Biso   1.000  C
  C34      1.0000 0.88700  0.04100  0.14160  Biso   1.000  C
  C35      1.0000 0.38700  0.45900  0.85840  Biso   1.000  C
  C36      1.0000 0.11300  0.54100  0.35840  Biso   1.000  C
  H41      1.0000 0.71270  0.92200  0.62640  Biso   1.000  H
  H42      1.0000 0.78730  0.07800  0.12640  Biso   1.000  H
  H43      1.0000 0.28730  0.42200  0.87360  Biso   1.000  H
  H44      1.0000 0.21270  0.57800  0.37360  Biso   1.000  H
  H45      1.0000 0.55550  0.01080  0.60510  Biso   1.000  H
  H46      1.0000 0.94450  0.98920  0.10510  Biso   1.000  H
  H47      1.0000 0.44450  0.51080  0.89490  Biso   1.000  H
  H48      1.0000 0.05550  0.48920  0.39490  Biso   1.000  H
  C37      1.0000 0.55300  0.93630  0.71560  Biso   1.000  C
  C38      1.0000 0.94700  0.06370  0.21560  Biso   1.000  C
  C39      1.0000 0.44700  0.43630  0.78440  Biso   1.000  C
  C40      1.0000 0.05300  0.56370  0.28440  Biso   1.000  C
  H49      1.0000 0.45250  0.97590  0.72670  Biso   1.000  H
  H50      1.0000 0.04750  0.02410  0.22670  Biso   1.000  H
  H51      1.0000 0.54750  0.47590  0.77330  Biso   1.000  H
  H52      1.0000 0.95250  0.52410  0.27330  Biso   1.000  H
  C41      1.0000 0.61800  0.86100  0.78000  Biso   1.000  C
  C42      1.0000 0.88200  0.13900  0.28000  Biso   1.000  C
  C43      1.0000 0.38200  0.36100  0.72000  Biso   1.000  C
  C44      1.0000 0.11800  0.63900  0.22000  Biso   1.000  C
  H53      1.0000 0.53890  0.79400  0.79190  Biso   1.000  H
  H54      1.0000 0.96110  0.20600  0.29190  Biso   1.000  H
  H55      1.0000 0.46110  0.29400  0.70810  Biso   1.000  H
  H56      1.0000 0.03890  0.70600  0.20810  Biso   1.000  H
  H57      1.0000 0.62370  0.91740  0.82720  Biso   1.000  H
  H58      1.0000 0.87630  0.08260  0.32720  Biso   1.000  H
  H59      1.0000 0.37630  0.41740  0.67280  Biso   1.000  H
  H60      1.0000 0.12370  0.58260  0.17280  Biso   1.000  H
