data_image0
_cell_length_a       13.09
_cell_length_b       8.831
_cell_length_c       16.273
_cell_angle_alpha    90
_cell_angle_beta     94.35
_cell_angle_gamma    90

_symmetry_space_group_name_H-M    "P 1"
_symmetry_int_tables_number       1

loop_
  _symmetry_equiv_pos_as_xyz
  'x, y, z'

loop_
  _atom_site_label
  _atom_site_occupancy
  _atom_site_fract_x
  _atom_site_fract_y
  _atom_site_fract_z
  _atom_site_thermal_displace_type
  _atom_site_B_iso_or_equiv
  _atom_site_type_symbol
  Cu1      1.0000 0.92180  0.12830  0.00250  Biso   1.000  Cu
  Cu2      1.0000 0.57820  0.62830  0.49750  Biso   1.000  Cu
  Cu3      1.0000 0.07820  0.87170  0.99750  Biso   1.000  Cu
  Cu4      1.0000 0.42180  0.37170  0.50250  Biso   1.000  Cu
  Cl1      1.0000 0.99870  0.01940  0.88840  Biso   1.000  Cl
  Cl2      1.0000 0.50130  0.51940  0.61160  Biso   1.000  Cl
  Cl3      1.0000 0.00130  0.98060  0.11160  Biso   1.000  Cl
  Cl4      1.0000 0.49870  0.48060  0.38840  Biso   1.000  Cl
  P1       1.0000 0.75720  0.07660  0.99560  Biso   1.000  P
  P2       1.0000 0.74280  0.57660  0.50440  Biso   1.000  P
  P3       1.0000 0.24280  0.92340  0.00440  Biso   1.000  P
  P4       1.0000 0.25720  0.42340  0.49560  Biso   1.000  P
  N1       1.0000 0.97270  0.34720  0.00380  Biso   1.000  N
  N2       1.0000 0.52730  0.84720  0.49620  Biso   1.000  N
  N3       1.0000 0.02730  0.65280  0.99620  Biso   1.000  N
  N4       1.0000 0.47270  0.15280  0.50380  Biso   1.000  N
  C1       1.0000 0.68350  0.13430  0.90130  Biso   1.000  C
  C2       1.0000 0.81650  0.63430  0.59870  Biso   1.000  C
  C3       1.0000 0.31650  0.86570  0.09870  Biso   1.000  C
  C4       1.0000 0.18350  0.36570  0.40130  Biso   1.000  C
  C5       1.0000 0.59170  0.06620  0.87360  Biso   1.000  C
  C6       1.0000 0.90830  0.56620  0.62640  Biso   1.000  C
  C7       1.0000 0.40830  0.93380  0.12640  Biso   1.000  C
  C8       1.0000 0.09170  0.43380  0.37360  Biso   1.000  C
  C9       1.0000 0.53770  0.11510  0.80190  Biso   1.000  C
  C10      1.0000 0.96230  0.61510  0.69810  Biso   1.000  C
  C11      1.0000 0.46230  0.88490  0.19810  Biso   1.000  C
  C12      1.0000 0.03770  0.38490  0.30190  Biso   1.000  C
  C13      1.0000 0.57490  0.23350  0.75810  Biso   1.000  C
  C14      1.0000 0.92510  0.73350  0.74190  Biso   1.000  C
  C15      1.0000 0.42510  0.76650  0.24190  Biso   1.000  C
  C16      1.0000 0.07490  0.26650  0.25810  Biso   1.000  C
  C17      1.0000 0.66590  0.30190  0.78500  Biso   1.000  C
  C18      1.0000 0.83410  0.80190  0.71500  Biso   1.000  C
  C19      1.0000 0.33410  0.69810  0.21500  Biso   1.000  C
  C20      1.0000 0.16590  0.19810  0.28500  Biso   1.000  C
  C21      1.0000 0.72080  0.25090  0.85550  Biso   1.000  C
  C22      1.0000 0.77920  0.75090  0.64450  Biso   1.000  C
  C23      1.0000 0.27920  0.74910  0.14450  Biso   1.000  C
  C24      1.0000 0.22080  0.24910  0.35550  Biso   1.000  C
  C25      1.0000 0.73010  0.87410  0.99860  Biso   1.000  C
  C26      1.0000 0.76990  0.37410  0.50140  Biso   1.000  C
  C27      1.0000 0.26990  0.12590  0.00140  Biso   1.000  C
  C28      1.0000 0.23010  0.62590  0.49860  Biso   1.000  C
  C29      1.0000 0.77160  0.78680  0.93850  Biso   1.000  C
  C30      1.0000 0.72840  0.28680  0.56150  Biso   1.000  C
  C31      1.0000 0.22840  0.21320  0.06150  Biso   1.000  C
  C32      1.0000 0.27160  0.71320  0.43850  Biso   1.000  C
  C33      1.0000 0.75180  0.63200  0.93440  Biso   1.000  C
  C34      1.0000 0.74820  0.13200  0.56560  Biso   1.000  C
  C35      1.0000 0.24820  0.36800  0.06560  Biso   1.000  C
  C36      1.0000 0.25180  0.86800  0.43440  Biso   1.000  C
  C37      1.0000 0.69340  0.56420  0.99140  Biso   1.000  C
  C38      1.0000 0.80660  0.06420  0.50860  Biso   1.000  C
  C39      1.0000 0.30660  0.43580  0.00860  Biso   1.000  C
  C40      1.0000 0.19340  0.93580  0.49140  Biso   1.000  C
  C41      1.0000 0.65320  0.65070  0.05180  Biso   1.000  C
  C42      1.0000 0.84680  0.15070  0.44820  Biso   1.000  C
  C43      1.0000 0.34680  0.34930  0.94820  Biso   1.000  C
  C44      1.0000 0.15320  0.84930  0.55180  Biso   1.000  C
  C45      1.0000 0.67110  0.80610  0.05570  Biso   1.000  C
  C46      1.0000 0.82890  0.30610  0.44430  Biso   1.000  C
  C47      1.0000 0.32890  0.19390  0.94430  Biso   1.000  C
  C48      1.0000 0.17110  0.69390  0.55570  Biso   1.000  C
  C49      1.0000 0.68960  0.15600  0.07970  Biso   1.000  C
  C50      1.0000 0.81040  0.65600  0.42030  Biso   1.000  C
  C51      1.0000 0.31040  0.84400  0.92030  Biso   1.000  C
  C52      1.0000 0.18960  0.34400  0.57970  Biso   1.000  C
  C53      1.0000 0.59300  0.22260  0.06920  Biso   1.000  C
  C54      1.0000 0.90700  0.72260  0.43080  Biso   1.000  C
  C55      1.0000 0.40700  0.77740  0.93080  Biso   1.000  C
  C56      1.0000 0.09300  0.27740  0.56920  Biso   1.000  C
  C57      1.0000 0.54950  0.28840  0.13610  Biso   1.000  C
  C58      1.0000 0.95050  0.78840  0.36390  Biso   1.000  C
  C59      1.0000 0.45050  0.71160  0.86390  Biso   1.000  C
  C60      1.0000 0.04950  0.21160  0.63610  Biso   1.000  C
  C61      1.0000 0.60120  0.28720  0.21250  Biso   1.000  C
  C62      1.0000 0.89880  0.78720  0.28750  Biso   1.000  C
  C63      1.0000 0.39880  0.71280  0.78750  Biso   1.000  C
  C64      1.0000 0.10120  0.21280  0.71250  Biso   1.000  C
  C65      1.0000 0.69600  0.22000  0.22360  Biso   1.000  C
  C66      1.0000 0.80400  0.72000  0.27640  Biso   1.000  C
  C67      1.0000 0.30400  0.78000  0.77640  Biso   1.000  C
  C68      1.0000 0.19600  0.28000  0.72360  Biso   1.000  C
  C69      1.0000 0.74120  0.15490  0.15780  Biso   1.000  C
  C70      1.0000 0.75880  0.65490  0.34220  Biso   1.000  C
  C71      1.0000 0.25880  0.84510  0.84220  Biso   1.000  C
  C72      1.0000 0.24120  0.34510  0.65780  Biso   1.000  C
  C73      1.0000 0.94830  0.44650  0.06110  Biso   1.000  C
  C74      1.0000 0.55170  0.94650  0.43890  Biso   1.000  C
  C75      1.0000 0.05170  0.55350  0.93890  Biso   1.000  C
  C76      1.0000 0.44830  0.05350  0.56110  Biso   1.000  C
  C77      1.0000 0.02480  0.40240  0.94260  Biso   1.000  C
  C78      1.0000 0.47520  0.90240  0.55740  Biso   1.000  C
  C79      1.0000 0.97520  0.59760  0.05740  Biso   1.000  C
  C80      1.0000 0.52480  0.09760  0.44260  Biso   1.000  C
