data_image0
_cell_length_a       4.2519
_cell_length_b       7.88
_cell_length_c       12.934
_cell_angle_alpha    74.427
_cell_angle_beta     83.583
_cell_angle_gamma    79.881

_symmetry_space_group_name_H-M    "P 1"
_symmetry_int_tables_number       1

loop_
  _symmetry_equiv_pos_as_xyz
  'x, y, z'

loop_
  _atom_site_label
  _atom_site_occupancy
  _atom_site_fract_x
  _atom_site_fract_y
  _atom_site_fract_z
  _atom_site_thermal_displace_type
  _atom_site_B_iso_or_equiv
  _atom_site_type_symbol
  Cu1      1.0000 0.27792  0.88111  0.02814  Biso   1.000  Cu
  Cu2      1.0000 0.72208  0.11889  0.97186  Biso   1.000  Cu
  N1       1.0000 0.24720  0.69880  0.17540  Biso   1.000  N
  N2       1.0000 0.75280  0.30120  0.82460  Biso   1.000  N
  C1       1.0000 0.42670  0.53930  0.19650  Biso   1.000  C
  C2       1.0000 0.57330  0.46070  0.80350  Biso   1.000  C
  H1       1.0000 0.58240  0.50680  0.14380  Biso   1.000  H
  H2       1.0000 0.41760  0.49320  0.85620  Biso   1.000  H
  C3       1.0000 0.38520  0.41910  0.29720  Biso   1.000  C
  C4       1.0000 0.61480  0.58090  0.70280  Biso   1.000  C
  N3       1.0000 0.17300  0.45410  0.37380  Biso   1.000  N
  N4       1.0000 0.82700  0.54590  0.62620  Biso   1.000  N
  C5       1.0000 0.98900  0.61680  0.34960  Biso   1.000  C
  C6       1.0000 0.01100  0.38320  0.65040  Biso   1.000  C
  H3       1.0000 0.82970  0.64780  0.40180  Biso   1.000  H
  H4       1.0000 0.17030  0.35220  0.59820  Biso   1.000  H
  C7       1.0000 0.02460  0.73680  0.25340  Biso   1.000  C
  C8       1.0000 0.97540  0.26320  0.74660  Biso   1.000  C
  H5       1.0000 0.89160  0.84960  0.24020  Biso   1.000  H
  H6       1.0000 0.10840  0.15040  0.75980  Biso   1.000  H
  O1       1.0000 0.58270  0.26000  0.31225  Biso   1.000  O
  O2       1.0000 0.41730  0.74000  0.68775  Biso   1.000  O
  C9       1.0000 0.65250  0.14320  0.50190  Biso   1.000  C
  C10      1.0000 0.34750  0.85680  0.49810  Biso   1.000  C
  H7       1.0000 0.75580  0.24080  0.50200  Biso   1.000  H
  H8       1.0000 0.24420  0.75920  0.49800  Biso   1.000  H
  C11      1.0000 0.53460  0.13100  0.40890  Biso   1.000  C
  C12      1.0000 0.46540  0.86900  0.59110  Biso   1.000  C
  C13      1.0000 0.38440  0.99140  0.40480  Biso   1.000  C
  C14      1.0000 0.61560  0.00860  0.59520  Biso   1.000  C
  H9       1.0000 0.30770  0.98740  0.33940  Biso   1.000  H
  H10      1.0000 0.69230  0.01260  0.66060  Biso   1.000  H
  I1       1.0000 0.83062  0.80559  0.92402  Biso   1.000  I
  I2       1.0000 0.16938  0.19441  0.07598  Biso   1.000  I
