data_image0
_cell_length_a       4.2849
_cell_length_b       17.584
_cell_length_c       13.959
_cell_angle_alpha    90
_cell_angle_beta     97.884
_cell_angle_gamma    90

_symmetry_space_group_name_H-M    "P 1"
_symmetry_int_tables_number       1

loop_
  _symmetry_equiv_pos_as_xyz
  'x, y, z'

loop_
  _atom_site_label
  _atom_site_occupancy
  _atom_site_fract_x
  _atom_site_fract_y
  _atom_site_fract_z
  _atom_site_thermal_displace_type
  _atom_site_B_iso_or_equiv
  _atom_site_type_symbol
  Cu1      1.0000 0.19039  0.44029  0.50896  Biso   1.000  Cu
  Cu2      1.0000 0.30961  0.94029  0.99104  Biso   1.000  Cu
  Cu3      1.0000 0.80961  0.55971  0.49104  Biso   1.000  Cu
  Cu4      1.0000 0.69039  0.05971  0.00896  Biso   1.000  Cu
  N1       1.0000 0.16840  0.33120  0.45730  Biso   1.000  N
  N2       1.0000 0.33160  0.83120  0.04270  Biso   1.000  N
  N3       1.0000 0.83160  0.66880  0.54270  Biso   1.000  N
  N4       1.0000 0.66840  0.16880  0.95730  Biso   1.000  N
  C1       1.0000 0.34870  0.27960  0.50170  Biso   1.000  C
  C2       1.0000 0.15130  0.77960  0.99830  Biso   1.000  C
  C3       1.0000 0.65130  0.72040  0.49830  Biso   1.000  C
  C4       1.0000 0.84870  0.22040  0.00170  Biso   1.000  C
  H1       1.0000 0.49350  0.29340  0.55670  Biso   1.000  H
  H2       1.0000 0.00650  0.79340  0.94330  Biso   1.000  H
  H3       1.0000 0.50650  0.70660  0.44330  Biso   1.000  H
  H4       1.0000 0.99350  0.20660  0.05670  Biso   1.000  H
  C5       1.0000 0.33510  0.20260  0.46990  Biso   1.000  C
  C6       1.0000 0.16490  0.70260  0.03010  Biso   1.000  C
  C7       1.0000 0.66490  0.79740  0.53010  Biso   1.000  C
  C8       1.0000 0.83510  0.29740  0.96990  Biso   1.000  C
  N5       1.0000 0.15820  0.17890  0.39530  Biso   1.000  N
  N6       1.0000 0.34180  0.67890  0.10470  Biso   1.000  N
  N7       1.0000 0.84180  0.82110  0.60470  Biso   1.000  N
  N8       1.0000 0.65820  0.32110  0.89530  Biso   1.000  N
  C9       1.0000 0.96760  0.23200  0.34670  Biso   1.000  C
  C10      1.0000 0.53240  0.73200  0.15330  Biso   1.000  C
  C11      1.0000 0.03240  0.76800  0.65330  Biso   1.000  C
  C12      1.0000 0.46760  0.26800  0.84670  Biso   1.000  C
  C13      1.0000 0.77190  0.21160  0.26250  Biso   1.000  C
  C14      1.0000 0.72810  0.71160  0.23750  Biso   1.000  C
  C15      1.0000 0.22810  0.78840  0.73750  Biso   1.000  C
  C16      1.0000 0.27190  0.28840  0.76250  Biso   1.000  C
  H5       1.0000 0.77690  0.16110  0.23880  Biso   1.000  H
  H6       1.0000 0.72310  0.66110  0.26120  Biso   1.000  H
  H7       1.0000 0.22310  0.83890  0.76120  Biso   1.000  H
  H8       1.0000 0.27690  0.33890  0.73880  Biso   1.000  H
  C17      1.0000 0.57320  0.26360  0.21400  Biso   1.000  C
  C18      1.0000 0.92680  0.76360  0.28600  Biso   1.000  C
  C19      1.0000 0.42680  0.73640  0.78600  Biso   1.000  C
  C20      1.0000 0.07320  0.23640  0.71400  Biso   1.000  C
  H9       1.0000 0.44000  0.24880  0.15700  Biso   1.000  H
  H10      1.0000 0.06000  0.74880  0.34300  Biso   1.000  H
  H11      1.0000 0.56000  0.75120  0.84300  Biso   1.000  H
  H12      1.0000 0.94000  0.25120  0.65700  Biso   1.000  H
  C21      1.0000 0.56350  0.33730  0.24660  Biso   1.000  C
  C22      1.0000 0.93650  0.83730  0.25340  Biso   1.000  C
  C23      1.0000 0.43650  0.66270  0.75340  Biso   1.000  C
  C24      1.0000 0.06350  0.16270  0.74660  Biso   1.000  C
  H13      1.0000 0.42050  0.37240  0.21270  Biso   1.000  H
  H14      1.0000 0.07950  0.87240  0.28730  Biso   1.000  H
  H15      1.0000 0.57950  0.62760  0.78730  Biso   1.000  H
  H16      1.0000 0.92050  0.12760  0.71270  Biso   1.000  H
  C25      1.0000 0.75690  0.36030  0.32710  Biso   1.000  C
  C26      1.0000 0.74310  0.86030  0.17290  Biso   1.000  C
  C27      1.0000 0.24310  0.63970  0.67290  Biso   1.000  C
  C28      1.0000 0.25690  0.13970  0.82710  Biso   1.000  C
  H17      1.0000 0.75090  0.41150  0.34860  Biso   1.000  H
  H18      1.0000 0.74910  0.91150  0.15140  Biso   1.000  H
  H19      1.0000 0.24910  0.58850  0.65140  Biso   1.000  H
  H20      1.0000 0.25090  0.08850  0.84860  Biso   1.000  H
  C29      1.0000 0.96450  0.30820  0.37790  Biso   1.000  C
  C30      1.0000 0.53550  0.80820  0.12210  Biso   1.000  C
  C31      1.0000 0.03550  0.69180  0.62210  Biso   1.000  C
  C32      1.0000 0.46450  0.19180  0.87790  Biso   1.000  C
  O1       1.0000 0.53300  0.15570  0.52720  Biso   1.000  O
  O2       1.0000 0.96700  0.65570  0.97280  Biso   1.000  O
  O3       1.0000 0.46700  0.84430  0.47280  Biso   1.000  O
  O4       1.0000 0.03300  0.34430  0.02720  Biso   1.000  O
  C33      1.0000 0.60160  0.04440  0.42940  Biso   1.000  C
  C34      1.0000 0.89840  0.54440  0.07060  Biso   1.000  C
  C35      1.0000 0.39840  0.95560  0.57060  Biso   1.000  C
  C36      1.0000 0.10160  0.45560  0.92940  Biso   1.000  C
  H21      1.0000 0.67300  0.07540  0.38110  Biso   1.000  H
  H22      1.0000 0.82700  0.57540  0.11890  Biso   1.000  H
  H23      1.0000 0.32700  0.92460  0.61890  Biso   1.000  H
  H24      1.0000 0.17300  0.42460  0.88110  Biso   1.000  H
  C37      1.0000 0.51040  0.07580  0.51050  Biso   1.000  C
  C38      1.0000 0.98960  0.57580  0.98950  Biso   1.000  C
  C39      1.0000 0.48960  0.92420  0.48950  Biso   1.000  C
  C40      1.0000 0.01040  0.42420  0.01050  Biso   1.000  C
  C41      1.0000 0.41240  0.03230  0.58040  Biso   1.000  C
  C42      1.0000 0.08760  0.53230  0.91960  Biso   1.000  C
  C43      1.0000 0.58760  0.96770  0.41960  Biso   1.000  C
  C44      1.0000 0.91240  0.46770  0.08040  Biso   1.000  C
  H25      1.0000 0.35310  0.05560  0.63660  Biso   1.000  H
  H26      1.0000 0.14690  0.55560  0.86340  Biso   1.000  H
  H27      1.0000 0.64690  0.94440  0.36340  Biso   1.000  H
  H28      1.0000 0.85310  0.44440  0.13660  Biso   1.000  H
  I1       1.0000 0.75036  0.45423  0.62293  Biso   1.000  I
  I2       1.0000 0.74964  0.95423  0.87707  Biso   1.000  I
  I3       1.0000 0.24964  0.54577  0.37707  Biso   1.000  I
  I4       1.0000 0.25036  0.04577  0.12293  Biso   1.000  I
