data_image0
_cell_length_a       8.5856
_cell_length_b       8.636
_cell_length_c       12.4256
_cell_angle_alpha    90
_cell_angle_beta     93.864
_cell_angle_gamma    90

_symmetry_space_group_name_H-M    "P 1"
_symmetry_int_tables_number       1

loop_
  _symmetry_equiv_pos_as_xyz
  'x, y, z'

loop_
  _atom_site_label
  _atom_site_occupancy
  _atom_site_fract_x
  _atom_site_fract_y
  _atom_site_fract_z
  _atom_site_thermal_displace_type
  _atom_site_B_iso_or_equiv
  _atom_site_type_symbol
  I1       1.0000 0.64539  0.28559  0.50500  Biso   1.000  I
  I2       1.0000 0.35461  0.78559  0.99500  Biso   1.000  I
  I3       1.0000 0.35461  0.71441  0.49500  Biso   1.000  I
  I4       1.0000 0.64539  0.21441  0.00500  Biso   1.000  I
  Cu1      1.0000 0.36958  0.41109  0.51607  Biso   1.000  Cu
  Cu2      1.0000 0.63042  0.91109  0.98393  Biso   1.000  Cu
  Cu3      1.0000 0.63042  0.58891  0.48393  Biso   1.000  Cu
  Cu4      1.0000 0.36958  0.08891  0.01607  Biso   1.000  Cu
  S1       1.0000 0.22183  0.34021  0.65766  Biso   1.000  S
  S2       1.0000 0.77817  0.84021  0.84234  Biso   1.000  S
  S3       1.0000 0.77817  0.65979  0.34234  Biso   1.000  S
  S4       1.0000 0.22183  0.15979  0.15766  Biso   1.000  S
  S5       1.0000 0.20488  0.18759  0.87240  Biso   1.000  S
  S6       1.0000 0.79512  0.68759  0.62760  Biso   1.000  S
  S7       1.0000 0.79512  0.81241  0.12760  Biso   1.000  S
  S8       1.0000 0.20488  0.31241  0.37240  Biso   1.000  S
  C1       1.0000 0.37470  0.07200  0.71366  Biso   1.000  C
  C2       1.0000 0.62530  0.57200  0.78634  Biso   1.000  C
  C3       1.0000 0.62530  0.92800  0.28634  Biso   1.000  C
  C4       1.0000 0.37470  0.42800  0.21366  Biso   1.000  C
  H1       1.0000 0.28080  0.01750  0.68490  Biso   1.000  H
  H2       1.0000 0.71920  0.51750  0.81510  Biso   1.000  H
  H3       1.0000 0.71920  0.98250  0.31510  Biso   1.000  H
  H4       1.0000 0.28080  0.48250  0.18490  Biso   1.000  H
  H5       1.0000 0.42930  0.00870  0.76970  Biso   1.000  H
  H6       1.0000 0.57070  0.50870  0.73030  Biso   1.000  H
  H7       1.0000 0.57070  0.99130  0.23030  Biso   1.000  H
  H8       1.0000 0.42930  0.49130  0.26970  Biso   1.000  H
  H9       1.0000 0.44370  0.09070  0.65530  Biso   1.000  H
  H10      1.0000 0.55630  0.59070  0.84470  Biso   1.000  H
  H11      1.0000 0.55630  0.90930  0.34470  Biso   1.000  H
  H12      1.0000 0.44370  0.40930  0.15530  Biso   1.000  H
  C5       1.0000 0.17930  0.51380  0.73254  Biso   1.000  C
  C6       1.0000 0.82070  0.01380  0.76746  Biso   1.000  C
  C7       1.0000 0.82070  0.48620  0.26746  Biso   1.000  C
  C8       1.0000 0.17930  0.98620  0.23254  Biso   1.000  C
  H13      1.0000 0.27870  0.56210  0.76000  Biso   1.000  H
  H14      1.0000 0.72130  0.06210  0.74000  Biso   1.000  H
  H15      1.0000 0.72130  0.43790  0.24000  Biso   1.000  H
  H16      1.0000 0.27870  0.93790  0.26000  Biso   1.000  H
  H17      1.0000 0.12390  0.58860  0.68320  Biso   1.000  H
  H18      1.0000 0.87610  0.08860  0.81680  Biso   1.000  H
  H19      1.0000 0.87610  0.41140  0.31680  Biso   1.000  H
  H20      1.0000 0.12390  0.91140  0.18320  Biso   1.000  H
  C9       1.0000 0.32840  0.22640  0.76189  Biso   1.000  C
  C10      1.0000 0.67160  0.72640  0.73811  Biso   1.000  C
  C11      1.0000 0.67160  0.77360  0.23811  Biso   1.000  C
  C12      1.0000 0.32840  0.27360  0.26189  Biso   1.000  C
  H21      1.0000 0.42400  0.28380  0.78950  Biso   1.000  H
  H22      1.0000 0.57600  0.78380  0.71050  Biso   1.000  H
  H23      1.0000 0.57600  0.71620  0.21050  Biso   1.000  H
  H24      1.0000 0.42400  0.21620  0.28950  Biso   1.000  H
  C13      1.0000 0.08010  0.48120  0.82688  Biso   1.000  C
  C14      1.0000 0.91990  0.98120  0.67312  Biso   1.000  C
  C15      1.0000 0.91990  0.51880  0.17312  Biso   1.000  C
  C16      1.0000 0.08010  0.01880  0.32688  Biso   1.000  C
  H25      1.0000 0.98400  0.42630  0.79990  Biso   1.000  H
  H26      1.0000 0.01600  0.92630  0.70010  Biso   1.000  H
  H27      1.0000 0.01600  0.57370  0.20010  Biso   1.000  H
  H28      1.0000 0.98400  0.07370  0.29990  Biso   1.000  H
  H29      1.0000 0.04850  0.58080  0.85820  Biso   1.000  H
  H30      1.0000 0.95150  0.08080  0.64180  Biso   1.000  H
  H31      1.0000 0.95150  0.41920  0.14180  Biso   1.000  H
  H32      1.0000 0.04850  0.91920  0.35820  Biso   1.000  H
  C17      1.0000 0.16460  0.38390  0.91520  Biso   1.000  C
  C18      1.0000 0.83540  0.88390  0.58480  Biso   1.000  C
  C19      1.0000 0.83540  0.61610  0.08480  Biso   1.000  C
  C20      1.0000 0.16460  0.11610  0.41520  Biso   1.000  C
  H33      1.0000 0.10010  0.37970  0.97820  Biso   1.000  H
  H34      1.0000 0.89990  0.87970  0.52180  Biso   1.000  H
  H35      1.0000 0.89990  0.62030  0.02180  Biso   1.000  H
  H36      1.0000 0.10010  0.12030  0.47820  Biso   1.000  H
  H37      1.0000 0.26440  0.43510  0.93850  Biso   1.000  H
  H38      1.0000 0.73560  0.93510  0.56150  Biso   1.000  H
  H39      1.0000 0.73560  0.56490  0.06150  Biso   1.000  H
  H40      1.0000 0.26440  0.06490  0.43850  Biso   1.000  H
