data_image0
_cell_length_a       15.92
_cell_length_b       6.6692
_cell_length_c       8.3876
_cell_angle_alpha    90
_cell_angle_beta     99.466
_cell_angle_gamma    90

_symmetry_space_group_name_H-M    "P 1"
_symmetry_int_tables_number       1

loop_
  _symmetry_equiv_pos_as_xyz
  'x, y, z'

loop_
  _atom_site_label
  _atom_site_occupancy
  _atom_site_fract_x
  _atom_site_fract_y
  _atom_site_fract_z
  _atom_site_thermal_displace_type
  _atom_site_B_iso_or_equiv
  _atom_site_type_symbol
  I1       1.0000 0.56546  0.00000  0.31031  Biso   1.000  I
  I2       1.0000 0.43454  0.00000  0.68969  Biso   1.000  I
  I3       1.0000 0.06546  0.50000  0.31031  Biso   1.000  I
  I4       1.0000 0.93454  0.50000  0.68969  Biso   1.000  I
  Cu1      1.0000 0.59416  0.00000  0.62530  Biso   1.000  Cu
  Cu2      1.0000 0.40584  0.00000  0.37470  Biso   1.000  Cu
  Cu3      1.0000 0.09416  0.50000  0.62530  Biso   1.000  Cu
  Cu4      1.0000 0.90584  0.50000  0.37470  Biso   1.000  Cu
  S1       1.0000 0.66629  0.27470  0.75425  Biso   1.000  S
  S2       1.0000 0.33371  0.27470  0.24575  Biso   1.000  S
  S3       1.0000 0.16629  0.77470  0.75425  Biso   1.000  S
  S4       1.0000 0.83371  0.77470  0.24575  Biso   1.000  S
  S5       1.0000 0.33371  0.72530  0.24575  Biso   1.000  S
  S6       1.0000 0.66629  0.72530  0.75425  Biso   1.000  S
  S7       1.0000 0.83371  0.22530  0.24575  Biso   1.000  S
  S8       1.0000 0.16629  0.22530  0.75425  Biso   1.000  S
  C1       1.0000 0.63278  0.50000  0.63850  Biso   1.000  C
  C2       1.0000 0.36722  0.50000  0.36150  Biso   1.000  C
  C3       1.0000 0.13278  0.00000  0.63850  Biso   1.000  C
  C4       1.0000 0.86722  0.00000  0.36150  Biso   1.000  C
  H1       1.0000 0.56950  0.50000  0.60500  Biso   1.000  H
  H2       1.0000 0.43050  0.50000  0.39500  Biso   1.000  H
  H3       1.0000 0.06950  0.00000  0.60500  Biso   1.000  H
  H4       1.0000 0.93050  0.00000  0.39500  Biso   1.000  H
  C5       1.0000 0.67647  0.50000  0.48950  Biso   1.000  C
  C6       1.0000 0.32353  0.50000  0.51050  Biso   1.000  C
  C7       1.0000 0.17647  0.00000  0.48950  Biso   1.000  C
  C8       1.0000 0.82353  0.00000  0.51050  Biso   1.000  C
  C9       1.0000 0.64139  0.50000  0.02360  Biso   1.000  C
  C10      1.0000 0.35861  0.50000  0.97640  Biso   1.000  C
  C11      1.0000 0.14139  0.00000  0.02360  Biso   1.000  C
  C12      1.0000 0.85861  0.00000  0.97640  Biso   1.000  C
  H5       1.0000 0.70420  0.50000  0.05410  Biso   1.000  H
  H6       1.0000 0.29580  0.50000  0.94590  Biso   1.000  H
  H7       1.0000 0.20420  0.00000  0.05410  Biso   1.000  H
  H8       1.0000 0.79580  0.00000  0.94590  Biso   1.000  H
  H9       1.0000 0.61670  0.50000  0.12450  Biso   1.000  H
  H10      1.0000 0.38330  0.50000  0.87550  Biso   1.000  H
  H11      1.0000 0.11670  0.00000  0.12450  Biso   1.000  H
  H12      1.0000 0.88330  0.00000  0.87550  Biso   1.000  H
  C13      1.0000 0.61418  0.30970  0.92965  Biso   1.000  C
  C14      1.0000 0.38582  0.30970  0.07035  Biso   1.000  C
  C15      1.0000 0.11418  0.80970  0.92965  Biso   1.000  C
  C16      1.0000 0.88582  0.80970  0.07035  Biso   1.000  C
  C17      1.0000 0.38582  0.69030  0.07035  Biso   1.000  C
  C18      1.0000 0.61418  0.69030  0.92965  Biso   1.000  C
  C19      1.0000 0.88582  0.19030  0.07035  Biso   1.000  C
  C20      1.0000 0.11418  0.19030  0.92965  Biso   1.000  C
  H13      1.0000 0.55180  0.31340  0.89350  Biso   1.000  H
  H14      1.0000 0.44820  0.31340  0.10650  Biso   1.000  H
  H15      1.0000 0.05180  0.81340  0.89350  Biso   1.000  H
  H16      1.0000 0.94820  0.81340  0.10650  Biso   1.000  H
  H17      1.0000 0.44820  0.68660  0.10650  Biso   1.000  H
  H18      1.0000 0.55180  0.68660  0.89350  Biso   1.000  H
  H19      1.0000 0.94820  0.18660  0.10650  Biso   1.000  H
  H20      1.0000 0.05180  0.18660  0.89350  Biso   1.000  H
  H21      1.0000 0.62700  0.19300  0.00260  Biso   1.000  H
  H22      1.0000 0.37300  0.19300  0.99740  Biso   1.000  H
  H23      1.0000 0.12700  0.69300  0.00260  Biso   1.000  H
  H24      1.0000 0.87300  0.69300  0.99740  Biso   1.000  H
  H25      1.0000 0.37300  0.80700  0.99740  Biso   1.000  H
  H26      1.0000 0.62700  0.80700  0.00260  Biso   1.000  H
  H27      1.0000 0.87300  0.30700  0.99740  Biso   1.000  H
  H28      1.0000 0.12700  0.30700  0.00260  Biso   1.000  H
  H29      1.0000 0.67090  0.36720  0.43890  Biso   1.000  H
  H30      1.0000 0.32910  0.36720  0.56110  Biso   1.000  H
  H31      1.0000 0.17090  0.86720  0.43890  Biso   1.000  H
  H32      1.0000 0.82910  0.86720  0.56110  Biso   1.000  H
  H33      1.0000 0.32910  0.63280  0.56110  Biso   1.000  H
  H34      1.0000 0.67090  0.63280  0.43890  Biso   1.000  H
  H35      1.0000 0.82910  0.13280  0.56110  Biso   1.000  H
  H36      1.0000 0.17090  0.13280  0.43890  Biso   1.000  H
  H37      1.0000 0.73690  0.53240  0.52170  Biso   1.000  H
  H38      1.0000 0.26310  0.53240  0.47830  Biso   1.000  H
  H39      1.0000 0.23690  0.03240  0.52170  Biso   1.000  H
  H40      1.0000 0.76310  0.03240  0.47830  Biso   1.000  H
  H41      1.0000 0.26310  0.46760  0.47830  Biso   1.000  H
  H42      1.0000 0.73690  0.46760  0.52170  Biso   1.000  H
  H43      1.0000 0.76310  0.96760  0.47830  Biso   1.000  H
  H44      1.0000 0.23690  0.96760  0.52170  Biso   1.000  H
  H45      1.0000 0.64960  0.60050  0.41220  Biso   1.000  H
  H46      1.0000 0.35040  0.60050  0.58780  Biso   1.000  H
  H47      1.0000 0.14960  0.10050  0.41220  Biso   1.000  H
  H48      1.0000 0.85040  0.10050  0.58780  Biso   1.000  H
  H49      1.0000 0.35040  0.39950  0.58780  Biso   1.000  H
  H50      1.0000 0.64960  0.39950  0.41220  Biso   1.000  H
  H51      1.0000 0.85040  0.89950  0.58780  Biso   1.000  H
  H52      1.0000 0.14960  0.89950  0.41220  Biso   1.000  H
