data_image0
_cell_length_a       11.4527
_cell_length_b       12.7285
_cell_length_c       15.5777
_cell_angle_alpha    90
_cell_angle_beta     91.072
_cell_angle_gamma    90

_symmetry_space_group_name_H-M    "P 1"
_symmetry_int_tables_number       1

loop_
  _symmetry_equiv_pos_as_xyz
  'x, y, z'

loop_
  _atom_site_label
  _atom_site_occupancy
  _atom_site_fract_x
  _atom_site_fract_y
  _atom_site_fract_z
  _atom_site_thermal_displace_type
  _atom_site_B_iso_or_equiv
  _atom_site_type_symbol
  C1       1.0000 0.41982  0.77490  0.59357  Biso   1.000  C
  C2       1.0000 0.58018  0.27490  0.90643  Biso   1.000  C
  C3       1.0000 0.58018  0.22510  0.40643  Biso   1.000  C
  C4       1.0000 0.41982  0.72510  0.09357  Biso   1.000  C
  H1       1.0000 0.44679  0.72453  0.54976  Biso   1.000  H
  H2       1.0000 0.55321  0.22453  0.95024  Biso   1.000  H
  H3       1.0000 0.55321  0.27547  0.45024  Biso   1.000  H
  H4       1.0000 0.44679  0.77547  0.04976  Biso   1.000  H
  H5       1.0000 0.33954  0.79683  0.57712  Biso   1.000  H
  H6       1.0000 0.66046  0.29683  0.92288  Biso   1.000  H
  H7       1.0000 0.66046  0.20317  0.42288  Biso   1.000  H
  H8       1.0000 0.33954  0.70317  0.07712  Biso   1.000  H
  C5       1.0000 0.49916  0.87103  0.59319  Biso   1.000  C
  C6       1.0000 0.50084  0.37103  0.90681  Biso   1.000  C
  C7       1.0000 0.50084  0.12897  0.40681  Biso   1.000  C
  C8       1.0000 0.49916  0.62897  0.09319  Biso   1.000  C
  H9       1.0000 0.50360  0.89802  0.53374  Biso   1.000  H
  H10      1.0000 0.49640  0.39802  0.96626  Biso   1.000  H
  H11      1.0000 0.49640  0.10198  0.46626  Biso   1.000  H
  H12      1.0000 0.50360  0.60198  0.03374  Biso   1.000  H
  H13      1.0000 0.57883  0.84952  0.61162  Biso   1.000  H
  H14      1.0000 0.42117  0.34952  0.88838  Biso   1.000  H
  H15      1.0000 0.42117  0.15048  0.38838  Biso   1.000  H
  H16      1.0000 0.57883  0.65048  0.11162  Biso   1.000  H
  C9       1.0000 0.45822  0.95933  0.65149  Biso   1.000  C
  C10      1.0000 0.54178  0.45933  0.84851  Biso   1.000  C
  C11      1.0000 0.54178  0.04067  0.34851  Biso   1.000  C
  C12      1.0000 0.45822  0.54067  0.15149  Biso   1.000  C
  H17      1.0000 0.37765  0.97904  0.63389  Biso   1.000  H
  H18      1.0000 0.62235  0.47904  0.86611  Biso   1.000  H
  H19      1.0000 0.62235  0.02096  0.36611  Biso   1.000  H
  H20      1.0000 0.37765  0.52096  0.13389  Biso   1.000  H
  H21      1.0000 0.50859  0.02142  0.64246  Biso   1.000  H
  H22      1.0000 0.49141  0.52142  0.85754  Biso   1.000  H
  H23      1.0000 0.49141  0.97858  0.35754  Biso   1.000  H
  H24      1.0000 0.50859  0.47858  0.14246  Biso   1.000  H
  C13      1.0000 0.36373  0.81436  0.76471  Biso   1.000  C
  C14      1.0000 0.63627  0.31436  0.73529  Biso   1.000  C
  C15      1.0000 0.63627  0.18564  0.23529  Biso   1.000  C
  C16      1.0000 0.36373  0.68564  0.26471  Biso   1.000  C
  H25      1.0000 0.28447  0.83631  0.74351  Biso   1.000  H
  H26      1.0000 0.71553  0.33631  0.75649  Biso   1.000  H
  H27      1.0000 0.71553  0.16369  0.25649  Biso   1.000  H
  H28      1.0000 0.28447  0.66369  0.24351  Biso   1.000  H
  C17      1.0000 0.35396  0.77309  0.85633  Biso   1.000  C
  C18      1.0000 0.64604  0.27309  0.64367  Biso   1.000  C
  C19      1.0000 0.64604  0.22691  0.14367  Biso   1.000  C
  C20      1.0000 0.35396  0.72691  0.35633  Biso   1.000  C
  H29      1.0000 0.29956  0.71368  0.85700  Biso   1.000  H
  H30      1.0000 0.70044  0.21368  0.64300  Biso   1.000  H
  H31      1.0000 0.70044  0.28632  0.14300  Biso   1.000  H
  H32      1.0000 0.29956  0.78632  0.35700  Biso   1.000  H
  H33      1.0000 0.32505  0.82911  0.89349  Biso   1.000  H
  H34      1.0000 0.67495  0.32911  0.60651  Biso   1.000  H
  H35      1.0000 0.67495  0.17089  0.10651  Biso   1.000  H
  H36      1.0000 0.32505  0.67089  0.39349  Biso   1.000  H
  H37      1.0000 0.43098  0.74999  0.87729  Biso   1.000  H
  H38      1.0000 0.56902  0.24999  0.62271  Biso   1.000  H
  H39      1.0000 0.56902  0.25001  0.12271  Biso   1.000  H
  H40      1.0000 0.43098  0.75001  0.37729  Biso   1.000  H
  C21      1.0000 0.77209  0.71716  0.94492  Biso   1.000  C
  C22      1.0000 0.22791  0.21716  0.55508  Biso   1.000  C
  C23      1.0000 0.22791  0.28284  0.05508  Biso   1.000  C
  C24      1.0000 0.77209  0.78284  0.44492  Biso   1.000  C
  H41      1.0000 0.83070  0.77422  0.94271  Biso   1.000  H
  H42      1.0000 0.16930  0.27422  0.55729  Biso   1.000  H
  H43      1.0000 0.16930  0.22578  0.05729  Biso   1.000  H
  H44      1.0000 0.83070  0.72578  0.44271  Biso   1.000  H
  H45      1.0000 0.71721  0.73441  0.99120  Biso   1.000  H
  H46      1.0000 0.28279  0.23441  0.50880  Biso   1.000  H
  H47      1.0000 0.28279  0.26559  0.00880  Biso   1.000  H
  H48      1.0000 0.71721  0.76559  0.49120  Biso   1.000  H
  C25      1.0000 0.83438  0.61479  0.96772  Biso   1.000  C
  C26      1.0000 0.16562  0.11479  0.53228  Biso   1.000  C
  C27      1.0000 0.16562  0.38521  0.03228  Biso   1.000  C
  C28      1.0000 0.83438  0.88521  0.46772  Biso   1.000  C
  H49      1.0000 0.86880  0.62087  0.02628  Biso   1.000  H
  H50      1.0000 0.13120  0.12087  0.47372  Biso   1.000  H
  H51      1.0000 0.13120  0.37913  0.97372  Biso   1.000  H
  H52      1.0000 0.86880  0.87913  0.52628  Biso   1.000  H
  H53      1.0000 0.77636  0.55715  0.96834  Biso   1.000  H
  H54      1.0000 0.22364  0.05715  0.53166  Biso   1.000  H
  H55      1.0000 0.22364  0.44285  0.03166  Biso   1.000  H
  H56      1.0000 0.77636  0.94285  0.46834  Biso   1.000  H
  C29      1.0000 0.93028  0.58657  0.90569  Biso   1.000  C
  C30      1.0000 0.06972  0.08657  0.59431  Biso   1.000  C
  C31      1.0000 0.06972  0.41343  0.09431  Biso   1.000  C
  C32      1.0000 0.93028  0.91343  0.40569  Biso   1.000  C
  H57      1.0000 0.97477  0.52582  0.92877  Biso   1.000  H
  H58      1.0000 0.02523  0.02582  0.57123  Biso   1.000  H
  H59      1.0000 0.02523  0.47418  0.07123  Biso   1.000  H
  H60      1.0000 0.97477  0.97418  0.42877  Biso   1.000  H
  H61      1.0000 0.98488  0.64655  0.90128  Biso   1.000  H
  H62      1.0000 0.01512  0.14655  0.59872  Biso   1.000  H
  H63      1.0000 0.01512  0.35345  0.09872  Biso   1.000  H
  H64      1.0000 0.98488  0.85345  0.40128  Biso   1.000  H
  C33      1.0000 0.80617  0.67849  0.76878  Biso   1.000  C
  C34      1.0000 0.19383  0.17849  0.73122  Biso   1.000  C
  C35      1.0000 0.19383  0.32151  0.23122  Biso   1.000  C
  C36      1.0000 0.80617  0.82151  0.26878  Biso   1.000  C
  H65      1.0000 0.86660  0.73516  0.76772  Biso   1.000  H
  H66      1.0000 0.13340  0.23516  0.73228  Biso   1.000  H
  H67      1.0000 0.13340  0.26484  0.23228  Biso   1.000  H
  H68      1.0000 0.86660  0.76484  0.26772  Biso   1.000  H
  C37      1.0000 0.75147  0.66471  0.67944  Biso   1.000  C
  C38      1.0000 0.24853  0.16471  0.82056  Biso   1.000  C
  C39      1.0000 0.24853  0.33529  0.32056  Biso   1.000  C
  C40      1.0000 0.75147  0.83529  0.17944  Biso   1.000  C
  H69      1.0000 0.69086  0.61044  0.68127  Biso   1.000  H
  H70      1.0000 0.30914  0.11044  0.81873  Biso   1.000  H
  H71      1.0000 0.30914  0.38956  0.31873  Biso   1.000  H
  H72      1.0000 0.69086  0.88956  0.18127  Biso   1.000  H
  H73      1.0000 0.81182  0.64354  0.63915  Biso   1.000  H
  H74      1.0000 0.18818  0.14354  0.86085  Biso   1.000  H
  H75      1.0000 0.18818  0.35646  0.36085  Biso   1.000  H
  H76      1.0000 0.81182  0.85646  0.13915  Biso   1.000  H
  H77      1.0000 0.71659  0.73129  0.66050  Biso   1.000  H
  H78      1.0000 0.28341  0.23129  0.83950  Biso   1.000  H
  H79      1.0000 0.28341  0.26871  0.33950  Biso   1.000  H
  H80      1.0000 0.71659  0.76871  0.16050  Biso   1.000  H
  Cu1      1.0000 0.25772  0.59812  0.67315  Biso   1.000  Cu
  Cu2      1.0000 0.74228  0.09812  0.82685  Biso   1.000  Cu
  Cu3      1.0000 0.74228  0.40188  0.32685  Biso   1.000  Cu
  Cu4      1.0000 0.25772  0.90188  0.17315  Biso   1.000  Cu
  Cu5      1.0000 0.64557  0.88660  0.81235  Biso   1.000  Cu
  Cu6      1.0000 0.35443  0.38660  0.68765  Biso   1.000  Cu
  Cu7      1.0000 0.35443  0.11340  0.18765  Biso   1.000  Cu
  Cu8      1.0000 0.64557  0.61340  0.31235  Biso   1.000  Cu
  Cu9      1.0000 0.03332  0.54471  0.71111  Biso   1.000  Cu
  Cu10     1.0000 0.96668  0.04471  0.78889  Biso   1.000  Cu
  Cu11     1.0000 0.96668  0.45529  0.28889  Biso   1.000  Cu
  Cu12     1.0000 0.03332  0.95529  0.21111  Biso   1.000  Cu
  Cu13     1.0000 0.90045  0.45656  0.45180  Biso   1.000  Cu
  Cu14     1.0000 0.09955  0.95656  0.04820  Biso   1.000  Cu
  Cu15     1.0000 0.09955  0.54344  0.54820  Biso   1.000  Cu
  Cu16     1.0000 0.90045  0.04344  0.95180  Biso   1.000  Cu
  I1       1.0000 0.32396  0.48811  0.53853  Biso   1.000  I
  I2       1.0000 0.67604  0.98811  0.96147  Biso   1.000  I
  I3       1.0000 0.67604  0.51189  0.46147  Biso   1.000  I
  I4       1.0000 0.32396  0.01189  0.03853  Biso   1.000  I
  I5       1.0000 0.21236  0.47271  0.80262  Biso   1.000  I
  I6       1.0000 0.78764  0.97271  0.69738  Biso   1.000  I
  I7       1.0000 0.78764  0.52729  0.19738  Biso   1.000  I
  I8       1.0000 0.21236  0.02729  0.30262  Biso   1.000  I
  I9       1.0000 0.95995  0.39404  0.60694  Biso   1.000  I
  I10      1.0000 0.04005  0.89404  0.89306  Biso   1.000  I
  I11      1.0000 0.04005  0.60596  0.39306  Biso   1.000  I
  I12      1.0000 0.95995  0.10596  0.10694  Biso   1.000  I
  I13      1.0000 0.07882  0.72880  0.63948  Biso   1.000  I
  I14      1.0000 0.92118  0.22880  0.86052  Biso   1.000  I
  I15      1.0000 0.92118  0.27120  0.36052  Biso   1.000  I
  I16      1.0000 0.07882  0.77120  0.13948  Biso   1.000  I
  S1       1.0000 0.41627  0.70889  0.69694  Biso   1.000  S
  S2       1.0000 0.58373  0.20889  0.80306  Biso   1.000  S
  S3       1.0000 0.58373  0.29111  0.30306  Biso   1.000  S
  S4       1.0000 0.41627  0.79111  0.19694  Biso   1.000  S
  S5       1.0000 0.45975  0.92835  0.76510  Biso   1.000  S
  S6       1.0000 0.54025  0.42835  0.73490  Biso   1.000  S
  S7       1.0000 0.54025  0.07165  0.23490  Biso   1.000  S
  S8       1.0000 0.45975  0.57165  0.26510  Biso   1.000  S
  S9       1.0000 0.69138  0.71376  0.84310  Biso   1.000  S
  S10      1.0000 0.30862  0.21376  0.65690  Biso   1.000  S
  S11      1.0000 0.30862  0.28624  0.15690  Biso   1.000  S
  S12      1.0000 0.69138  0.78624  0.34310  Biso   1.000  S
  S13      1.0000 0.87369  0.55425  0.79943  Biso   1.000  S
  S14      1.0000 0.12631  0.05425  0.70057  Biso   1.000  S
  S15      1.0000 0.12631  0.44575  0.20057  Biso   1.000  S
  S16      1.0000 0.87369  0.94575  0.29943  Biso   1.000  S
