data_image0
_cell_length_a       9.5777
_cell_length_b       15.3938
_cell_length_c       13.8256
_cell_angle_alpha    90
_cell_angle_beta     94.741
_cell_angle_gamma    90

_symmetry_space_group_name_H-M    "P 1"
_symmetry_int_tables_number       1

loop_
  _symmetry_equiv_pos_as_xyz
  'x, y, z'

loop_
  _atom_site_label
  _atom_site_occupancy
  _atom_site_fract_x
  _atom_site_fract_y
  _atom_site_fract_z
  _atom_site_thermal_displace_type
  _atom_site_B_iso_or_equiv
  _atom_site_type_symbol
  Br1      1.0000 0.42620  0.50735  0.31651  Biso   1.000  Br
  Br2      1.0000 0.57380  0.00735  0.18349  Biso   1.000  Br
  Br3      1.0000 0.57380  0.49265  0.68349  Biso   1.000  Br
  Br4      1.0000 0.42620  0.99265  0.81651  Biso   1.000  Br
  Br5      1.0000 0.73529  0.38708  0.16409  Biso   1.000  Br
  Br6      1.0000 0.26471  0.88708  0.33591  Biso   1.000  Br
  Br7      1.0000 0.26471  0.61292  0.83591  Biso   1.000  Br
  Br8      1.0000 0.73529  0.11292  0.66409  Biso   1.000  Br
  Br9      1.0000 0.09135  0.34981  0.33134  Biso   1.000  Br
  Br10     1.0000 0.90865  0.84981  0.16866  Biso   1.000  Br
  Br11     1.0000 0.90865  0.65019  0.66866  Biso   1.000  Br
  Br12     1.0000 0.09135  0.15019  0.83134  Biso   1.000  Br
  C1       1.0000 0.18100  0.30563  0.06938  Biso   1.000  C
  C2       1.0000 0.81900  0.80563  0.43062  Biso   1.000  C
  C3       1.0000 0.81900  0.69437  0.93062  Biso   1.000  C
  C4       1.0000 0.18100  0.19437  0.56938  Biso   1.000  C
  H1       1.0000 0.12820  0.26710  0.11060  Biso   1.000  H
  H2       1.0000 0.87180  0.76710  0.38940  Biso   1.000  H
  H3       1.0000 0.87180  0.73290  0.88940  Biso   1.000  H
  H4       1.0000 0.12820  0.23290  0.61060  Biso   1.000  H
  H5       1.0000 0.18680  0.27690  0.00580  Biso   1.000  H
  H6       1.0000 0.81320  0.77690  0.49420  Biso   1.000  H
  H7       1.0000 0.81320  0.72310  0.99420  Biso   1.000  H
  H8       1.0000 0.18680  0.22310  0.50580  Biso   1.000  H
  C5       1.0000 0.24620  0.47881  0.06581  Biso   1.000  C
  C6       1.0000 0.75380  0.97881  0.43419  Biso   1.000  C
  C7       1.0000 0.75380  0.52119  0.93419  Biso   1.000  C
  C8       1.0000 0.24620  0.02119  0.56581  Biso   1.000  C
  H9       1.0000 0.24120  0.52290  0.01350  Biso   1.000  H
  H10      1.0000 0.75880  0.02290  0.48650  Biso   1.000  H
  H11      1.0000 0.75880  0.47710  0.98650  Biso   1.000  H
  H12      1.0000 0.24120  0.97710  0.51350  Biso   1.000  H
  H13      1.0000 0.25030  0.50940  0.12900  Biso   1.000  H
  H14      1.0000 0.74970  0.00940  0.37100  Biso   1.000  H
  H15      1.0000 0.74970  0.49060  0.87100  Biso   1.000  H
  H16      1.0000 0.25030  0.99060  0.62900  Biso   1.000  H
  C9       1.0000 0.37590  0.42361  0.06030  Biso   1.000  C
  C10      1.0000 0.62410  0.92361  0.43970  Biso   1.000  C
  C11      1.0000 0.62410  0.57639  0.93970  Biso   1.000  C
  C12      1.0000 0.37590  0.07639  0.56030  Biso   1.000  C
  H17      1.0000 0.45920  0.45540  0.08900  Biso   1.000  H
  H18      1.0000 0.54080  0.95540  0.41100  Biso   1.000  H
  H19      1.0000 0.54080  0.54460  0.91100  Biso   1.000  H
  H20      1.0000 0.45920  0.04460  0.58900  Biso   1.000  H
  H21      1.0000 0.39010  0.41050  0.99170  Biso   1.000  H
  H22      1.0000 0.60990  0.91050  0.50830  Biso   1.000  H
  H23      1.0000 0.60990  0.58950  0.00830  Biso   1.000  H
  H24      1.0000 0.39010  0.08950  0.49170  Biso   1.000  H
  C13      1.0000 0.55090  0.32804  0.48522  Biso   1.000  C
  C14      1.0000 0.44910  0.82804  0.01478  Biso   1.000  C
  C15      1.0000 0.44910  0.67196  0.51478  Biso   1.000  C
  C16      1.0000 0.55090  0.17196  0.98522  Biso   1.000  C
  H25      1.0000 0.49740  0.38140  0.49740  Biso   1.000  H
  H26      1.0000 0.50260  0.88140  0.00260  Biso   1.000  H
  H27      1.0000 0.50260  0.61860  0.50260  Biso   1.000  H
  H28      1.0000 0.49740  0.11860  0.99740  Biso   1.000  H
  H29      1.0000 0.56410  0.29470  0.54650  Biso   1.000  H
  H30      1.0000 0.43590  0.79470  0.95350  Biso   1.000  H
  H31      1.0000 0.43590  0.70530  0.45350  Biso   1.000  H
  H32      1.0000 0.56410  0.20530  0.04650  Biso   1.000  H
  C17      1.0000 0.74200  0.24880  0.39540  Biso   1.000  C
  C18      1.0000 0.25800  0.74880  0.10460  Biso   1.000  C
  C19      1.0000 0.25800  0.75120  0.60460  Biso   1.000  C
  C20      1.0000 0.74200  0.25120  0.89540  Biso   1.000  C
  H33      1.0000 0.82180  0.24900  0.35420  Biso   1.000  H
  H34      1.0000 0.17820  0.74900  0.14580  Biso   1.000  H
  H35      1.0000 0.17820  0.75100  0.64580  Biso   1.000  H
  H36      1.0000 0.82180  0.25100  0.85420  Biso   1.000  H
  H37      1.0000 0.76310  0.20700  0.44900  Biso   1.000  H
  H38      1.0000 0.23690  0.70700  0.05100  Biso   1.000  H
  H39      1.0000 0.23690  0.79300  0.55100  Biso   1.000  H
  H40      1.0000 0.76310  0.29300  0.94900  Biso   1.000  H
  C21      1.0000 0.60960  0.22179  0.33580  Biso   1.000  C
  C22      1.0000 0.39040  0.72179  0.16420  Biso   1.000  C
  C23      1.0000 0.39040  0.77821  0.66420  Biso   1.000  C
  C24      1.0000 0.60960  0.27821  0.83580  Biso   1.000  C
  H41      1.0000 0.60490  0.15760  0.33170  Biso   1.000  H
  H42      1.0000 0.39510  0.65760  0.16830  Biso   1.000  H
  H43      1.0000 0.39510  0.84240  0.66830  Biso   1.000  H
  H44      1.0000 0.60490  0.34240  0.83170  Biso   1.000  H
  H45      1.0000 0.61030  0.24510  0.26910  Biso   1.000  H
  H46      1.0000 0.38970  0.74510  0.23090  Biso   1.000  H
  H47      1.0000 0.38970  0.75490  0.73090  Biso   1.000  H
  H48      1.0000 0.61030  0.25490  0.76910  Biso   1.000  H
  C25      1.0000 0.82360  0.61812  0.22231  Biso   1.000  C
  C26      1.0000 0.17640  0.11812  0.27769  Biso   1.000  C
  C27      1.0000 0.17640  0.38188  0.77769  Biso   1.000  C
  C28      1.0000 0.82360  0.88188  0.72231  Biso   1.000  C
  H49      1.0000 0.75830  0.59040  0.17230  Biso   1.000  H
  H50      1.0000 0.24170  0.09040  0.32770  Biso   1.000  H
  H51      1.0000 0.24170  0.40960  0.82770  Biso   1.000  H
  H52      1.0000 0.75830  0.90960  0.67230  Biso   1.000  H
  H53      1.0000 0.81660  0.68190  0.21410  Biso   1.000  H
  H54      1.0000 0.18340  0.18190  0.28590  Biso   1.000  H
  H55      1.0000 0.18340  0.31810  0.78590  Biso   1.000  H
  H56      1.0000 0.81660  0.81810  0.71410  Biso   1.000  H
  C29      1.0000 0.95610  0.57627  0.39823  Biso   1.000  C
  C30      1.0000 0.04390  0.07627  0.10177  Biso   1.000  C
  C31      1.0000 0.04390  0.42373  0.60177  Biso   1.000  C
  C32      1.0000 0.95610  0.92373  0.89823  Biso   1.000  C
  H57      1.0000 0.96570  0.60800  0.46070  Biso   1.000  H
  H58      1.0000 0.03430  0.10800  0.03930  Biso   1.000  H
  H59      1.0000 0.03430  0.39200  0.53930  Biso   1.000  H
  H60      1.0000 0.96570  0.89200  0.96070  Biso   1.000  H
  H61      1.0000 0.97680  0.51420  0.41150  Biso   1.000  H
  H62      1.0000 0.02320  0.01420  0.08850  Biso   1.000  H
  H63      1.0000 0.02320  0.48580  0.58850  Biso   1.000  H
  H64      1.0000 0.97680  0.98580  0.91150  Biso   1.000  H
  C33      1.0000 0.05820  0.61208  0.33123  Biso   1.000  C
  C34      1.0000 0.94180  0.11208  0.16877  Biso   1.000  C
  C35      1.0000 0.94180  0.38792  0.66877  Biso   1.000  C
  C36      1.0000 0.05820  0.88792  0.83123  Biso   1.000  C
  H65      1.0000 0.15260  0.58770  0.34840  Biso   1.000  H
  H66      1.0000 0.84740  0.08770  0.15160  Biso   1.000  H
  H67      1.0000 0.84740  0.41230  0.65160  Biso   1.000  H
  H68      1.0000 0.15260  0.91230  0.84840  Biso   1.000  H
  H69      1.0000 0.06360  0.67610  0.33760  Biso   1.000  H
  H70      1.0000 0.93640  0.17610  0.16240  Biso   1.000  H
  H71      1.0000 0.93640  0.32390  0.66240  Biso   1.000  H
  H72      1.0000 0.06360  0.82390  0.83760  Biso   1.000  H
  Cu1      1.0000 0.33702  0.36103  0.28556  Biso   1.000  Cu
  Cu2      1.0000 0.66298  0.86103  0.21444  Biso   1.000  Cu
  Cu3      1.0000 0.66298  0.63897  0.71444  Biso   1.000  Cu
  Cu4      1.0000 0.33702  0.13897  0.78556  Biso   1.000  Cu
  Cu5      1.0000 0.67141  0.45115  0.31850  Biso   1.000  Cu
  Cu6      1.0000 0.32859  0.95115  0.18150  Biso   1.000  Cu
  Cu7      1.0000 0.32859  0.54885  0.68150  Biso   1.000  Cu
  Cu8      1.0000 0.67141  0.04885  0.81850  Biso   1.000  Cu
  Cu9      1.0000 0.98140  0.43381  0.19614  Biso   1.000  Cu
  Cu10     1.0000 0.01860  0.93381  0.30386  Biso   1.000  Cu
  Cu11     1.0000 0.01860  0.56619  0.80386  Biso   1.000  Cu
  Cu12     1.0000 0.98140  0.06619  0.69614  Biso   1.000  Cu
  S1       1.0000 0.09127  0.40936  0.05269  Biso   1.000  S
  S2       1.0000 0.90873  0.90936  0.44731  Biso   1.000  S
  S3       1.0000 0.90873  0.59064  0.94731  Biso   1.000  S
  S4       1.0000 0.09127  0.09064  0.55269  Biso   1.000  S
  S5       1.0000 0.35416  0.32384  0.12610  Biso   1.000  S
  S6       1.0000 0.64584  0.82384  0.37390  Biso   1.000  S
  S7       1.0000 0.64584  0.67616  0.87390  Biso   1.000  S
  S8       1.0000 0.35416  0.17616  0.62610  Biso   1.000  S
  S9       1.0000 0.45646  0.26305  0.39188  Biso   1.000  S
  S10      1.0000 0.54354  0.76305  0.10812  Biso   1.000  S
  S11      1.0000 0.54354  0.73695  0.60812  Biso   1.000  S
  S12      1.0000 0.45646  0.23695  0.89188  Biso   1.000  S
  S13      1.0000 0.71776  0.35595  0.44388  Biso   1.000  S
  S14      1.0000 0.28224  0.85595  0.05612  Biso   1.000  S
  S15      1.0000 0.28224  0.64405  0.55612  Biso   1.000  S
  S16      1.0000 0.71776  0.14405  0.94388  Biso   1.000  S
  S17      1.0000 0.77759  0.58770  0.34252  Biso   1.000  S
  S18      1.0000 0.22241  0.08770  0.15748  Biso   1.000  S
  S19      1.0000 0.22241  0.41230  0.65748  Biso   1.000  S
  S20      1.0000 0.77759  0.91230  0.84252  Biso   1.000  S
  S21      1.0000 0.99925  0.58311  0.20888  Biso   1.000  S
  S22      1.0000 0.00075  0.08311  0.29112  Biso   1.000  S
  S23      1.0000 0.00075  0.41689  0.79112  Biso   1.000  S
  S24      1.0000 0.99925  0.91689  0.70888  Biso   1.000  S
