data_image0
_cell_length_a       6.9071
_cell_length_b       12.5567
_cell_length_c       7.3548
_cell_angle_alpha    90
_cell_angle_beta     97.509
_cell_angle_gamma    90

_symmetry_space_group_name_H-M    "P 1"
_symmetry_int_tables_number       1

loop_
  _symmetry_equiv_pos_as_xyz
  'x, y, z'

loop_
  _atom_site_label
  _atom_site_occupancy
  _atom_site_fract_x
  _atom_site_fract_y
  _atom_site_fract_z
  _atom_site_thermal_displace_type
  _atom_site_B_iso_or_equiv
  _atom_site_type_symbol
  Cu1      1.0000 0.40410  0.50986  0.26697  Biso   1.000  Cu
  Cu2      1.0000 0.40410  0.49014  0.76697  Biso   1.000  Cu
  Cu3      1.0000 0.90410  0.00986  0.26697  Biso   1.000  Cu
  Cu4      1.0000 0.90410  0.99014  0.76697  Biso   1.000  Cu
  Cl1      1.0000 0.20154  0.46515  0.48520  Biso   1.000  Cl
  Cl2      1.0000 0.20154  0.53485  0.98520  Biso   1.000  Cl
  Cl3      1.0000 0.70154  0.96515  0.48520  Biso   1.000  Cl
  Cl4      1.0000 0.70154  0.03485  0.98520  Biso   1.000  Cl
  S1       1.0000 0.54803  0.67202  0.33395  Biso   1.000  S
  S2       1.0000 0.54803  0.32798  0.83395  Biso   1.000  S
  S3       1.0000 0.04803  0.17202  0.33395  Biso   1.000  S
  S4       1.0000 0.04803  0.82798  0.83395  Biso   1.000  S
  S5       1.0000 0.60168  0.63475  0.73270  Biso   1.000  S
  S6       1.0000 0.60168  0.36525  0.23270  Biso   1.000  S
  S7       1.0000 0.10168  0.13475  0.73270  Biso   1.000  S
  S8       1.0000 0.10168  0.86525  0.23270  Biso   1.000  S
  C1       1.0000 0.46730  0.71207  0.54640  Biso   1.000  C
  C2       1.0000 0.46730  0.28793  0.04640  Biso   1.000  C
  C3       1.0000 0.96730  0.21207  0.54640  Biso   1.000  C
  C4       1.0000 0.96730  0.78793  0.04640  Biso   1.000  C
  H1       1.0000 0.32540  0.69910  0.54170  Biso   1.000  H
  H2       1.0000 0.32540  0.30090  0.04170  Biso   1.000  H
  H3       1.0000 0.82540  0.19910  0.54170  Biso   1.000  H
  H4       1.0000 0.82540  0.80090  0.04170  Biso   1.000  H
  H5       1.0000 0.49190  0.78910  0.56730  Biso   1.000  H
  H6       1.0000 0.49190  0.21090  0.06730  Biso   1.000  H
  H7       1.0000 0.99190  0.28910  0.56730  Biso   1.000  H
  H8       1.0000 0.99190  0.71090  0.06730  Biso   1.000  H
  C5       1.0000 0.79730  0.58810  0.60780  Biso   1.000  C
  C6       1.0000 0.79730  0.41190  0.10780  Biso   1.000  C
  C7       1.0000 0.29730  0.08810  0.60780  Biso   1.000  C
  C8       1.0000 0.29730  0.91190  0.10780  Biso   1.000  C
  H9       1.0000 0.92460  0.59350  0.68670  Biso   1.000  H
  H10      1.0000 0.92460  0.40650  0.18670  Biso   1.000  H
  H11      1.0000 0.42460  0.09350  0.68670  Biso   1.000  H
  H12      1.0000 0.42460  0.90650  0.18670  Biso   1.000  H
  H13      1.0000 0.77530  0.51260  0.57230  Biso   1.000  H
  H14      1.0000 0.77530  0.48740  0.07230  Biso   1.000  H
  H15      1.0000 0.27530  0.01260  0.57230  Biso   1.000  H
  H16      1.0000 0.27530  0.98740  0.07230  Biso   1.000  H
  C9       1.0000 0.79920  0.65590  0.43910  Biso   1.000  C
  C10      1.0000 0.79920  0.34410  0.93910  Biso   1.000  C
  C11      1.0000 0.29920  0.15590  0.43910  Biso   1.000  C
  C12      1.0000 0.29920  0.84410  0.93910  Biso   1.000  C
  H17      1.0000 0.87720  0.62100  0.35230  Biso   1.000  H
  H18      1.0000 0.87720  0.37900  0.85230  Biso   1.000  H
  H19      1.0000 0.37720  0.12100  0.35230  Biso   1.000  H
  H20      1.0000 0.37720  0.87900  0.85230  Biso   1.000  H
  H21      1.0000 0.85790  0.72620  0.47290  Biso   1.000  H
  H22      1.0000 0.85790  0.27380  0.97290  Biso   1.000  H
  H23      1.0000 0.35790  0.22620  0.47290  Biso   1.000  H
  H24      1.0000 0.35790  0.77380  0.97290  Biso   1.000  H
