data_image0
_cell_length_a       7.2512
_cell_length_b       10.5058
_cell_length_c       22.256
_cell_angle_alpha    90
_cell_angle_beta     96.086
_cell_angle_gamma    90

_symmetry_space_group_name_H-M    "P 1"
_symmetry_int_tables_number       1

loop_
  _symmetry_equiv_pos_as_xyz
  'x, y, z'

loop_
  _atom_site_label
  _atom_site_occupancy
  _atom_site_fract_x
  _atom_site_fract_y
  _atom_site_fract_z
  _atom_site_thermal_displace_type
  _atom_site_B_iso_or_equiv
  _atom_site_type_symbol
  I1       1.0000 0.73767  0.05887  0.44219  Biso   1.000  I
  I2       1.0000 0.26233  0.55887  0.05781  Biso   1.000  I
  I3       1.0000 0.26233  0.94113  0.55781  Biso   1.000  I
  I4       1.0000 0.73767  0.44113  0.94219  Biso   1.000  I
  I5       1.0000 0.75320  0.73913  0.56743  Biso   1.000  I
  I6       1.0000 0.24680  0.23913  0.93257  Biso   1.000  I
  I7       1.0000 0.24680  0.26087  0.43257  Biso   1.000  I
  I8       1.0000 0.75320  0.76087  0.06743  Biso   1.000  I
  Cu1      1.0000 0.53812  0.87375  0.49253  Biso   1.000  Cu
  Cu2      1.0000 0.46188  0.37375  0.00747  Biso   1.000  Cu
  Cu3      1.0000 0.46188  0.12625  0.50747  Biso   1.000  Cu
  Cu4      1.0000 0.53812  0.62625  0.99253  Biso   1.000  Cu
  Cu5      1.0000 0.93529  0.87288  0.49573  Biso   1.000  Cu
  Cu6      1.0000 0.06471  0.37288  0.00427  Biso   1.000  Cu
  Cu7      1.0000 0.06471  0.12712  0.50427  Biso   1.000  Cu
  Cu8      1.0000 0.93529  0.62712  0.99573  Biso   1.000  Cu
  Fe1      1.0000 0.24815  0.92172  0.24736  Biso   1.000  Fe
  Fe2      1.0000 0.75185  0.42172  0.25264  Biso   1.000  Fe
  Fe3      1.0000 0.75185  0.07828  0.75264  Biso   1.000  Fe
  Fe4      1.0000 0.24815  0.57828  0.74736  Biso   1.000  Fe
  S1       1.0000 0.42908  0.77302  0.40379  Biso   1.000  S
  S2       1.0000 0.57092  0.27302  0.09621  Biso   1.000  S
  S3       1.0000 0.57092  0.22698  0.59621  Biso   1.000  S
  S4       1.0000 0.42908  0.72698  0.90379  Biso   1.000  S
  S5       1.0000 0.03102  0.73978  0.42227  Biso   1.000  S
  S6       1.0000 0.96898  0.23978  0.07773  Biso   1.000  S
  S7       1.0000 0.96898  0.26022  0.57773  Biso   1.000  S
  S8       1.0000 0.03102  0.76022  0.92227  Biso   1.000  S
  C1       1.0000 0.13720  0.82920  0.31505  Biso   1.000  C
  C2       1.0000 0.86280  0.32920  0.18495  Biso   1.000  C
  C3       1.0000 0.86280  0.17080  0.68495  Biso   1.000  C
  C4       1.0000 0.13720  0.67080  0.81505  Biso   1.000  C
  C5       1.0000 0.19160  0.73900  0.27217  Biso   1.000  C
  C6       1.0000 0.80840  0.23900  0.22783  Biso   1.000  C
  C7       1.0000 0.80840  0.26100  0.72783  Biso   1.000  C
  C8       1.0000 0.19160  0.76100  0.77217  Biso   1.000  C
  H1       1.0000 0.27700  0.67100  0.28040  Biso   1.000  H
  H2       1.0000 0.72300  0.17100  0.21960  Biso   1.000  H
  H3       1.0000 0.72300  0.32900  0.71960  Biso   1.000  H
  H4       1.0000 0.27700  0.82900  0.78040  Biso   1.000  H
  C9       1.0000 0.09460  0.76930  0.21504  Biso   1.000  C
  C10      1.0000 0.90540  0.26930  0.28496  Biso   1.000  C
  C11      1.0000 0.90540  0.23070  0.78496  Biso   1.000  C
  C12      1.0000 0.09460  0.73070  0.71504  Biso   1.000  C
  H5       1.0000 0.10630  0.72620  0.17810  Biso   1.000  H
  H6       1.0000 0.89370  0.22620  0.32190  Biso   1.000  H
  H7       1.0000 0.89370  0.27380  0.82190  Biso   1.000  H
  H8       1.0000 0.10630  0.77380  0.67810  Biso   1.000  H
  C13      1.0000 0.97670  0.87540  0.22259  Biso   1.000  C
  C14      1.0000 0.02330  0.37540  0.27741  Biso   1.000  C
  C15      1.0000 0.02330  0.12460  0.77741  Biso   1.000  C
  C16      1.0000 0.97670  0.62460  0.72259  Biso   1.000  C
  H9       1.0000 0.89490  0.91420  0.19180  Biso   1.000  H
  H10      1.0000 0.10510  0.41420  0.30820  Biso   1.000  H
  H11      1.0000 0.10510  0.08580  0.80820  Biso   1.000  H
  H12      1.0000 0.89490  0.58580  0.69180  Biso   1.000  H
  C17      1.0000 0.00290  0.91310  0.28459  Biso   1.000  C
  C18      1.0000 0.99710  0.41310  0.21541  Biso   1.000  C
  C19      1.0000 0.99710  0.08690  0.71541  Biso   1.000  C
  C20      1.0000 0.00290  0.58690  0.78459  Biso   1.000  C
  H13      1.0000 0.94210  0.98150  0.30230  Biso   1.000  H
  H14      1.0000 0.05790  0.48150  0.19770  Biso   1.000  H
  H15      1.0000 0.05790  0.01850  0.69770  Biso   1.000  H
  H16      1.0000 0.94210  0.51850  0.80230  Biso   1.000  H
  C21      1.0000 0.42070  0.06530  0.28070  Biso   1.000  C
  C22      1.0000 0.57930  0.56530  0.21930  Biso   1.000  C
  C23      1.0000 0.57930  0.93470  0.71930  Biso   1.000  C
  C24      1.0000 0.42070  0.43470  0.78070  Biso   1.000  C
  H17      1.0000 0.42480  0.10270  0.31970  Biso   1.000  H
  H18      1.0000 0.57520  0.60270  0.18030  Biso   1.000  H
  H19      1.0000 0.57520  0.89730  0.68030  Biso   1.000  H
  H20      1.0000 0.42480  0.39730  0.81970  Biso   1.000  H
  C25      1.0000 0.52390  0.95880  0.26520  Biso   1.000  C
  C26      1.0000 0.47610  0.45880  0.23480  Biso   1.000  C
  C27      1.0000 0.47610  0.04120  0.73480  Biso   1.000  C
  C28      1.0000 0.52390  0.54120  0.76520  Biso   1.000  C
  H21      1.0000 0.60870  0.91130  0.29190  Biso   1.000  H
  H22      1.0000 0.39130  0.41130  0.20810  Biso   1.000  H
  H23      1.0000 0.39130  0.08870  0.70810  Biso   1.000  H
  H24      1.0000 0.60870  0.58870  0.79190  Biso   1.000  H
  C29      1.0000 0.47830  0.93490  0.20220  Biso   1.000  C
  C30      1.0000 0.52170  0.43490  0.29780  Biso   1.000  C
  C31      1.0000 0.52170  0.06510  0.79780  Biso   1.000  C
  C32      1.0000 0.47830  0.56510  0.70220  Biso   1.000  C
  H25      1.0000 0.52850  0.86940  0.17940  Biso   1.000  H
  H26      1.0000 0.47150  0.36940  0.32060  Biso   1.000  H
  H27      1.0000 0.47150  0.13060  0.82060  Biso   1.000  H
  H28      1.0000 0.52850  0.63060  0.67940  Biso   1.000  H
  C33      1.0000 0.34500  0.02640  0.17990  Biso   1.000  C
  C34      1.0000 0.65500  0.52640  0.32010  Biso   1.000  C
  C35      1.0000 0.65500  0.97360  0.82010  Biso   1.000  C
  C36      1.0000 0.34500  0.47360  0.67990  Biso   1.000  C
  H29      1.0000 0.28880  0.03260  0.13950  Biso   1.000  H
  H30      1.0000 0.71120  0.53260  0.36050  Biso   1.000  H
  H31      1.0000 0.71120  0.96740  0.86050  Biso   1.000  H
  H32      1.0000 0.28880  0.46740  0.63950  Biso   1.000  H
  C37      1.0000 0.31000  0.10680  0.22820  Biso   1.000  C
  C38      1.0000 0.69000  0.60680  0.27180  Biso   1.000  C
  C39      1.0000 0.69000  0.89320  0.77180  Biso   1.000  C
  C40      1.0000 0.31000  0.39320  0.72820  Biso   1.000  C
  H33      1.0000 0.22660  0.17680  0.22590  Biso   1.000  H
  H34      1.0000 0.77340  0.67680  0.27410  Biso   1.000  H
  H35      1.0000 0.77340  0.82320  0.77410  Biso   1.000  H
  H36      1.0000 0.22660  0.32320  0.72590  Biso   1.000  H
  C41      1.0000 0.19670  0.83460  0.38158  Biso   1.000  C
  C42      1.0000 0.80330  0.33460  0.11842  Biso   1.000  C
  C43      1.0000 0.80330  0.16540  0.61842  Biso   1.000  C
  C44      1.0000 0.19670  0.66540  0.88158  Biso   1.000  C
  H37      1.0000 0.19190  0.92520  0.39510  Biso   1.000  H
  H38      1.0000 0.80810  0.42520  0.10490  Biso   1.000  H
  H39      1.0000 0.80810  0.07480  0.60490  Biso   1.000  H
  H40      1.0000 0.19190  0.57480  0.89510  Biso   1.000  H
  C45      1.0000 0.35790  0.61430  0.42466  Biso   1.000  C
  C46      1.0000 0.64210  0.11430  0.07534  Biso   1.000  C
  C47      1.0000 0.64210  0.38570  0.57534  Biso   1.000  C
  C48      1.0000 0.35790  0.88570  0.92466  Biso   1.000  C
  H41      1.0000 0.31970  0.56350  0.38800  Biso   1.000  H
  H42      1.0000 0.68030  0.06350  0.11200  Biso   1.000  H
  H43      1.0000 0.68030  0.43650  0.61200  Biso   1.000  H
  H44      1.0000 0.31970  0.93650  0.88800  Biso   1.000  H
  H45      1.0000 0.46190  0.57010  0.44840  Biso   1.000  H
  H46      1.0000 0.53810  0.07010  0.05160  Biso   1.000  H
  H47      1.0000 0.53810  0.42990  0.55160  Biso   1.000  H
  H48      1.0000 0.46190  0.92990  0.94840  Biso   1.000  H
  C49      1.0000 0.19520  0.62980  0.46237  Biso   1.000  C
  C50      1.0000 0.80480  0.12980  0.03763  Biso   1.000  C
  C51      1.0000 0.80480  0.37020  0.53763  Biso   1.000  C
  C52      1.0000 0.19520  0.87020  0.96237  Biso   1.000  C
  H49      1.0000 0.23920  0.66410  0.50280  Biso   1.000  H
  H50      1.0000 0.76080  0.16410  0.99720  Biso   1.000  H
  H51      1.0000 0.76080  0.33590  0.49720  Biso   1.000  H
  H52      1.0000 0.23920  0.83590  0.00280  Biso   1.000  H
  H53      1.0000 0.13520  0.54650  0.46760  Biso   1.000  H
  H54      1.0000 0.86480  0.04650  0.03240  Biso   1.000  H
  H55      1.0000 0.86480  0.45350  0.53240  Biso   1.000  H
  H56      1.0000 0.13520  0.95350  0.96760  Biso   1.000  H
