data_image0
_cell_length_a       13.6143
_cell_length_b       9.3067
_cell_length_c       13.2101
_cell_angle_alpha    90
_cell_angle_beta     92.369
_cell_angle_gamma    90

_symmetry_space_group_name_H-M    "P 1"
_symmetry_int_tables_number       1

loop_
  _symmetry_equiv_pos_as_xyz
  'x, y, z'

loop_
  _atom_site_label
  _atom_site_occupancy
  _atom_site_fract_x
  _atom_site_fract_y
  _atom_site_fract_z
  _atom_site_thermal_displace_type
  _atom_site_B_iso_or_equiv
  _atom_site_type_symbol
  Br1      1.0000 0.58637  0.80466  0.43290  Biso   1.000  Br
  Br2      1.0000 0.41363  0.80466  0.06710  Biso   1.000  Br
  Br3      1.0000 0.08637  0.30466  0.43290  Biso   1.000  Br
  Br4      1.0000 0.91363  0.30466  0.06710  Biso   1.000  Br
  Br5      1.0000 0.41363  0.19534  0.56710  Biso   1.000  Br
  Br6      1.0000 0.58637  0.19534  0.93290  Biso   1.000  Br
  Br7      1.0000 0.91363  0.69534  0.56710  Biso   1.000  Br
  Br8      1.0000 0.08637  0.69534  0.93290  Biso   1.000  Br
  Cu1      1.0000 0.56339  0.88417  0.68710  Biso   1.000  Cu
  Cu2      1.0000 0.43661  0.88417  0.81290  Biso   1.000  Cu
  Cu3      1.0000 0.06339  0.38417  0.68710  Biso   1.000  Cu
  Cu4      1.0000 0.93661  0.38417  0.81290  Biso   1.000  Cu
  Cu5      1.0000 0.43661  0.11583  0.31290  Biso   1.000  Cu
  Cu6      1.0000 0.56339  0.11583  0.18710  Biso   1.000  Cu
  Cu7      1.0000 0.93661  0.61583  0.31290  Biso   1.000  Cu
  Cu8      1.0000 0.06339  0.61583  0.18710  Biso   1.000  Cu
  Fe1      1.0000 0.75000  0.25000  0.50000  Biso   1.000  Fe
  Fe2      1.0000 0.25000  0.25000  0.00000  Biso   1.000  Fe
  Fe3      1.0000 0.25000  0.75000  0.50000  Biso   1.000  Fe
  Fe4      1.0000 0.75000  0.75000  0.00000  Biso   1.000  Fe
  N1       1.0000 0.64165  0.20820  0.40313  Biso   1.000  N
  N2       1.0000 0.35835  0.20820  0.09687  Biso   1.000  N
  N3       1.0000 0.14165  0.70820  0.40313  Biso   1.000  N
  N4       1.0000 0.85835  0.70820  0.09687  Biso   1.000  N
  N5       1.0000 0.35835  0.79180  0.59687  Biso   1.000  N
  N6       1.0000 0.64165  0.79180  0.90313  Biso   1.000  N
  N7       1.0000 0.85835  0.29180  0.59687  Biso   1.000  N
  N8       1.0000 0.14165  0.29180  0.90313  Biso   1.000  N
  N9       1.0000 0.61897  0.68780  0.62526  Biso   1.000  N
  N10      1.0000 0.38103  0.68780  0.87474  Biso   1.000  N
  N11      1.0000 0.11897  0.18780  0.62526  Biso   1.000  N
  N12      1.0000 0.88103  0.18780  0.87474  Biso   1.000  N
  N13      1.0000 0.38103  0.31220  0.37474  Biso   1.000  N
  N14      1.0000 0.61897  0.31220  0.12526  Biso   1.000  N
  N15      1.0000 0.88103  0.81220  0.37474  Biso   1.000  N
  N16      1.0000 0.11897  0.81220  0.12526  Biso   1.000  N
  N17      1.0000 0.68414  0.42330  0.55166  Biso   1.000  N
  N18      1.0000 0.31586  0.42330  0.94834  Biso   1.000  N
  N19      1.0000 0.18414  0.92330  0.55166  Biso   1.000  N
  N20      1.0000 0.81586  0.92330  0.94834  Biso   1.000  N
  N21      1.0000 0.31586  0.57670  0.44834  Biso   1.000  N
  N22      1.0000 0.68414  0.57670  0.05166  Biso   1.000  N
  N23      1.0000 0.81586  0.07670  0.44834  Biso   1.000  N
  N24      1.0000 0.18414  0.07670  0.05166  Biso   1.000  N
  N25      1.0000 0.68406  0.12880  0.59751  Biso   1.000  N
  N26      1.0000 0.31594  0.12880  0.90249  Biso   1.000  N
  N27      1.0000 0.18406  0.62880  0.59751  Biso   1.000  N
  N28      1.0000 0.81594  0.62880  0.90249  Biso   1.000  N
  N29      1.0000 0.31594  0.87120  0.40249  Biso   1.000  N
  N30      1.0000 0.68406  0.87120  0.09751  Biso   1.000  N
  N31      1.0000 0.81594  0.37120  0.40249  Biso   1.000  N
  N32      1.0000 0.18406  0.37120  0.09751  Biso   1.000  N
  C1       1.0000 0.67910  0.44820  0.65170  Biso   1.000  C
  C2       1.0000 0.32090  0.44820  0.84830  Biso   1.000  C
  C3       1.0000 0.17910  0.94820  0.65170  Biso   1.000  C
  C4       1.0000 0.82090  0.94820  0.84830  Biso   1.000  C
  C5       1.0000 0.32090  0.55180  0.34830  Biso   1.000  C
  C6       1.0000 0.67910  0.55180  0.15170  Biso   1.000  C
  C7       1.0000 0.82090  0.05180  0.34830  Biso   1.000  C
  C8       1.0000 0.17910  0.05180  0.15170  Biso   1.000  C
  H1       1.0000 0.69728  0.37618  0.69755  Biso   1.000  H
  H2       1.0000 0.30272  0.37618  0.80245  Biso   1.000  H
  H3       1.0000 0.19728  0.87618  0.69755  Biso   1.000  H
  H4       1.0000 0.80272  0.87618  0.80245  Biso   1.000  H
  H5       1.0000 0.30272  0.62382  0.30245  Biso   1.000  H
  H6       1.0000 0.69728  0.62382  0.19755  Biso   1.000  H
  H7       1.0000 0.80272  0.12382  0.30245  Biso   1.000  H
  H8       1.0000 0.19728  0.12382  0.19755  Biso   1.000  H
  C9       1.0000 0.58070  0.16430  0.34840  Biso   1.000  C
  C10      1.0000 0.41930  0.16430  0.15160  Biso   1.000  C
  C11      1.0000 0.08070  0.66430  0.34840  Biso   1.000  C
  C12      1.0000 0.91930  0.66430  0.15160  Biso   1.000  C
  C13      1.0000 0.41930  0.83570  0.65160  Biso   1.000  C
  C14      1.0000 0.58070  0.83570  0.84840  Biso   1.000  C
  C15      1.0000 0.91930  0.33570  0.65160  Biso   1.000  C
  C16      1.0000 0.08070  0.33570  0.84840  Biso   1.000  C
  C17      1.0000 0.65410  0.52920  0.48900  Biso   1.000  C
  C18      1.0000 0.34590  0.52920  0.01100  Biso   1.000  C
  C19      1.0000 0.15410  0.02920  0.48900  Biso   1.000  C
  C20      1.0000 0.84590  0.02920  0.01100  Biso   1.000  C
  C21      1.0000 0.34590  0.47080  0.51100  Biso   1.000  C
  C22      1.0000 0.65410  0.47080  0.98900  Biso   1.000  C
  C23      1.0000 0.84590  0.97080  0.51100  Biso   1.000  C
  C24      1.0000 0.15410  0.97080  0.98900  Biso   1.000  C
  H9       1.0000 0.65457  0.51510  0.41932  Biso   1.000  H
  H10      1.0000 0.34543  0.51510  0.08068  Biso   1.000  H
  H11      1.0000 0.15457  0.01510  0.41932  Biso   1.000  H
  H12      1.0000 0.84543  0.01510  0.08068  Biso   1.000  H
  H13      1.0000 0.34543  0.48490  0.58068  Biso   1.000  H
  H14      1.0000 0.65457  0.48490  0.91932  Biso   1.000  H
  H15      1.0000 0.84543  0.98490  0.58068  Biso   1.000  H
  H16      1.0000 0.15457  0.98490  0.91932  Biso   1.000  H
  C25      1.0000 0.64740  0.57850  0.68730  Biso   1.000  C
  C26      1.0000 0.35260  0.57850  0.81270  Biso   1.000  C
  C27      1.0000 0.14740  0.07850  0.68730  Biso   1.000  C
  C28      1.0000 0.85260  0.07850  0.81270  Biso   1.000  C
  C29      1.0000 0.35260  0.42150  0.31270  Biso   1.000  C
  C30      1.0000 0.64740  0.42150  0.18730  Biso   1.000  C
  C31      1.0000 0.85260  0.92150  0.31270  Biso   1.000  C
  C32      1.0000 0.14740  0.92150  0.18730  Biso   1.000  C
  H17      1.0000 0.64548  0.59196  0.75699  Biso   1.000  H
  H18      1.0000 0.35452  0.59196  0.74301  Biso   1.000  H
  H19      1.0000 0.14548  0.09196  0.75699  Biso   1.000  H
  H20      1.0000 0.85452  0.09196  0.74301  Biso   1.000  H
  H21      1.0000 0.35452  0.40804  0.24301  Biso   1.000  H
  H22      1.0000 0.64548  0.40804  0.25699  Biso   1.000  H
  H23      1.0000 0.85452  0.90804  0.24301  Biso   1.000  H
  H24      1.0000 0.14548  0.90804  0.25699  Biso   1.000  H
  C33      1.0000 0.63930  0.04310  0.63961  Biso   1.000  C
  C34      1.0000 0.36070  0.04310  0.86039  Biso   1.000  C
  C35      1.0000 0.13930  0.54310  0.63961  Biso   1.000  C
  C36      1.0000 0.86070  0.54310  0.86039  Biso   1.000  C
  C37      1.0000 0.36070  0.95690  0.36039  Biso   1.000  C
  C38      1.0000 0.63930  0.95690  0.13961  Biso   1.000  C
  C39      1.0000 0.86070  0.45690  0.36039  Biso   1.000  C
  C40      1.0000 0.13930  0.45690  0.13961  Biso   1.000  C
  C41      1.0000 0.62240  0.65940  0.52650  Biso   1.000  C
  C42      1.0000 0.37760  0.65940  0.97350  Biso   1.000  C
  C43      1.0000 0.12240  0.15940  0.52650  Biso   1.000  C
  C44      1.0000 0.87760  0.15940  0.97350  Biso   1.000  C
  C45      1.0000 0.37760  0.34060  0.47350  Biso   1.000  C
  C46      1.0000 0.62240  0.34060  0.02650  Biso   1.000  C
  C47      1.0000 0.87760  0.84060  0.47350  Biso   1.000  C
  C48      1.0000 0.12240  0.84060  0.02650  Biso   1.000  C
