data_image0
_cell_length_a       11.639
_cell_length_b       29.7697
_cell_length_c       4.1222
_cell_angle_alpha    90
_cell_angle_beta     90
_cell_angle_gamma    90

_symmetry_space_group_name_H-M    "P 1"
_symmetry_int_tables_number       1

loop_
  _symmetry_equiv_pos_as_xyz
  'x, y, z'

loop_
  _atom_site_label
  _atom_site_occupancy
  _atom_site_fract_x
  _atom_site_fract_y
  _atom_site_fract_z
  _atom_site_thermal_displace_type
  _atom_site_B_iso_or_equiv
  _atom_site_type_symbol
  I1       1.0000 0.57726  0.25000  0.26008  Biso   1.000  I
  I2       1.0000 0.92274  0.75000  0.76008  Biso   1.000  I
  I3       1.0000 0.42274  0.75000  0.73992  Biso   1.000  I
  I4       1.0000 0.07726  0.25000  0.23992  Biso   1.000  I
  Cu1      1.0000 0.33225  0.25000  0.62250  Biso   1.000  Cu
  Cu2      1.0000 0.16775  0.75000  0.12250  Biso   1.000  Cu
  Cu3      1.0000 0.66775  0.75000  0.37750  Biso   1.000  Cu
  Cu4      1.0000 0.83225  0.25000  0.87750  Biso   1.000  Cu
  Cu5      1.0000 0.57819  0.31280  0.76689  Biso   1.000  Cu
  Cu6      1.0000 0.92181  0.68720  0.26689  Biso   1.000  Cu
  Cu7      1.0000 0.42181  0.81280  0.23311  Biso   1.000  Cu
  Cu8      1.0000 0.07819  0.18720  0.73311  Biso   1.000  Cu
  Cu9      1.0000 0.42181  0.68720  0.23311  Biso   1.000  Cu
  Cu10     1.0000 0.07819  0.31280  0.73311  Biso   1.000  Cu
  Cu11     1.0000 0.57819  0.18720  0.76689  Biso   1.000  Cu
  Cu12     1.0000 0.92181  0.81280  0.26689  Biso   1.000  Cu
  C1       1.0000 0.38600  0.37671  0.89500  Biso   1.000  C
  C2       1.0000 0.11400  0.62329  0.39500  Biso   1.000  C
  C3       1.0000 0.61400  0.87671  0.10500  Biso   1.000  C
  C4       1.0000 0.88600  0.12329  0.60500  Biso   1.000  C
  C5       1.0000 0.61400  0.62329  0.10500  Biso   1.000  C
  C6       1.0000 0.88600  0.37671  0.60500  Biso   1.000  C
  C7       1.0000 0.38600  0.12329  0.89500  Biso   1.000  C
  C8       1.0000 0.11400  0.87671  0.39500  Biso   1.000  C
  C9       1.0000 0.26670  0.37648  0.88560  Biso   1.000  C
  C10      1.0000 0.23330  0.62352  0.38560  Biso   1.000  C
  C11      1.0000 0.73330  0.87648  0.11440  Biso   1.000  C
  C12      1.0000 0.76670  0.12352  0.61440  Biso   1.000  C
  C13      1.0000 0.73330  0.62352  0.11440  Biso   1.000  C
  C14      1.0000 0.76670  0.37648  0.61440  Biso   1.000  C
  C15      1.0000 0.26670  0.12352  0.88560  Biso   1.000  C
  C16      1.0000 0.23330  0.87648  0.38560  Biso   1.000  C
  N1       1.0000 0.32790  0.31299  0.70500  Biso   1.000  N
  N2       1.0000 0.17210  0.68701  0.20500  Biso   1.000  N
  N3       1.0000 0.67210  0.81299  0.29500  Biso   1.000  N
  N4       1.0000 0.82790  0.18701  0.79500  Biso   1.000  N
  N5       1.0000 0.67210  0.68701  0.29500  Biso   1.000  N
  N6       1.0000 0.82790  0.31299  0.79500  Biso   1.000  N
  N7       1.0000 0.32790  0.18701  0.70500  Biso   1.000  N
  N8       1.0000 0.17210  0.81299  0.20500  Biso   1.000  N
  C17      1.0000 0.38130  0.45017  0.12170  Biso   1.000  C
  C18      1.0000 0.11870  0.54983  0.62170  Biso   1.000  C
  C19      1.0000 0.61870  0.95017  0.87830  Biso   1.000  C
  C20      1.0000 0.88130  0.04983  0.37830  Biso   1.000  C
  C21      1.0000 0.61870  0.54983  0.87830  Biso   1.000  C
  C22      1.0000 0.88130  0.45017  0.37830  Biso   1.000  C
  C23      1.0000 0.38130  0.04983  0.12170  Biso   1.000  C
  C24      1.0000 0.11870  0.95017  0.62170  Biso   1.000  C
  H1       1.0000 0.41860  0.47540  0.20260  Biso   1.000  H
  H2       1.0000 0.08140  0.52460  0.70260  Biso   1.000  H
  H3       1.0000 0.58140  0.97540  0.79740  Biso   1.000  H
  H4       1.0000 0.91860  0.02460  0.29740  Biso   1.000  H
  H5       1.0000 0.58140  0.52460  0.79740  Biso   1.000  H
  H6       1.0000 0.91860  0.47540  0.29740  Biso   1.000  H
  H7       1.0000 0.41860  0.02460  0.20260  Biso   1.000  H
  H8       1.0000 0.08140  0.97540  0.70260  Biso   1.000  H
  N9       1.0000 0.42300  0.33677  0.78050  Biso   1.000  N
  N10      1.0000 0.07700  0.66323  0.28050  Biso   1.000  N
  N11      1.0000 0.57700  0.83677  0.21950  Biso   1.000  N
  N12      1.0000 0.92300  0.16323  0.71950  Biso   1.000  N
  N13      1.0000 0.57700  0.66323  0.21950  Biso   1.000  N
  N14      1.0000 0.92300  0.33677  0.71950  Biso   1.000  N
  N15      1.0000 0.42300  0.16323  0.78050  Biso   1.000  N
  N16      1.0000 0.07700  0.83677  0.28050  Biso   1.000  N
  C25      1.0000 0.20150  0.41317  0.99350  Biso   1.000  C
  C26      1.0000 0.29850  0.58683  0.49350  Biso   1.000  C
  C27      1.0000 0.79850  0.91317  0.00650  Biso   1.000  C
  C28      1.0000 0.70150  0.08683  0.50650  Biso   1.000  C
  C29      1.0000 0.79850  0.58683  0.00650  Biso   1.000  C
  C30      1.0000 0.70150  0.41317  0.50650  Biso   1.000  C
  C31      1.0000 0.20150  0.08683  0.99350  Biso   1.000  C
  C32      1.0000 0.29850  0.91317  0.49350  Biso   1.000  C
  H9       1.0000 0.12170  0.41280  0.98450  Biso   1.000  H
  H10      1.0000 0.37830  0.58720  0.48450  Biso   1.000  H
  H11      1.0000 0.87830  0.91280  0.01550  Biso   1.000  H
  H12      1.0000 0.62170  0.08720  0.51550  Biso   1.000  H
  H13      1.0000 0.87830  0.58720  0.01550  Biso   1.000  H
  H14      1.0000 0.62170  0.41280  0.51550  Biso   1.000  H
  H15      1.0000 0.12170  0.08720  0.98450  Biso   1.000  H
  H16      1.0000 0.37830  0.91280  0.48450  Biso   1.000  H
  C33      1.0000 0.25980  0.44928  0.11210  Biso   1.000  C
  C34      1.0000 0.24020  0.55072  0.61210  Biso   1.000  C
  C35      1.0000 0.74020  0.94928  0.88790  Biso   1.000  C
  C36      1.0000 0.75980  0.05072  0.38790  Biso   1.000  C
  C37      1.0000 0.74020  0.55072  0.88790  Biso   1.000  C
  C38      1.0000 0.75980  0.44928  0.38790  Biso   1.000  C
  C39      1.0000 0.25980  0.05072  0.11210  Biso   1.000  C
  C40      1.0000 0.24020  0.94928  0.61210  Biso   1.000  C
  H17      1.0000 0.21880  0.47390  0.18840  Biso   1.000  H
  H18      1.0000 0.28120  0.52610  0.68840  Biso   1.000  H
  H19      1.0000 0.78120  0.97390  0.81160  Biso   1.000  H
  H20      1.0000 0.71880  0.02610  0.31160  Biso   1.000  H
  H21      1.0000 0.78120  0.52610  0.81160  Biso   1.000  H
  H22      1.0000 0.71880  0.47390  0.31160  Biso   1.000  H
  H23      1.0000 0.21880  0.02610  0.18840  Biso   1.000  H
  H24      1.0000 0.28120  0.97390  0.68840  Biso   1.000  H
  C41      1.0000 0.44490  0.41445  0.01390  Biso   1.000  C
  C42      1.0000 0.05510  0.58555  0.51390  Biso   1.000  C
  C43      1.0000 0.55510  0.91445  0.98610  Biso   1.000  C
  C44      1.0000 0.94490  0.08555  0.48610  Biso   1.000  C
  C45      1.0000 0.55510  0.58555  0.98610  Biso   1.000  C
  C46      1.0000 0.94490  0.41445  0.48610  Biso   1.000  C
  C47      1.0000 0.44490  0.08555  0.01390  Biso   1.000  C
  C48      1.0000 0.05510  0.91445  0.51390  Biso   1.000  C
  H25      1.0000 0.52470  0.41520  0.01930  Biso   1.000  H
  H26      1.0000 0.97530  0.58480  0.51930  Biso   1.000  H
  H27      1.0000 0.47530  0.91520  0.98070  Biso   1.000  H
  H28      1.0000 0.02470  0.08480  0.48070  Biso   1.000  H
  H29      1.0000 0.47530  0.58480  0.98070  Biso   1.000  H
  H30      1.0000 0.02470  0.41520  0.48070  Biso   1.000  H
  H31      1.0000 0.52470  0.08480  0.01930  Biso   1.000  H
  H32      1.0000 0.97530  0.91520  0.51930  Biso   1.000  H
  N17      1.0000 0.23380  0.33610  0.76510  Biso   1.000  N
  N18      1.0000 0.26620  0.66390  0.26510  Biso   1.000  N
  N19      1.0000 0.76620  0.83610  0.23490  Biso   1.000  N
  N20      1.0000 0.73380  0.16390  0.73490  Biso   1.000  N
  N21      1.0000 0.76620  0.66390  0.23490  Biso   1.000  N
  N22      1.0000 0.73380  0.33610  0.73490  Biso   1.000  N
  N23      1.0000 0.23380  0.16390  0.76510  Biso   1.000  N
  N24      1.0000 0.26620  0.83610  0.26510  Biso   1.000  N
