data_image0
_cell_length_a       10.6931
_cell_length_b       14.4122
_cell_length_c       17.5869
_cell_angle_alpha    90
_cell_angle_beta     102.795
_cell_angle_gamma    90

_symmetry_space_group_name_H-M    "P 1"
_symmetry_int_tables_number       1

loop_
  _symmetry_equiv_pos_as_xyz
  'x, y, z'

loop_
  _atom_site_label
  _atom_site_occupancy
  _atom_site_fract_x
  _atom_site_fract_y
  _atom_site_fract_z
  _atom_site_thermal_displace_type
  _atom_site_B_iso_or_equiv
  _atom_site_type_symbol
  C1       1.0000 0.39200  0.54500  0.34390  Biso   1.000  C
  C2       1.0000 0.60800  0.04500  0.15610  Biso   1.000  C
  C3       1.0000 0.60800  0.45500  0.65610  Biso   1.000  C
  C4       1.0000 0.39200  0.95500  0.84390  Biso   1.000  C
  H1       1.0000 0.39430  0.53050  0.29030  Biso   1.000  H
  H2       1.0000 0.60570  0.03050  0.20970  Biso   1.000  H
  H3       1.0000 0.60570  0.46950  0.70970  Biso   1.000  H
  H4       1.0000 0.39430  0.96950  0.79030  Biso   1.000  H
  H5       1.0000 0.30390  0.55440  0.34790  Biso   1.000  H
  H6       1.0000 0.69610  0.05440  0.15210  Biso   1.000  H
  H7       1.0000 0.69610  0.44560  0.65210  Biso   1.000  H
  H8       1.0000 0.30390  0.94560  0.84790  Biso   1.000  H
  I1       1.0000 0.85806  0.25419  0.10501  Biso   1.000  I
  I2       1.0000 0.14194  0.75419  0.39499  Biso   1.000  I
  I3       1.0000 0.14194  0.74581  0.89499  Biso   1.000  I
  I4       1.0000 0.85806  0.24581  0.60501  Biso   1.000  I
  I5       1.0000 0.02753  0.49875  0.25368  Biso   1.000  I
  I6       1.0000 0.97247  0.99875  0.24632  Biso   1.000  I
  I7       1.0000 0.97247  0.50125  0.74632  Biso   1.000  I
  I8       1.0000 0.02753  0.00125  0.75368  Biso   1.000  I
  I9       1.0000 0.84987  0.25360  0.35634  Biso   1.000  I
  I10      1.0000 0.15013  0.75360  0.14366  Biso   1.000  I
  I11      1.0000 0.15013  0.74640  0.64366  Biso   1.000  I
  I12      1.0000 0.84987  0.24640  0.85634  Biso   1.000  I
  I13      1.0000 0.21598  0.25419  0.28131  Biso   1.000  I
  I14      1.0000 0.78402  0.75419  0.21869  Biso   1.000  I
  I15      1.0000 0.78402  0.74581  0.71869  Biso   1.000  I
  I16      1.0000 0.21598  0.24581  0.78131  Biso   1.000  I
  I17      1.0000 0.60765  0.45035  0.19456  Biso   1.000  I
  I18      1.0000 0.39235  0.95035  0.30544  Biso   1.000  I
  I19      1.0000 0.39235  0.54965  0.80544  Biso   1.000  I
  I20      1.0000 0.60765  0.04965  0.69456  Biso   1.000  I
  Cu1      1.0000 0.96737  0.30448  0.24745  Biso   1.000  Cu
  Cu2      1.0000 0.03263  0.80448  0.25255  Biso   1.000  Cu
  Cu3      1.0000 0.03263  0.69552  0.75255  Biso   1.000  Cu
  Cu4      1.0000 0.96737  0.19552  0.74745  Biso   1.000  Cu
  Cu5      1.0000 0.06020  0.15157  0.18310  Biso   1.000  Cu
  Cu6      1.0000 0.93980  0.65157  0.31690  Biso   1.000  Cu
  Cu7      1.0000 0.93980  0.84843  0.81690  Biso   1.000  Cu
  Cu8      1.0000 0.06020  0.34843  0.68310  Biso   1.000  Cu
  Cu9      1.0000 0.81751  0.42923  0.14666  Biso   1.000  Cu
  Cu10     1.0000 0.18249  0.92923  0.35334  Biso   1.000  Cu
  Cu11     1.0000 0.18249  0.57077  0.85334  Biso   1.000  Cu
  Cu12     1.0000 0.81751  0.07077  0.64666  Biso   1.000  Cu
  Cu13     1.0000 0.81189  0.42912  0.30341  Biso   1.000  Cu
  Cu14     1.0000 0.18811  0.92912  0.19659  Biso   1.000  Cu
  Cu15     1.0000 0.18811  0.57088  0.69659  Biso   1.000  Cu
  Cu16     1.0000 0.81189  0.07088  0.80341  Biso   1.000  Cu
  Cu17     1.0000 0.94310  0.65237  0.16567  Biso   1.000  Cu
  Cu18     1.0000 0.05690  0.15237  0.33433  Biso   1.000  Cu
  Cu19     1.0000 0.05690  0.34763  0.83433  Biso   1.000  Cu
  Cu20     1.0000 0.94310  0.84763  0.66567  Biso   1.000  Cu
  Cu21     1.0000 0.03870  0.24925  0.00549  Biso   1.000  Cu
  Cu22     1.0000 0.96130  0.74925  0.49451  Biso   1.000  Cu
  Cu23     1.0000 0.96130  0.75075  0.99451  Biso   1.000  Cu
  Cu24     1.0000 0.03870  0.25075  0.50549  Biso   1.000  Cu
  C5       1.0000 0.85540  0.56220  0.94050  Biso   1.000  C
  C6       1.0000 0.14460  0.06220  0.55950  Biso   1.000  C
  C7       1.0000 0.14460  0.43780  0.05950  Biso   1.000  C
  C8       1.0000 0.85540  0.93780  0.44050  Biso   1.000  C
  H9       1.0000 0.85400  0.56780  0.88760  Biso   1.000  H
  H10      1.0000 0.14600  0.06780  0.61240  Biso   1.000  H
  H11      1.0000 0.14600  0.43220  0.11240  Biso   1.000  H
  H12      1.0000 0.85400  0.93220  0.38760  Biso   1.000  H
  N1       1.0000 0.83470  0.50540  0.05350  Biso   1.000  N
  N2       1.0000 0.16530  0.00540  0.44650  Biso   1.000  N
  N3       1.0000 0.16530  0.49460  0.94650  Biso   1.000  N
  N4       1.0000 0.83470  0.99460  0.55350  Biso   1.000  N
  N5       1.0000 0.88410  0.58980  0.06420  Biso   1.000  N
  N6       1.0000 0.11590  0.08980  0.43580  Biso   1.000  N
  N7       1.0000 0.11590  0.41020  0.93580  Biso   1.000  N
  N8       1.0000 0.88410  0.91020  0.56420  Biso   1.000  N
  N9       1.0000 0.89500  0.62750  0.99640  Biso   1.000  N
  N10      1.0000 0.10500  0.12750  0.50360  Biso   1.000  N
  N11      1.0000 0.10500  0.37250  0.00360  Biso   1.000  N
  N12      1.0000 0.89500  0.87250  0.49640  Biso   1.000  N
  N13      1.0000 0.17110  0.00500  0.09860  Biso   1.000  N
  N14      1.0000 0.82890  0.50500  0.40140  Biso   1.000  N
  N15      1.0000 0.82890  0.99500  0.90140  Biso   1.000  N
  N16      1.0000 0.17110  0.49500  0.59860  Biso   1.000  N
  N17      1.0000 0.10530  0.12560  0.02660  Biso   1.000  N
  N18      1.0000 0.89470  0.62560  0.47340  Biso   1.000  N
  N19      1.0000 0.89470  0.87440  0.97340  Biso   1.000  N
  N20      1.0000 0.10530  0.37440  0.52660  Biso   1.000  N
  N21      1.0000 0.12280  0.09210  0.09720  Biso   1.000  N
  N22      1.0000 0.87720  0.59210  0.40280  Biso   1.000  N
  N23      1.0000 0.87720  0.90790  0.90280  Biso   1.000  N
  N24      1.0000 0.12280  0.40790  0.59720  Biso   1.000  N
  C9       1.0000 0.18760  0.98620  0.02800  Biso   1.000  C
  C10      1.0000 0.81240  0.48620  0.47200  Biso   1.000  C
  C11      1.0000 0.81240  0.01380  0.97200  Biso   1.000  C
  C12      1.0000 0.18760  0.51380  0.52800  Biso   1.000  C
  H13      1.0000 0.22060  0.93140  0.01250  Biso   1.000  H
  H14      1.0000 0.77940  0.43140  0.48750  Biso   1.000  H
  H15      1.0000 0.77940  0.06860  0.98750  Biso   1.000  H
  H16      1.0000 0.22060  0.56860  0.51250  Biso   1.000  H
  C13      1.0000 0.14810  0.06050  0.98230  Biso   1.000  C
  C14      1.0000 0.85190  0.56050  0.51770  Biso   1.000  C
  C15      1.0000 0.85190  0.93950  0.01770  Biso   1.000  C
  C16      1.0000 0.14810  0.43950  0.48230  Biso   1.000  C
  H17      1.0000 0.14970  0.06620  0.92980  Biso   1.000  H
  H18      1.0000 0.85030  0.56620  0.57020  Biso   1.000  H
  H19      1.0000 0.85030  0.93380  0.07020  Biso   1.000  H
  H20      1.0000 0.14970  0.43380  0.42980  Biso   1.000  H
  C17      1.0000 0.81770  0.48630  0.97690  Biso   1.000  C
  C18      1.0000 0.18230  0.98630  0.52310  Biso   1.000  C
  C19      1.0000 0.18230  0.51370  0.02310  Biso   1.000  C
  C20      1.0000 0.81770  0.01370  0.47690  Biso   1.000  C
  H21      1.0000 0.78580  0.43110  0.95290  Biso   1.000  H
  H22      1.0000 0.21420  0.93110  0.54710  Biso   1.000  H
  H23      1.0000 0.21420  0.56890  0.04710  Biso   1.000  H
  H24      1.0000 0.78580  0.06890  0.45290  Biso   1.000  H
  N25      1.0000 0.55210  0.73010  0.44220  Biso   1.000  N
  N26      1.0000 0.44790  0.23010  0.05780  Biso   1.000  N
  N27      1.0000 0.44790  0.26990  0.55780  Biso   1.000  N
  N28      1.0000 0.55210  0.76990  0.94220  Biso   1.000  N
  N29      1.0000 0.47240  0.62310  0.37320  Biso   1.000  N
  N30      1.0000 0.52760  0.12310  0.12680  Biso   1.000  N
  N31      1.0000 0.52760  0.37690  0.62680  Biso   1.000  N
  N32      1.0000 0.47240  0.87690  0.87320  Biso   1.000  N
  N33      1.0000 0.47030  0.66030  0.44130  Biso   1.000  N
  N34      1.0000 0.52970  0.16030  0.05870  Biso   1.000  N
  N35      1.0000 0.52970  0.33970  0.55870  Biso   1.000  N
  N36      1.0000 0.47030  0.83970  0.94130  Biso   1.000  N
  C21      1.0000 0.57800  0.78800  0.51070  Biso   1.000  C
  C22      1.0000 0.42200  0.28800  0.98930  Biso   1.000  C
  C23      1.0000 0.42200  0.21200  0.48930  Biso   1.000  C
  C24      1.0000 0.57800  0.71200  0.01070  Biso   1.000  C
  H25      1.0000 0.60950  0.84710  0.49580  Biso   1.000  H
  H26      1.0000 0.39050  0.34710  0.00420  Biso   1.000  H
  H27      1.0000 0.39050  0.15290  0.50420  Biso   1.000  H
  H28      1.0000 0.60950  0.65290  0.99580  Biso   1.000  H
  H29      1.0000 0.64830  0.75970  0.54790  Biso   1.000  H
  H30      1.0000 0.35170  0.25970  0.95210  Biso   1.000  H
  H31      1.0000 0.35170  0.24030  0.45210  Biso   1.000  H
  H32      1.0000 0.64830  0.74030  0.04790  Biso   1.000  H
  C25      1.0000 0.55300  0.66280  0.33730  Biso   1.000  C
  C26      1.0000 0.44700  0.16280  0.16270  Biso   1.000  C
  C27      1.0000 0.44700  0.33720  0.66270  Biso   1.000  C
  C28      1.0000 0.55300  0.83720  0.83730  Biso   1.000  C
  H33      1.0000 0.56950  0.64560  0.28940  Biso   1.000  H
  H34      1.0000 0.43050  0.14560  0.21060  Biso   1.000  H
  H35      1.0000 0.43050  0.35440  0.71060  Biso   1.000  H
  H36      1.0000 0.56950  0.85440  0.78940  Biso   1.000  H
  C29      1.0000 0.60900  0.73430  0.38370  Biso   1.000  C
  C30      1.0000 0.39100  0.23430  0.11630  Biso   1.000  C
  C31      1.0000 0.39100  0.26570  0.61630  Biso   1.000  C
  C32      1.0000 0.60900  0.76570  0.88370  Biso   1.000  C
  H37      1.0000 0.67170  0.77560  0.37560  Biso   1.000  H
  H38      1.0000 0.32830  0.27560  0.12440  Biso   1.000  H
  H39      1.0000 0.32830  0.22440  0.62440  Biso   1.000  H
  H40      1.0000 0.67170  0.72440  0.87560  Biso   1.000  H
  C33      1.0000 0.47400  0.80900  0.55350  Biso   1.000  C
  C34      1.0000 0.52600  0.30900  0.94650  Biso   1.000  C
  C35      1.0000 0.52600  0.19100  0.44650  Biso   1.000  C
  C36      1.0000 0.47400  0.69100  0.05350  Biso   1.000  C
  H41      1.0000 0.40020  0.83370  0.51750  Biso   1.000  H
  H42      1.0000 0.59980  0.33370  0.98250  Biso   1.000  H
  H43      1.0000 0.59980  0.16630  0.48250  Biso   1.000  H
  H44      1.0000 0.40020  0.66630  0.01750  Biso   1.000  H
  H45      1.0000 0.50420  0.85410  0.59370  Biso   1.000  H
  H46      1.0000 0.49580  0.35410  0.90630  Biso   1.000  H
  H47      1.0000 0.49580  0.14590  0.40630  Biso   1.000  H
  H48      1.0000 0.50420  0.64590  0.09370  Biso   1.000  H
  H49      1.0000 0.45000  0.75330  0.57640  Biso   1.000  H
  H50      1.0000 0.55000  0.25330  0.92360  Biso   1.000  H
  H51      1.0000 0.55000  0.24670  0.42360  Biso   1.000  H
  H52      1.0000 0.45000  0.74670  0.07640  Biso   1.000  H
  C37      1.0000 0.45600  0.47200  0.39900  Biso   1.000  C
  C38      1.0000 0.54400  0.97200  0.10100  Biso   1.000  C
  C39      1.0000 0.54400  0.52800  0.60100  Biso   1.000  C
  C40      1.0000 0.45600  0.02800  0.89900  Biso   1.000  C
  H53      1.0000 0.53820  0.45740  0.38760  Biso   1.000  H
  H54      1.0000 0.46180  0.95740  0.11240  Biso   1.000  H
  H55      1.0000 0.46180  0.54260  0.61240  Biso   1.000  H
  H56      1.0000 0.53820  0.04260  0.88760  Biso   1.000  H
  H57      1.0000 0.40400  0.41680  0.39210  Biso   1.000  H
  H58      1.0000 0.59600  0.91680  0.10790  Biso   1.000  H
  H59      1.0000 0.59600  0.58320  0.60790  Biso   1.000  H
  H60      1.0000 0.40400  0.08320  0.89210  Biso   1.000  H
  H61      1.0000 0.46800  0.49360  0.45120  Biso   1.000  H
  H62      1.0000 0.53200  0.99360  0.04880  Biso   1.000  H
  H63      1.0000 0.53200  0.50640  0.54880  Biso   1.000  H
  H64      1.0000 0.46800  0.00640  0.95120  Biso   1.000  H
