data_image0
_cell_length_a       7.9605
_cell_length_b       8.2819
_cell_length_c       8.3378
_cell_angle_alpha    116.322
_cell_angle_beta     99.543
_cell_angle_gamma    104.153

_symmetry_space_group_name_H-M    "P 1"
_symmetry_int_tables_number       1

loop_
  _symmetry_equiv_pos_as_xyz
  'x, y, z'

loop_
  _atom_site_label
  _atom_site_occupancy
  _atom_site_fract_x
  _atom_site_fract_y
  _atom_site_fract_z
  _atom_site_thermal_displace_type
  _atom_site_B_iso_or_equiv
  _atom_site_type_symbol
  I1       1.0000 0.78257  0.70402  0.91968  Biso   1.000  I
  I2       1.0000 0.21743  0.29598  0.08032  Biso   1.000  I
  I3       1.0000 0.64650  0.14671  0.86057  Biso   1.000  I
  I4       1.0000 0.35350  0.85329  0.13943  Biso   1.000  I
  Cu1      1.0000 0.90022  0.99888  0.85580  Biso   1.000  Cu
  Cu2      1.0000 0.09978  0.00112  0.14420  Biso   1.000  Cu
  Cu3      1.0000 0.66101  0.99483  0.07852  Biso   1.000  Cu
  Cu4      1.0000 0.33899  0.00517  0.92148  Biso   1.000  Cu
  N1       1.0000 0.98500  0.85230  0.63250  Biso   1.000  N
  N2       1.0000 0.01500  0.14770  0.36750  Biso   1.000  N
  N3       1.0000 0.15060  0.84560  0.65670  Biso   1.000  N
  N4       1.0000 0.84940  0.15440  0.34330  Biso   1.000  N
  N5       1.0000 0.89050  0.72500  0.45060  Biso   1.000  N
  N6       1.0000 0.10950  0.27500  0.54940  Biso   1.000  N
  C1       1.0000 0.16000  0.71850  0.49200  Biso   1.000  C
  C2       1.0000 0.84000  0.28150  0.50800  Biso   1.000  C
  H1       1.0000 0.26350  0.69070  0.47210  Biso   1.000  H
  H2       1.0000 0.73650  0.30930  0.52790  Biso   1.000  H
  C3       1.0000 0.99750  0.63810  0.36100  Biso   1.000  C
  C4       1.0000 0.00250  0.36190  0.63900  Biso   1.000  C
  H3       1.0000 0.96460  0.54280  0.23520  Biso   1.000  H
  H4       1.0000 0.03540  0.45720  0.76480  Biso   1.000  H
  C5       1.0000 0.69900  0.69180  0.37710  Biso   1.000  C
  C6       1.0000 0.30100  0.30820  0.62290  Biso   1.000  C
  H5       1.0000 0.63520  0.67130  0.45850  Biso   1.000  H
  H6       1.0000 0.36480  0.32870  0.54150  Biso   1.000  H
  H7       1.0000 0.64700  0.57990  0.25290  Biso   1.000  H
  H8       1.0000 0.35300  0.42010  0.74710  Biso   1.000  H
  H9       1.0000 0.68830  0.80220  0.37130  Biso   1.000  H
  H10      1.0000 0.31170  0.19780  0.62870  Biso   1.000  H
