data_image0
_cell_length_a       17.693
_cell_length_b       9.848
_cell_length_c       16.085
_cell_angle_alpha    90
_cell_angle_beta     111.82
_cell_angle_gamma    90

_symmetry_space_group_name_H-M    "P 1"
_symmetry_int_tables_number       1

loop_
  _symmetry_equiv_pos_as_xyz
  'x, y, z'

loop_
  _atom_site_label
  _atom_site_occupancy
  _atom_site_fract_x
  _atom_site_fract_y
  _atom_site_fract_z
  _atom_site_thermal_displace_type
  _atom_site_B_iso_or_equiv
  _atom_site_type_symbol
  Cu1      1.0000 0.77549  0.22316  0.04806  Biso   1.000  Cu
  Cu2      1.0000 0.72451  0.72316  0.45194  Biso   1.000  Cu
  Cu3      1.0000 0.22451  0.77684  0.95194  Biso   1.000  Cu
  Cu4      1.0000 0.27549  0.27684  0.54806  Biso   1.000  Cu
  S1       1.0000 0.52370  0.04425  0.13237  Biso   1.000  S
  S2       1.0000 0.97630  0.54425  0.36763  Biso   1.000  S
  S3       1.0000 0.47630  0.95575  0.86763  Biso   1.000  S
  S4       1.0000 0.02370  0.45575  0.63237  Biso   1.000  S
  S5       1.0000 0.77549  0.03228  0.13884  Biso   1.000  S
  S6       1.0000 0.72451  0.53228  0.36116  Biso   1.000  S
  S7       1.0000 0.22451  0.96772  0.86116  Biso   1.000  S
  S8       1.0000 0.27549  0.46772  0.63884  Biso   1.000  S
  S9       1.0000 0.64481  0.30321  0.96403  Biso   1.000  S
  S10      1.0000 0.85519  0.80321  0.53597  Biso   1.000  S
  S11      1.0000 0.35519  0.69679  0.03597  Biso   1.000  S
  S12      1.0000 0.14481  0.19679  0.46403  Biso   1.000  S
  N1       1.0000 0.63351  0.89550  0.10184  Biso   1.000  N
  N2       1.0000 0.86649  0.39550  0.39816  Biso   1.000  N
  N3       1.0000 0.36649  0.10450  0.89816  Biso   1.000  N
  N4       1.0000 0.13351  0.60450  0.60184  Biso   1.000  N
  N5       1.0000 0.50565  0.79480  0.07124  Biso   1.000  N
  N6       1.0000 0.99435  0.29480  0.42876  Biso   1.000  N
  N7       1.0000 0.49435  0.20520  0.92876  Biso   1.000  N
  N8       1.0000 0.00565  0.70520  0.57124  Biso   1.000  N
  N9       1.0000 0.63142  0.10460  0.15151  Biso   1.000  N
  N10      1.0000 0.86858  0.60460  0.34849  Biso   1.000  N
  N11      1.0000 0.36858  0.89540  0.84849  Biso   1.000  N
  N12      1.0000 0.13142  0.39540  0.65151  Biso   1.000  N
  N13      1.0000 0.42346  0.94120  0.10006  Biso   1.000  N
  N14      1.0000 0.07654  0.44120  0.39994  Biso   1.000  N
  N15      1.0000 0.57654  0.05880  0.89994  Biso   1.000  N
  N16      1.0000 0.92346  0.55880  0.60006  Biso   1.000  N
  C1       1.0000 0.55699  0.89880  0.09916  Biso   1.000  C
  C2       1.0000 0.94301  0.39880  0.40084  Biso   1.000  C
  C3       1.0000 0.44301  0.10120  0.90084  Biso   1.000  C
  C4       1.0000 0.05699  0.60120  0.59916  Biso   1.000  C
  C5       1.0000 0.67740  0.01760  0.13193  Biso   1.000  C
  C6       1.0000 0.82260  0.51760  0.36807  Biso   1.000  C
  C7       1.0000 0.32260  0.98240  0.86807  Biso   1.000  C
  C8       1.0000 0.17740  0.48240  0.63193  Biso   1.000  C
  C9       1.0000 0.42646  0.81960  0.07022  Biso   1.000  C
  C10      1.0000 0.07354  0.31960  0.42978  Biso   1.000  C
  C11      1.0000 0.57354  0.18040  0.92978  Biso   1.000  C
  C12      1.0000 0.92646  0.68040  0.57022  Biso   1.000  C
  C13      1.0000 0.66571  0.77230  0.07470  Biso   1.000  C
  C14      1.0000 0.83429  0.27230  0.42530  Biso   1.000  C
  C15      1.0000 0.33429  0.22770  0.92530  Biso   1.000  C
  C16      1.0000 0.16571  0.72770  0.57470  Biso   1.000  C
  C17      1.0000 0.53124  0.66380  0.04490  Biso   1.000  C
  C18      1.0000 0.96876  0.16380  0.45510  Biso   1.000  C
  C19      1.0000 0.46876  0.33620  0.95510  Biso   1.000  C
  C20      1.0000 0.03124  0.83620  0.54490  Biso   1.000  C
  C21      1.0000 0.62233  0.64930  0.09120  Biso   1.000  C
  C22      1.0000 0.87767  0.14930  0.40880  Biso   1.000  C
  C23      1.0000 0.37767  0.35070  0.90880  Biso   1.000  C
  C24      1.0000 0.12233  0.85070  0.59120  Biso   1.000  C
  C25      1.0000 0.65842  0.23740  0.19170  Biso   1.000  C
  C26      1.0000 0.84158  0.73740  0.30830  Biso   1.000  C
  C27      1.0000 0.34158  0.76260  0.80830  Biso   1.000  C
  C28      1.0000 0.15842  0.26260  0.69170  Biso   1.000  C
  C29      1.0000 0.35308  0.99500  0.11590  Biso   1.000  C
  C30      1.0000 0.14692  0.49500  0.38410  Biso   1.000  C
  C31      1.0000 0.64692  0.00500  0.88410  Biso   1.000  C
  C32      1.0000 0.85308  0.50500  0.61590  Biso   1.000  C
  S13      1.0000 0.06603  0.48490  0.13788  Biso   1.000  S
  S14      1.0000 0.43397  0.98490  0.36212  Biso   1.000  S
  S15      1.0000 0.93397  0.51510  0.86212  Biso   1.000  S
  S16      1.0000 0.56603  0.01510  0.63788  Biso   1.000  S
  S17      1.0000 0.81795  0.42664  0.13463  Biso   1.000  S
  S18      1.0000 0.68205  0.92664  0.36537  Biso   1.000  S
  S19      1.0000 0.18205  0.57336  0.86537  Biso   1.000  S
  S20      1.0000 0.31795  0.07336  0.63463  Biso   1.000  S
  S21      1.0000 0.85864  0.15285  0.97179  Biso   1.000  S
  S22      1.0000 0.64136  0.65285  0.52821  Biso   1.000  S
  S23      1.0000 0.14136  0.84715  0.02821  Biso   1.000  S
  S24      1.0000 0.35864  0.34715  0.47179  Biso   1.000  S
  N17      1.0000 0.92019  0.58980  0.08956  Biso   1.000  N
  N18      1.0000 0.57981  0.08980  0.41044  Biso   1.000  N
  N19      1.0000 0.07981  0.41020  0.91044  Biso   1.000  N
  N20      1.0000 0.42019  0.91020  0.58956  Biso   1.000  N
  N21      1.0000 0.01851  0.71680  0.05663  Biso   1.000  N
  N22      1.0000 0.48149  0.21680  0.44337  Biso   1.000  N
  N23      1.0000 0.98149  0.28320  0.94337  Biso   1.000  N
  N24      1.0000 0.51851  0.78320  0.55663  Biso   1.000  N
  N25      1.0000 0.97683  0.39780  0.15574  Biso   1.000  N
  N26      1.0000 0.52317  0.89780  0.34426  Biso   1.000  N
  N27      1.0000 0.02317  0.60220  0.84426  Biso   1.000  N
  N28      1.0000 0.47683  0.10220  0.65574  Biso   1.000  N
  N29      1.0000 0.13519  0.60540  0.10701  Biso   1.000  N
  N30      1.0000 0.36481  0.10540  0.39299  Biso   1.000  N
  N31      1.0000 0.86481  0.39460  0.89299  Biso   1.000  N
  N32      1.0000 0.63519  0.89460  0.60701  Biso   1.000  N
  C33      1.0000 0.99510  0.60840  0.09050  Biso   1.000  C
  C34      1.0000 0.50490  0.10840  0.40950  Biso   1.000  C
  C35      1.0000 0.00490  0.39160  0.90950  Biso   1.000  C
  C36      1.0000 0.49510  0.89160  0.59050  Biso   1.000  C
  C37      1.0000 0.90898  0.46650  0.12850  Biso   1.000  C
  C38      1.0000 0.59102  0.96650  0.37150  Biso   1.000  C
  C39      1.0000 0.09102  0.53350  0.87150  Biso   1.000  C
  C40      1.0000 0.40898  0.03350  0.62850  Biso   1.000  C
  C41      1.0000 0.10137  0.71600  0.06650  Biso   1.000  C
  C42      1.0000 0.39863  0.21600  0.43350  Biso   1.000  C
  C43      1.0000 0.89863  0.28400  0.93350  Biso   1.000  C
  C44      1.0000 0.60137  0.78400  0.56650  Biso   1.000  C
  C45      1.0000 0.85880  0.69830  0.05720  Biso   1.000  C
  C46      1.0000 0.64120  0.19830  0.44280  Biso   1.000  C
  C47      1.0000 0.14120  0.30170  0.94280  Biso   1.000  C
  C48      1.0000 0.35880  0.80170  0.55720  Biso   1.000  C
  C49      1.0000 0.96185  0.83170  0.01940  Biso   1.000  C
  C50      1.0000 0.53815  0.33170  0.48060  Biso   1.000  C
  C51      1.0000 0.03815  0.16830  0.98060  Biso   1.000  C
  C52      1.0000 0.46185  0.66830  0.51940  Biso   1.000  C
  C53      1.0000 0.87500  0.78150  0.98720  Biso   1.000  C
  C54      1.0000 0.62500  0.28150  0.51280  Biso   1.000  C
  C55      1.0000 0.12500  0.21850  0.01280  Biso   1.000  C
  C56      1.0000 0.37500  0.71850  0.48720  Biso   1.000  C
  C57      1.0000 0.98715  0.26560  0.19890  Biso   1.000  C
  C58      1.0000 0.51285  0.76560  0.30110  Biso   1.000  C
  C59      1.0000 0.01285  0.73440  0.80110  Biso   1.000  C
  C60      1.0000 0.48715  0.23440  0.69890  Biso   1.000  C
  C61      1.0000 0.22193  0.57460  0.13690  Biso   1.000  C
  C62      1.0000 0.27807  0.07460  0.36310  Biso   1.000  C
  C63      1.0000 0.77807  0.42540  0.86310  Biso   1.000  C
  C64      1.0000 0.72193  0.92540  0.63690  Biso   1.000  C
  H1       1.0000 0.72200  0.77300  0.10700  Biso   1.000  H
  H2       1.0000 0.77800  0.27300  0.39300  Biso   1.000  H
  H3       1.0000 0.27800  0.22700  0.89300  Biso   1.000  H
  H4       1.0000 0.22200  0.72700  0.60700  Biso   1.000  H
  H5       1.0000 0.65800  0.78100  0.01300  Biso   1.000  H
  H6       1.0000 0.84200  0.28100  0.48700  Biso   1.000  H
  H7       1.0000 0.34200  0.21900  0.98700  Biso   1.000  H
  H8       1.0000 0.15800  0.71900  0.51300  Biso   1.000  H
  H9       1.0000 0.51300  0.66600  0.98000  Biso   1.000  H
  H10      1.0000 0.98700  0.16600  0.52000  Biso   1.000  H
  H11      1.0000 0.48700  0.33400  0.02000  Biso   1.000  H
  H12      1.0000 0.01300  0.83400  0.48000  Biso   1.000  H
  H13      1.0000 0.50500  0.59700  0.06100  Biso   1.000  H
  H14      1.0000 0.99500  0.09700  0.43900  Biso   1.000  H
  H15      1.0000 0.49500  0.40300  0.93900  Biso   1.000  H
  H16      1.0000 0.00500  0.90300  0.56100  Biso   1.000  H
  H17      1.0000 0.63600  0.57700  0.06900  Biso   1.000  H
  H18      1.0000 0.86400  0.07700  0.43100  Biso   1.000  H
  H19      1.0000 0.36400  0.42300  0.93100  Biso   1.000  H
  H20      1.0000 0.13600  0.92300  0.56900  Biso   1.000  H
  H21      1.0000 0.63500  0.63300  0.15500  Biso   1.000  H
  H22      1.0000 0.86500  0.13300  0.34500  Biso   1.000  H
  H23      1.0000 0.36500  0.36700  0.84500  Biso   1.000  H
  H24      1.0000 0.13500  0.86700  0.65500  Biso   1.000  H
  H25      1.0000 0.65300  0.29800  0.14500  Biso   1.000  H
  H26      1.0000 0.84700  0.79800  0.35500  Biso   1.000  H
  H27      1.0000 0.34700  0.70200  0.85500  Biso   1.000  H
  H28      1.0000 0.15300  0.20200  0.64500  Biso   1.000  H
  H29      1.0000 0.61900  0.27600  0.21000  Biso   1.000  H
  H30      1.0000 0.88100  0.77600  0.29000  Biso   1.000  H
  H31      1.0000 0.38100  0.72400  0.79000  Biso   1.000  H
  H32      1.0000 0.11900  0.22400  0.71000  Biso   1.000  H
  H33      1.0000 0.70300  0.23000  0.23100  Biso   1.000  H
  H34      1.0000 0.79700  0.73000  0.26900  Biso   1.000  H
  H35      1.0000 0.29700  0.77000  0.76900  Biso   1.000  H
  H36      1.0000 0.20300  0.27000  0.73100  Biso   1.000  H
  H37      1.0000 0.31100  0.01100  0.06100  Biso   1.000  H
  H38      1.0000 0.18900  0.51100  0.43900  Biso   1.000  H
  H39      1.0000 0.68900  0.98900  0.93900  Biso   1.000  H
  H40      1.0000 0.81100  0.48900  0.56100  Biso   1.000  H
  H41      1.0000 0.34000  0.92700  0.15600  Biso   1.000  H
  H42      1.0000 0.16000  0.42700  0.34400  Biso   1.000  H
  H43      1.0000 0.66000  0.07300  0.84400  Biso   1.000  H
  H44      1.0000 0.84000  0.57300  0.65600  Biso   1.000  H
  H45      1.0000 0.36600  0.08200  0.14600  Biso   1.000  H
  H46      1.0000 0.13400  0.58200  0.35400  Biso   1.000  H
  H47      1.0000 0.63400  0.91800  0.85400  Biso   1.000  H
  H48      1.0000 0.86600  0.41800  0.64600  Biso   1.000  H
  H49      1.0000 0.81000  0.65800  0.03500  Biso   1.000  H
  H50      1.0000 0.69000  0.15800  0.46500  Biso   1.000  H
  H51      1.0000 0.19000  0.34200  0.96500  Biso   1.000  H
  H52      1.0000 0.31000  0.84200  0.53500  Biso   1.000  H
  H53      1.0000 0.86500  0.75500  0.10700  Biso   1.000  H
  H54      1.0000 0.63500  0.25500  0.39300  Biso   1.000  H
  H55      1.0000 0.13500  0.24500  0.89300  Biso   1.000  H
  H56      1.0000 0.36500  0.74500  0.60700  Biso   1.000  H
  H57      1.0000 0.97300  0.86800  0.97400  Biso   1.000  H
  H58      1.0000 0.52700  0.36800  0.52600  Biso   1.000  H
  H59      1.0000 0.02700  0.13200  0.02600  Biso   1.000  H
  H60      1.0000 0.47300  0.63200  0.47400  Biso   1.000  H
  H61      1.0000 0.97800  0.89800  0.06600  Biso   1.000  H
  H62      1.0000 0.52200  0.39800  0.43400  Biso   1.000  H
  H63      1.0000 0.02200  0.10200  0.93400  Biso   1.000  H
  H64      1.0000 0.47800  0.60200  0.56600  Biso   1.000  H
  H65      1.0000 0.83900  0.85500  0.97200  Biso   1.000  H
  H66      1.0000 0.66100  0.35500  0.52800  Biso   1.000  H
  H67      1.0000 0.16100  0.14500  0.02800  Biso   1.000  H
  H68      1.0000 0.33900  0.64500  0.47200  Biso   1.000  H
  H69      1.0000 0.86300  0.72700  0.92400  Biso   1.000  H
  H70      1.0000 0.63700  0.22700  0.57600  Biso   1.000  H
  H71      1.0000 0.13700  0.27300  0.07600  Biso   1.000  H
  H72      1.0000 0.36300  0.77300  0.42400  Biso   1.000  H
  H73      1.0000 0.04400  0.25000  0.23000  Biso   1.000  H
  H74      1.0000 0.45600  0.75000  0.27000  Biso   1.000  H
  H75      1.0000 0.95600  0.75000  0.77000  Biso   1.000  H
  H76      1.0000 0.54400  0.25000  0.73000  Biso   1.000  H
  H77      1.0000 0.96200  0.26100  0.23900  Biso   1.000  H
  H78      1.0000 0.53800  0.76100  0.26100  Biso   1.000  H
  H79      1.0000 0.03800  0.73900  0.76100  Biso   1.000  H
  H80      1.0000 0.46200  0.23900  0.73900  Biso   1.000  H
  H81      1.0000 0.95600  0.19600  0.15400  Biso   1.000  H
  H82      1.0000 0.54400  0.69600  0.34600  Biso   1.000  H
  H83      1.0000 0.04400  0.80400  0.84600  Biso   1.000  H
  H84      1.0000 0.45600  0.30400  0.65400  Biso   1.000  H
  H85      1.0000 0.25100  0.64900  0.16500  Biso   1.000  H
  H86      1.0000 0.24900  0.14900  0.33500  Biso   1.000  H
  H87      1.0000 0.74900  0.35100  0.83500  Biso   1.000  H
  H88      1.0000 0.75100  0.85100  0.66500  Biso   1.000  H
  H89      1.0000 0.23400  0.50000  0.17900  Biso   1.000  H
  H90      1.0000 0.26600  0.00000  0.32100  Biso   1.000  H
  H91      1.0000 0.76600  0.50000  0.82100  Biso   1.000  H
  H92      1.0000 0.73400  0.00000  0.67900  Biso   1.000  H
  H93      1.0000 0.23000  0.54600  0.08200  Biso   1.000  H
  H94      1.0000 0.27000  0.04600  0.41800  Biso   1.000  H
  H95      1.0000 0.77000  0.45400  0.91800  Biso   1.000  H
  H96      1.0000 0.73000  0.95400  0.58200  Biso   1.000  H
  Cl1      1.0000 0.56210  0.61774  0.78926  Biso   1.000  Cl
  Cl2      1.0000 0.93790  0.11774  0.71074  Biso   1.000  Cl
  Cl3      1.0000 0.43790  0.38226  0.21074  Biso   1.000  Cl
  Cl4      1.0000 0.06210  0.88226  0.28926  Biso   1.000  Cl
  O1       1.0000 0.52240  0.73600  0.74390  Biso   1.000  O
  O2       1.0000 0.97760  0.23600  0.75610  Biso   1.000  O
  O3       1.0000 0.47760  0.26400  0.25610  Biso   1.000  O
  O4       1.0000 0.02240  0.76400  0.24390  Biso   1.000  O
  O5       1.0000 0.58740  0.53130  0.73660  Biso   1.000  O
  O6       1.0000 0.91260  0.03130  0.76340  Biso   1.000  O
  O7       1.0000 0.41260  0.46870  0.26340  Biso   1.000  O
  O8       1.0000 0.08740  0.96870  0.23660  Biso   1.000  O
  O9       1.0000 0.62370  0.64670  0.87120  Biso   1.000  O
  O10      1.0000 0.87630  0.14670  0.62880  Biso   1.000  O
  O11      1.0000 0.37630  0.35330  0.12880  Biso   1.000  O
  O12      1.0000 0.12370  0.85330  0.37120  Biso   1.000  O
  O13      1.0000 0.50120  0.54100  0.81110  Biso   1.000  O
  O14      1.0000 0.99880  0.04100  0.68890  Biso   1.000  O
  O15      1.0000 0.49880  0.45900  0.18890  Biso   1.000  O
  O16      1.0000 0.00120  0.95900  0.31110  Biso   1.000  O
