data_image0
_cell_length_a       9.08
_cell_length_b       9.295
_cell_length_c       13.086
_cell_angle_alpha    105.64
_cell_angle_beta     105.3
_cell_angle_gamma    94.91

_symmetry_space_group_name_H-M    "P 1"
_symmetry_int_tables_number       1

loop_
  _symmetry_equiv_pos_as_xyz
  'x, y, z'

loop_
  _atom_site_label
  _atom_site_occupancy
  _atom_site_fract_x
  _atom_site_fract_y
  _atom_site_fract_z
  _atom_site_thermal_displace_type
  _atom_site_B_iso_or_equiv
  _atom_site_type_symbol
  C1       1.0000 0.36760  0.68160  0.49570  Biso   1.000  C
  C2       1.0000 0.63240  0.31840  0.50430  Biso   1.000  C
  C3       1.0000 0.48020  0.80730  0.52020  Biso   1.000  C
  C4       1.0000 0.51980  0.19270  0.47980  Biso   1.000  C
  C5       1.0000 0.44210  0.93110  0.48570  Biso   1.000  C
  C6       1.0000 0.55790  0.06890  0.51430  Biso   1.000  C
  C7       1.0000 0.28930  0.91800  0.42420  Biso   1.000  C
  C8       1.0000 0.71070  0.08200  0.57580  Biso   1.000  C
  C9       1.0000 0.18430  0.78800  0.40080  Biso   1.000  C
  C10      1.0000 0.81570  0.21200  0.59920  Biso   1.000  C
  C11      1.0000 0.92580  0.32920  0.11990  Biso   1.000  C
  C12      1.0000 0.07420  0.67080  0.88010  Biso   1.000  C
  C13      1.0000 0.97060  0.28710  0.02300  Biso   1.000  C
  C14      1.0000 0.02940  0.71290  0.97700  Biso   1.000  C
  C15      1.0000 0.88550  0.31560  0.92760  Biso   1.000  C
  C16      1.0000 0.11450  0.68440  0.07240  Biso   1.000  C
  C17      1.0000 0.75770  0.38290  0.92650  Biso   1.000  C
  C18      1.0000 0.24230  0.61710  0.07350  Biso   1.000  C
  C19      1.0000 0.71460  0.42740  0.02210  Biso   1.000  C
  C20      1.0000 0.28540  0.57260  0.97790  Biso   1.000  C
  C21      1.0000 0.79930  0.40450  0.12120  Biso   1.000  C
  C22      1.0000 0.20070  0.59550  0.87880  Biso   1.000  C
  C23      1.0000 0.91010  0.11190  0.23560  Biso   1.000  C
  C24      1.0000 0.08990  0.88810  0.76440  Biso   1.000  C
  C25      1.0000 0.82410  0.00950  0.13230  Biso   1.000  C
  C26      1.0000 0.17590  0.99050  0.86770  Biso   1.000  C
  C27      1.0000 0.73970  0.87380  0.12730  Biso   1.000  C
  C28      1.0000 0.26030  0.12620  0.87270  Biso   1.000  C
  C29      1.0000 0.74140  0.83970  0.22400  Biso   1.000  C
  C30      1.0000 0.25860  0.16030  0.77600  Biso   1.000  C
  C31      1.0000 0.82580  0.93870  0.32660  Biso   1.000  C
  C32      1.0000 0.17420  0.06130  0.67340  Biso   1.000  C
  C33      1.0000 0.90930  0.07830  0.33330  Biso   1.000  C
  C34      1.0000 0.09070  0.92170  0.66670  Biso   1.000  C
  C35      1.0000 0.20390  0.23890  0.22570  Biso   1.000  C
  C36      1.0000 0.79610  0.76110  0.77430  Biso   1.000  C
  C37      1.0000 0.22540  0.08950  0.18500  Biso   1.000  C
  C38      1.0000 0.77460  0.91050  0.81500  Biso   1.000  C
  C39      1.0000 0.36680  0.06050  0.16950  Biso   1.000  C
  C40      1.0000 0.63320  0.93950  0.83050  Biso   1.000  C
  C41      1.0000 0.48690  0.18010  0.19360  Biso   1.000  C
  C42      1.0000 0.51310  0.81990  0.80640  Biso   1.000  C
  C43      1.0000 0.46690  0.32850  0.23540  Biso   1.000  C
  C44      1.0000 0.53310  0.67150  0.76460  Biso   1.000  C
  C45      1.0000 0.32530  0.35890  0.25110  Biso   1.000  C
  C46      1.0000 0.67470  0.64110  0.74890  Biso   1.000  C
  Cu1      1.0000 0.06005  0.47999  0.40171  Biso   1.000  Cu
  Cu2      1.0000 0.93995  0.52001  0.59829  Biso   1.000  Cu
  P1       1.0000 0.02302  0.29184  0.24866  Biso   1.000  P
  P2       1.0000 0.97698  0.70816  0.75134  Biso   1.000  P
  Cl1      1.0000 0.15916  0.40723  0.56902  Biso   1.000  Cl
  Cl2      1.0000 0.84084  0.59277  0.43098  Biso   1.000  Cl
  N1       1.0000 0.22080  0.66990  0.43630  Biso   1.000  N
  N2       1.0000 0.77920  0.33010  0.56370  Biso   1.000  N
