data_image0
_cell_length_a       9.0278
_cell_length_b       9.2204
_cell_length_c       23.92
_cell_angle_alpha    93.865
_cell_angle_beta     93.184
_cell_angle_gamma    94.559

_symmetry_space_group_name_H-M    "P 1"
_symmetry_int_tables_number       1

loop_
  _symmetry_equiv_pos_as_xyz
  'x, y, z'

loop_
  _atom_site_label
  _atom_site_occupancy
  _atom_site_fract_x
  _atom_site_fract_y
  _atom_site_fract_z
  _atom_site_thermal_displace_type
  _atom_site_B_iso_or_equiv
  _atom_site_type_symbol
  Cu1      1.0000 0.87087  0.78263  0.29852  Biso   1.000  Cu
  Cu2      1.0000 0.12913  0.21737  0.70148  Biso   1.000  Cu
  Cu3      1.0000 0.65549  0.72549  0.20055  Biso   1.000  Cu
  Cu4      1.0000 0.34451  0.27451  0.79945  Biso   1.000  Cu
  Cl1      1.0000 0.63684  0.88482  0.28451  Biso   1.000  Cl
  Cl2      1.0000 0.36316  0.11518  0.71549  Biso   1.000  Cl
  Cl3      1.0000 0.88814  0.62445  0.21463  Biso   1.000  Cl
  Cl4      1.0000 0.11186  0.37555  0.78537  Biso   1.000  Cl
  P1       1.0000 0.90620  0.66856  0.37509  Biso   1.000  P
  P2       1.0000 0.09380  0.33144  0.62491  Biso   1.000  P
  P3       1.0000 0.60968  0.83604  0.12393  Biso   1.000  P
  P4       1.0000 0.39032  0.16396  0.87607  Biso   1.000  P
  N1       1.0000 0.01515  0.95575  0.28194  Biso   1.000  N
  N2       1.0000 0.98485  0.04425  0.71806  Biso   1.000  N
  N3       1.0000 0.51295  0.55286  0.21900  Biso   1.000  N
  N4       1.0000 0.48705  0.44714  0.78100  Biso   1.000  N
  C1       1.0000 0.14251  0.93531  0.25762  Biso   1.000  C
  C2       1.0000 0.85749  0.06469  0.74238  Biso   1.000  C
  H1       1.0000 0.16500  0.83810  0.24820  Biso   1.000  H
  H2       1.0000 0.83500  0.16190  0.75180  Biso   1.000  H
  C3       1.0000 0.24340  0.04837  0.24538  Biso   1.000  C
  C4       1.0000 0.75660  0.95163  0.75462  Biso   1.000  C
  H3       1.0000 0.33320  0.02780  0.22870  Biso   1.000  H
  H4       1.0000 0.66680  0.97220  0.77130  Biso   1.000  H
  C5       1.0000 0.21262  0.19194  0.25762  Biso   1.000  C
  C6       1.0000 0.78738  0.80806  0.74238  Biso   1.000  C
  C7       1.0000 0.08006  0.21327  0.28332  Biso   1.000  C
  C8       1.0000 0.91994  0.78673  0.71668  Biso   1.000  C
  H5       1.0000 0.05420  0.30930  0.29290  Biso   1.000  H
  H6       1.0000 0.94580  0.69070  0.70710  Biso   1.000  H
  C9       1.0000 0.98680  0.09440  0.29477  Biso   1.000  C
  C10      1.0000 0.01320  0.90560  0.70523  Biso   1.000  C
  H7       1.0000 0.89790  0.11160  0.31270  Biso   1.000  H
  H8       1.0000 0.10210  0.88840  0.68730  Biso   1.000  H
  C11      1.0000 0.52587  0.41687  0.19739  Biso   1.000  C
  C12      1.0000 0.47413  0.58313  0.80261  Biso   1.000  C
  H9       1.0000 0.60420  0.40110  0.17330  Biso   1.000  H
  H10      1.0000 0.39580  0.59890  0.82670  Biso   1.000  H
  C13      1.0000 0.43118  0.29846  0.20832  Biso   1.000  C
  C14      1.0000 0.56882  0.70154  0.79168  Biso   1.000  C
  H11      1.0000 0.44490  0.20430  0.19180  Biso   1.000  H
  H12      1.0000 0.55510  0.79570  0.80820  Biso   1.000  H
  C15      1.0000 0.31526  0.31724  0.24367  Biso   1.000  C
  C16      1.0000 0.68474  0.68276  0.75633  Biso   1.000  C
  C17      1.0000 0.30244  0.45833  0.26589  Biso   1.000  C
  C18      1.0000 0.69756  0.54167  0.73411  Biso   1.000  C
  H13      1.0000 0.22540  0.47740  0.29020  Biso   1.000  H
  H14      1.0000 0.77460  0.52260  0.70980  Biso   1.000  H
  C19      1.0000 0.40180  0.57123  0.25271  Biso   1.000  C
  C20      1.0000 0.59820  0.42877  0.74729  Biso   1.000  C
  H15      1.0000 0.39030  0.66680  0.26840  Biso   1.000  H
  H16      1.0000 0.60970  0.33320  0.73160  Biso   1.000  H
  C21      1.0000 0.09866  0.62461  0.38766  Biso   1.000  C
  C22      1.0000 0.90134  0.37539  0.61234  Biso   1.000  C
  C23      1.0000 0.20995  0.73151  0.37654  Biso   1.000  C
  C24      1.0000 0.79005  0.26849  0.62346  Biso   1.000  C
  H17      1.0000 0.18310  0.81940  0.36170  Biso   1.000  H
  H18      1.0000 0.81690  0.18060  0.63830  Biso   1.000  H
  C25      1.0000 0.35871  0.71050  0.38696  Biso   1.000  C
  C26      1.0000 0.64129  0.28950  0.61304  Biso   1.000  C
  H19      1.0000 0.43320  0.78470  0.38000  Biso   1.000  H
  H20      1.0000 0.56680  0.21530  0.62000  Biso   1.000  H
  C27      1.0000 0.39940  0.58110  0.40763  Biso   1.000  C
  C28      1.0000 0.60060  0.41890  0.59237  Biso   1.000  C
  H21      1.0000 0.50160  0.56650  0.41470  Biso   1.000  H
  H22      1.0000 0.49840  0.43350  0.58530  Biso   1.000  H
  C29      1.0000 0.28990  0.47320  0.41795  Biso   1.000  C
  C30      1.0000 0.71010  0.52680  0.58205  Biso   1.000  C
  H23      1.0000 0.31740  0.38410  0.43160  Biso   1.000  H
  H24      1.0000 0.68260  0.61590  0.56840  Biso   1.000  H
  C31      1.0000 0.14043  0.49510  0.40831  Biso   1.000  C
  C32      1.0000 0.85957  0.50490  0.59169  Biso   1.000  C
  H25      1.0000 0.06620  0.42130  0.41580  Biso   1.000  H
  H26      1.0000 0.93380  0.57870  0.58420  Biso   1.000  H
  C33      1.0000 0.87173  0.77229  0.44030  Biso   1.000  C
  C34      1.0000 0.12827  0.22771  0.55970  Biso   1.000  C
  C35      1.0000 0.96227  0.77553  0.48954  Biso   1.000  C
  C36      1.0000 0.03773  0.22447  0.51046  Biso   1.000  C
  H27      1.0000 0.04990  0.72480  0.48990  Biso   1.000  H
  H28      1.0000 0.95010  0.27520  0.51010  Biso   1.000  H
  C37      1.0000 0.92540  0.85246  0.53811  Biso   1.000  C
  C38      1.0000 0.07460  0.14754  0.46189  Biso   1.000  C
  H29      1.0000 0.98810  0.85530  0.57140  Biso   1.000  H
  H30      1.0000 0.01190  0.14470  0.42860  Biso   1.000  H
  C39      1.0000 0.79710  0.92470  0.53771  Biso   1.000  C
  C40      1.0000 0.20290  0.07530  0.46229  Biso   1.000  C
  H31      1.0000 0.76990  0.97430  0.57120  Biso   1.000  H
  H32      1.0000 0.23010  0.02570  0.42880  Biso   1.000  H
  C41      1.0000 0.70760  0.92510  0.48848  Biso   1.000  C
  C42      1.0000 0.29240  0.07490  0.51152  Biso   1.000  C
  H33      1.0000 0.62030  0.97640  0.48830  Biso   1.000  H
  H34      1.0000 0.37970  0.02360  0.51170  Biso   1.000  H
  C43      1.0000 0.74583  0.85063  0.43968  Biso   1.000  C
  C44      1.0000 0.25417  0.14937  0.56032  Biso   1.000  C
  H35      1.0000 0.68610  0.85300  0.40580  Biso   1.000  H
  H36      1.0000 0.31390  0.14700  0.59420  Biso   1.000  H
  C45      1.0000 0.79690  0.49500  0.38115  Biso   1.000  C
  C46      1.0000 0.20310  0.50500  0.61885  Biso   1.000  C
  C47      1.0000 0.76529  0.44199  0.43294  Biso   1.000  C
  C48      1.0000 0.23471  0.55801  0.56706  Biso   1.000  C
  H37      1.0000 0.80130  0.49680  0.46670  Biso   1.000  H
  H38      1.0000 0.19870  0.50320  0.53330  Biso   1.000  H
  C49      1.0000 0.68145  0.30958  0.43537  Biso   1.000  C
  C50      1.0000 0.31855  0.69042  0.56463  Biso   1.000  C
  H39      1.0000 0.65890  0.27500  0.47070  Biso   1.000  H
  H40      1.0000 0.34110  0.72500  0.52930  Biso   1.000  H
  C51      1.0000 0.63082  0.22799  0.38625  Biso   1.000  C
  C52      1.0000 0.36918  0.77201  0.61375  Biso   1.000  C
  H41      1.0000 0.57510  0.13670  0.38790  Biso   1.000  H
  H42      1.0000 0.42490  0.86330  0.61210  Biso   1.000  H
  C53      1.0000 0.66174  0.27988  0.33451  Biso   1.000  C
  C54      1.0000 0.33826  0.72012  0.66549  Biso   1.000  C
  H43      1.0000 0.62660  0.22410  0.30090  Biso   1.000  H
  H44      1.0000 0.37340  0.77590  0.69910  Biso   1.000  H
  C55      1.0000 0.74392  0.41309  0.33182  Biso   1.000  C
  C56      1.0000 0.25608  0.58691  0.66818  Biso   1.000  C
  H45      1.0000 0.76400  0.44840  0.29640  Biso   1.000  H
  H46      1.0000 0.23600  0.55160  0.70360  Biso   1.000  H
  C57      1.0000 0.41625  0.88000  0.11526  Biso   1.000  C
  C58      1.0000 0.58375  0.12000  0.88474  Biso   1.000  C
  C59      1.0000 0.30629  0.77618  0.12998  Biso   1.000  C
  C60      1.0000 0.69371  0.22382  0.87002  Biso   1.000  C
  H47      1.0000 0.33430  0.68880  0.14490  Biso   1.000  H
  H48      1.0000 0.66570  0.31120  0.85510  Biso   1.000  H
  C61      1.0000 0.15705  0.79980  0.12295  Biso   1.000  C
  C62      1.0000 0.84295  0.20020  0.87705  Biso   1.000  C
  H49      1.0000 0.08320  0.72790  0.13240  Biso   1.000  H
  H50      1.0000 0.91680  0.27210  0.86760  Biso   1.000  H
  C63      1.0000 0.11519  0.92850  0.10204  Biso   1.000  C
  C64      1.0000 0.88481  0.07150  0.89796  Biso   1.000  C
  H51      1.0000 0.01280  0.94490  0.09750  Biso   1.000  H
  H52      1.0000 0.98720  0.05510  0.90250  Biso   1.000  H
  C65      1.0000 0.22332  0.03306  0.08774  Biso   1.000  C
  C66      1.0000 0.77668  0.96694  0.91226  Biso   1.000  C
  H53      1.0000 0.19490  0.12140  0.07370  Biso   1.000  H
  H54      1.0000 0.80510  0.87860  0.92630  Biso   1.000  H
  C67      1.0000 0.37290  0.00836  0.09392  Biso   1.000  C
  C68      1.0000 0.62710  0.99164  0.90608  Biso   1.000  C
  H55      1.0000 0.44640  0.07950  0.08350  Biso   1.000  H
  H56      1.0000 0.55360  0.92050  0.91650  Biso   1.000  H
  C69      1.0000 0.63518  0.73087  0.05808  Biso   1.000  C
  C70      1.0000 0.36482  0.26913  0.94192  Biso   1.000  C
  C71      1.0000 0.53595  0.72506  0.01109  Biso   1.000  C
  C72      1.0000 0.46405  0.27494  0.98891  Biso   1.000  C
  H57      1.0000 0.44830  0.77530  0.01280  Biso   1.000  H
  H58      1.0000 0.55170  0.22470  0.98720  Biso   1.000  H
  C73      1.0000 0.56400  0.64654  0.96180  Biso   1.000  C
  C74      1.0000 0.43600  0.35346  0.03820  Biso   1.000  C
  H59      1.0000 0.49510  0.64230  0.93010  Biso   1.000  H
  H60      1.0000 0.50490  0.35770  0.06990  Biso   1.000  H
  C75      1.0000 0.69190  0.57460  0.95879  Biso   1.000  C
  C76      1.0000 0.30810  0.42540  0.04121  Biso   1.000  C
  H61      1.0000 0.71260  0.52330  0.92470  Biso   1.000  H
  H62      1.0000 0.28740  0.47670  0.07530  Biso   1.000  H
  C77      1.0000 0.79070  0.57740  0.00576  Biso   1.000  C
  C78      1.0000 0.20930  0.42260  0.99424  Biso   1.000  C
  H63      1.0000 0.87820  0.52680  0.00380  Biso   1.000  H
  H64      1.0000 0.12180  0.47320  0.99620  Biso   1.000  H
  C79      1.0000 0.76169  0.65372  0.05546  Biso   1.000  C
  C80      1.0000 0.23831  0.34628  0.94454  Biso   1.000  C
  H65      1.0000 0.82800  0.65340  0.08770  Biso   1.000  H
  H66      1.0000 0.17200  0.34660  0.91230  Biso   1.000  H
  C81      1.0000 0.71645  0.00959  0.11534  Biso   1.000  C
  C82      1.0000 0.28355  0.99041  0.88466  Biso   1.000  C
  C83      1.0000 0.74897  0.05694  0.06274  Biso   1.000  C
  C84      1.0000 0.25103  0.94306  0.93726  Biso   1.000  C
  H67      1.0000 0.71480  0.99830  0.02970  Biso   1.000  H
  H68      1.0000 0.28520  0.00170  0.97030  Biso   1.000  H
  C85      1.0000 0.83111  0.18950  0.05857  Biso   1.000  C
  C86      1.0000 0.16889  0.81050  0.94143  Biso   1.000  C
  H69      1.0000 0.85440  0.22020  0.02270  Biso   1.000  H
  H70      1.0000 0.14560  0.77980  0.97730  Biso   1.000  H
  C87      1.0000 0.87900  0.27696  0.10660  Biso   1.000  C
  C88      1.0000 0.12100  0.72304  0.89340  Biso   1.000  C
  H71      1.0000 0.93350  0.36830  0.10370  Biso   1.000  H
  H72      1.0000 0.06650  0.63170  0.89630  Biso   1.000  H
  C89      1.0000 0.84720  0.23084  0.15898  Biso   1.000  C
  C90      1.0000 0.15280  0.76916  0.84102  Biso   1.000  C
  H73      1.0000 0.88050  0.29050  0.19190  Biso   1.000  H
  H74      1.0000 0.11950  0.70950  0.80810  Biso   1.000  H
  C91      1.0000 0.76653  0.09738  0.16345  Biso   1.000  C
  C92      1.0000 0.23347  0.90262  0.83655  Biso   1.000  C
  H75      1.0000 0.74560  0.06610  0.19940  Biso   1.000  H
  H76      1.0000 0.25440  0.93390  0.80060  Biso   1.000  H
