data_image0
_cell_length_a       12.9802
_cell_length_b       8.1449
_cell_length_c       14.5848
_cell_angle_alpha    90
_cell_angle_beta     90
_cell_angle_gamma    90

_symmetry_space_group_name_H-M    "P 1"
_symmetry_int_tables_number       1

loop_
  _symmetry_equiv_pos_as_xyz
  'x, y, z'

loop_
  _atom_site_label
  _atom_site_occupancy
  _atom_site_fract_x
  _atom_site_fract_y
  _atom_site_fract_z
  _atom_site_thermal_displace_type
  _atom_site_B_iso_or_equiv
  _atom_site_type_symbol
  Cu1      1.0000 0.58813  0.44049  0.62868  Biso   1.000  Cu
  Cu2      1.0000 0.08813  0.05951  0.37133  Biso   1.000  Cu
  Cu3      1.0000 0.41187  0.94049  0.87133  Biso   1.000  Cu
  Cu4      1.0000 0.91187  0.55951  0.12867  Biso   1.000  Cu
  Cu5      1.0000 0.41187  0.55951  0.37133  Biso   1.000  Cu
  Cu6      1.0000 0.91187  0.94049  0.62868  Biso   1.000  Cu
  Cu7      1.0000 0.58813  0.05951  0.12867  Biso   1.000  Cu
  Cu8      1.0000 0.08813  0.44049  0.87133  Biso   1.000  Cu
  C1       1.0000 0.69527  0.32962  0.81154  Biso   1.000  C
  C2       1.0000 0.19527  0.17038  0.18846  Biso   1.000  C
  C3       1.0000 0.30473  0.82962  0.68846  Biso   1.000  C
  C4       1.0000 0.80473  0.67038  0.31154  Biso   1.000  C
  C5       1.0000 0.30473  0.67038  0.18846  Biso   1.000  C
  C6       1.0000 0.80473  0.82962  0.81154  Biso   1.000  C
  C7       1.0000 0.69527  0.17038  0.31154  Biso   1.000  C
  C8       1.0000 0.19527  0.32962  0.68846  Biso   1.000  C
  C9       1.0000 0.86036  0.32301  0.88643  Biso   1.000  C
  C10      1.0000 0.36036  0.17699  0.11357  Biso   1.000  C
  C11      1.0000 0.13964  0.82301  0.61357  Biso   1.000  C
  C12      1.0000 0.63964  0.67699  0.38643  Biso   1.000  C
  C13      1.0000 0.13964  0.67699  0.11357  Biso   1.000  C
  C14      1.0000 0.63964  0.82301  0.88643  Biso   1.000  C
  C15      1.0000 0.86036  0.17699  0.38643  Biso   1.000  C
  C16      1.0000 0.36036  0.32301  0.61357  Biso   1.000  C
  C17      1.0000 0.70950  0.20812  0.96428  Biso   1.000  C
  C18      1.0000 0.20950  0.29188  0.03572  Biso   1.000  C
  C19      1.0000 0.29050  0.70812  0.53572  Biso   1.000  C
  C20      1.0000 0.79050  0.79188  0.46428  Biso   1.000  C
  C21      1.0000 0.29050  0.79188  0.03572  Biso   1.000  C
  C22      1.0000 0.79050  0.70812  0.96428  Biso   1.000  C
  C23      1.0000 0.70950  0.29188  0.46428  Biso   1.000  C
  C24      1.0000 0.20950  0.20812  0.53572  Biso   1.000  C
  C25      1.0000 0.75490  0.28398  0.88784  Biso   1.000  C
  C26      1.0000 0.25490  0.21602  0.11216  Biso   1.000  C
  C27      1.0000 0.24510  0.78398  0.61216  Biso   1.000  C
  C28      1.0000 0.74510  0.71602  0.38784  Biso   1.000  C
  C29      1.0000 0.24510  0.71602  0.11216  Biso   1.000  C
  C30      1.0000 0.74510  0.78398  0.88784  Biso   1.000  C
  C31      1.0000 0.75490  0.21602  0.38784  Biso   1.000  C
  C32      1.0000 0.25490  0.28398  0.61216  Biso   1.000  C
  C33      1.0000 0.59224  0.82529  0.64049  Biso   1.000  C
  C34      1.0000 0.09224  0.67471  0.35951  Biso   1.000  C
  C35      1.0000 0.40776  0.32529  0.85951  Biso   1.000  C
  C36      1.0000 0.90776  0.17471  0.14049  Biso   1.000  C
  C37      1.0000 0.40776  0.17471  0.35951  Biso   1.000  C
  C38      1.0000 0.90776  0.32529  0.64049  Biso   1.000  C
  C39      1.0000 0.59224  0.67471  0.14049  Biso   1.000  C
  C40      1.0000 0.09224  0.82529  0.85951  Biso   1.000  C
  C41      1.0000 0.59681  0.00325  0.65007  Biso   1.000  C
  C42      1.0000 0.09681  0.49675  0.34993  Biso   1.000  C
  C43      1.0000 0.40319  0.50325  0.84993  Biso   1.000  C
  C44      1.0000 0.90319  0.99675  0.15007  Biso   1.000  C
  C45      1.0000 0.40319  0.99675  0.34993  Biso   1.000  C
  C46      1.0000 0.90319  0.50325  0.65007  Biso   1.000  C
  C47      1.0000 0.59681  0.49675  0.15007  Biso   1.000  C
  C48      1.0000 0.09681  0.00325  0.84993  Biso   1.000  C
  N1       1.0000 0.64984  0.36967  0.74738  Biso   1.000  N
  N2       1.0000 0.14984  0.13033  0.25262  Biso   1.000  N
  N3       1.0000 0.35016  0.86967  0.75262  Biso   1.000  N
  N4       1.0000 0.85016  0.63033  0.24738  Biso   1.000  N
  N5       1.0000 0.35016  0.63033  0.25262  Biso   1.000  N
  N6       1.0000 0.85016  0.86967  0.74738  Biso   1.000  N
  N7       1.0000 0.64984  0.13033  0.24738  Biso   1.000  N
  N8       1.0000 0.14984  0.36967  0.75262  Biso   1.000  N
  N9       1.0000 0.94616  0.35831  0.88161  Biso   1.000  N
  N10      1.0000 0.44616  0.14169  0.11839  Biso   1.000  N
  N11      1.0000 0.05384  0.85831  0.61839  Biso   1.000  N
  N12      1.0000 0.55384  0.64169  0.38161  Biso   1.000  N
  N13      1.0000 0.05384  0.64169  0.11839  Biso   1.000  N
  N14      1.0000 0.55384  0.85831  0.88161  Biso   1.000  N
  N15      1.0000 0.94616  0.14169  0.38161  Biso   1.000  N
  N16      1.0000 0.44616  0.35831  0.61839  Biso   1.000  N
  N17      1.0000 0.67102  0.14601  0.02642  Biso   1.000  N
  N18      1.0000 0.17102  0.35399  0.97358  Biso   1.000  N
  N19      1.0000 0.32898  0.64601  0.47358  Biso   1.000  N
  N20      1.0000 0.82898  0.85399  0.52642  Biso   1.000  N
  N21      1.0000 0.32898  0.85399  0.97358  Biso   1.000  N
  N22      1.0000 0.82898  0.64601  0.02642  Biso   1.000  N
  N23      1.0000 0.67102  0.35399  0.52642  Biso   1.000  N
  N24      1.0000 0.17102  0.14601  0.47358  Biso   1.000  N
  N25      1.0000 0.58913  0.68611  0.63311  Biso   1.000  N
  N26      1.0000 0.08913  0.81389  0.36689  Biso   1.000  N
  N27      1.0000 0.41087  0.18611  0.86689  Biso   1.000  N
  N28      1.0000 0.91087  0.31389  0.13311  Biso   1.000  N
  N29      1.0000 0.41087  0.31389  0.36689  Biso   1.000  N
  N30      1.0000 0.91087  0.18611  0.63311  Biso   1.000  N
  N31      1.0000 0.58913  0.81389  0.13311  Biso   1.000  N
  N32      1.0000 0.08913  0.68611  0.86689  Biso   1.000  N
  H1       1.0000 0.55670  0.03710  0.70020  Biso   1.000  H
  H2       1.0000 0.05670  0.46290  0.29980  Biso   1.000  H
  H3       1.0000 0.44330  0.53710  0.79980  Biso   1.000  H
  H4       1.0000 0.94330  0.96290  0.20020  Biso   1.000  H
  H5       1.0000 0.44330  0.96290  0.29980  Biso   1.000  H
  H6       1.0000 0.94330  0.53710  0.70020  Biso   1.000  H
  H7       1.0000 0.55670  0.46290  0.20020  Biso   1.000  H
  H8       1.0000 0.05670  0.03710  0.79980  Biso   1.000  H
  H9       1.0000 0.66550  0.03610  0.65690  Biso   1.000  H
  H10      1.0000 0.16550  0.46390  0.34310  Biso   1.000  H
  H11      1.0000 0.33450  0.53610  0.84310  Biso   1.000  H
  H12      1.0000 0.83450  0.96390  0.15690  Biso   1.000  H
  H13      1.0000 0.33450  0.96390  0.34310  Biso   1.000  H
  H14      1.0000 0.83450  0.53610  0.65690  Biso   1.000  H
  H15      1.0000 0.66550  0.46390  0.15690  Biso   1.000  H
  H16      1.0000 0.16550  0.03610  0.84310  Biso   1.000  H
  H17      1.0000 0.57330  0.05340  0.59500  Biso   1.000  H
  H18      1.0000 0.07330  0.44660  0.40500  Biso   1.000  H
  H19      1.0000 0.42670  0.55340  0.90500  Biso   1.000  H
  H20      1.0000 0.92670  0.94660  0.09500  Biso   1.000  H
  H21      1.0000 0.42670  0.94660  0.40500  Biso   1.000  H
  H22      1.0000 0.92670  0.55340  0.59500  Biso   1.000  H
  H23      1.0000 0.57330  0.44660  0.09500  Biso   1.000  H
  H24      1.0000 0.07330  0.05340  0.90500  Biso   1.000  H
