data_image0
_cell_length_a       10.295
_cell_length_b       12.287
_cell_length_c       14.431
_cell_angle_alpha    68.61
_cell_angle_beta     88.3
_cell_angle_gamma    77.82

_symmetry_space_group_name_H-M    "P 1"
_symmetry_int_tables_number       1

loop_
  _symmetry_equiv_pos_as_xyz
  'x, y, z'

loop_
  _atom_site_label
  _atom_site_occupancy
  _atom_site_fract_x
  _atom_site_fract_y
  _atom_site_fract_z
  _atom_site_thermal_displace_type
  _atom_site_B_iso_or_equiv
  _atom_site_type_symbol
  Br1      1.0000 0.25960  0.57440  0.23510  Biso   1.000  Br
  Br2      1.0000 0.74040  0.42560  0.76490  Biso   1.000  Br
  Br3      1.0000 0.63830  0.49350  0.24250  Biso   1.000  Br
  Br4      1.0000 0.36170  0.50650  0.75750  Biso   1.000  Br
  Cu1      1.0000 0.45900  0.54830  0.34200  Biso   1.000  Cu
  Cu2      1.0000 0.54100  0.45170  0.65800  Biso   1.000  Cu
  Cu3      1.0000 0.44380  0.53940  0.13020  Biso   1.000  Cu
  Cu4      1.0000 0.55620  0.46060  0.86980  Biso   1.000  Cu
  S1       1.0000 0.42250  0.37050  0.46980  Biso   1.000  S
  S2       1.0000 0.57750  0.62950  0.53020  Biso   1.000  S
  S3       1.0000 0.72560  0.21570  0.57660  Biso   1.000  S
  S4       1.0000 0.27440  0.78430  0.42340  Biso   1.000  S
  S5       1.0000 0.48350  0.14870  0.69110  Biso   1.000  S
  S6       1.0000 0.51650  0.85130  0.30890  Biso   1.000  S
  S7       1.0000 0.42130  0.35440  0.11830  Biso   1.000  S
  S8       1.0000 0.57870  0.64560  0.88170  Biso   1.000  S
  S9       1.0000 0.53520  0.14800  0.03230  Biso   1.000  S
  S10      1.0000 0.46480  0.85200  0.96770  Biso   1.000  S
  S11      1.0000 0.73950  0.29070  0.09710  Biso   1.000  S
  S12      1.0000 0.26050  0.70930  0.90290  Biso   1.000  S
  P1       1.0000 0.54290  0.30550  0.60370  Biso   1.000  P
  P2       1.0000 0.45710  0.69450  0.39630  Biso   1.000  P
  P3       1.0000 0.56330  0.31820  0.01870  Biso   1.000  P
  P4       1.0000 0.43670  0.68180  0.98130  Biso   1.000  P
  C1       1.0000 0.45800  0.24700  0.42100  Biso   1.000  C
  C2       1.0000 0.54200  0.75300  0.57900  Biso   1.000  C
  C3       1.0000 0.33000  0.20500  0.42400  Biso   1.000  C
  C4       1.0000 0.67000  0.79500  0.57600  Biso   1.000  C
  C5       1.0000 0.35100  0.10600  0.38400  Biso   1.000  C
  C6       1.0000 0.64900  0.89400  0.61600  Biso   1.000  C
  C7       1.0000 0.80000  0.33400  0.51600  Biso   1.000  C
  C8       1.0000 0.20000  0.66600  0.48400  Biso   1.000  C
  C9       1.0000 0.93200  0.30900  0.47900  Biso   1.000  C
  C10      1.0000 0.06800  0.69100  0.52100  Biso   1.000  C
  C11      1.0000 0.98100  0.41300  0.41600  Biso   1.000  C
  C12      1.0000 0.01900  0.58700  0.58400  Biso   1.000  C
  C13      1.0000 0.34000  0.19900  0.75000  Biso   1.000  C
  C14      1.0000 0.66000  0.80100  0.25000  Biso   1.000  C
  C15      1.0000 0.23400  0.23100  0.70700  Biso   1.000  C
  C16      1.0000 0.76600  0.76900  0.29300  Biso   1.000  C
  C17      1.0000 0.12600  0.25200  0.78600  Biso   1.000  C
  C18      1.0000 0.87400  0.74800  0.21400  Biso   1.000  C
  C19      1.0000 0.26900  0.39100  0.04500  Biso   1.000  C
  C20      1.0000 0.73100  0.60900  0.95500  Biso   1.000  C
  C21      1.0000 0.19100  0.29400  0.07300  Biso   1.000  C
  C22      1.0000 0.80900  0.70600  0.92700  Biso   1.000  C
  C23      1.0000 0.06700  0.35500  0.01000  Biso   1.000  C
  C24      1.0000 0.93300  0.64500  0.99000  Biso   1.000  C
  C25      1.0000 0.09400  0.32300  0.16700  Biso   1.000  C
  C26      1.0000 0.90600  0.67700  0.83300  Biso   1.000  C
  C27      1.0000 0.63000  0.12500  0.92800  Biso   1.000  C
  C28      1.0000 0.37000  0.87500  0.07200  Biso   1.000  C
  C29      1.0000 0.78600  0.08500  0.95600  Biso   1.000  C
  C30      1.0000 0.21400  0.91500  0.04400  Biso   1.000  C
  C31      1.0000 0.24800  0.95400  0.03900  Biso   1.000  C
  C32      1.0000 0.75200  0.04600  0.96100  Biso   1.000  C
  C33      1.0000 0.83900  0.03800  0.87300  Biso   1.000  C
  C34      1.0000 0.16100  0.96200  0.12700  Biso   1.000  C
  C35      1.0000 0.72500  0.17800  0.22100  Biso   1.000  C
  C36      1.0000 0.27500  0.82200  0.77900  Biso   1.000  C
  C37      1.0000 0.85800  0.13400  0.26400  Biso   1.000  C
  C38      1.0000 0.14200  0.86600  0.73600  Biso   1.000  C
  C39      1.0000 0.86400  0.04700  0.36600  Biso   1.000  C
  C40      1.0000 0.13600  0.95300  0.63400  Biso   1.000  C
  H1       1.0000 0.52990  0.18000  0.46350  Biso   1.000  H
  H2       1.0000 0.47010  0.82000  0.53650  Biso   1.000  H
  H3       1.0000 0.49270  0.27090  0.35560  Biso   1.000  H
  H4       1.0000 0.50730  0.72910  0.64440  Biso   1.000  H
  H5       1.0000 0.26250  0.27140  0.38500  Biso   1.000  H
  H6       1.0000 0.73750  0.72860  0.61500  Biso   1.000  H
  H7       1.0000 0.30260  0.17620  0.49100  Biso   1.000  H
  H8       1.0000 0.69740  0.82380  0.50900  Biso   1.000  H
  H9       1.0000 0.74180  0.39360  0.45670  Biso   1.000  H
  H10      1.0000 0.25820  0.60640  0.54330  Biso   1.000  H
  H11      1.0000 0.80570  0.38140  0.55700  Biso   1.000  H
  H12      1.0000 0.19430  0.61860  0.44300  Biso   1.000  H
  H13      1.0000 0.98850  0.26330  0.53650  Biso   1.000  H
  H14      1.0000 0.01150  0.73670  0.46350  Biso   1.000  H
  H15      1.0000 0.92380  0.25580  0.44400  Biso   1.000  H
  H16      1.0000 0.07620  0.74420  0.55600  Biso   1.000  H
  H17      1.0000 0.32390  0.13240  0.81570  Biso   1.000  H
  H18      1.0000 0.67610  0.86760  0.18430  Biso   1.000  H
  H19      1.0000 0.35070  0.26070  0.77750  Biso   1.000  H
  H20      1.0000 0.64930  0.73930  0.22250  Biso   1.000  H
  H21      1.0000 0.23770  0.30720  0.65030  Biso   1.000  H
  H22      1.0000 0.76230  0.69280  0.34970  Biso   1.000  H
  H23      1.0000 0.22150  0.17650  0.67770  Biso   1.000  H
  H24      1.0000 0.77850  0.82350  0.32230  Biso   1.000  H
  H25      1.0000 0.28780  0.41460  0.97340  Biso   1.000  H
  H26      1.0000 0.71220  0.58540  0.02660  Biso   1.000  H
  H27      1.0000 0.21140  0.46490  0.04840  Biso   1.000  H
  H28      1.0000 0.78860  0.53510  0.95160  Biso   1.000  H
  H29      1.0000 0.66430  0.21120  0.26100  Biso   1.000  H
  H30      1.0000 0.33570  0.78880  0.73900  Biso   1.000  H
  H31      1.0000 0.68430  0.11370  0.21440  Biso   1.000  H
  H32      1.0000 0.31570  0.88630  0.78560  Biso   1.000  H
  H33      1.0000 0.90440  0.09490  0.22070  Biso   1.000  H
  H34      1.0000 0.09560  0.90510  0.77930  Biso   1.000  H
  H35      1.0000 0.88950  0.20170  0.25610  Biso   1.000  H
  H36      1.0000 0.11050  0.79830  0.74390  Biso   1.000  H
  H37      1.0000 0.26960  0.07390  0.38290  Biso   1.000  H
  H38      1.0000 0.73040  0.92610  0.61710  Biso   1.000  H
  H39      1.0000 0.37470  0.13000  0.31300  Biso   1.000  H
  H40      1.0000 0.62530  0.87000  0.68700  Biso   1.000  H
  H41      1.0000 0.41870  0.03500  0.41850  Biso   1.000  H
  H42      1.0000 0.58130  0.96500  0.58150  Biso   1.000  H
  H43      1.0000 0.06990  0.39820  0.38980  Biso   1.000  H
  H44      1.0000 0.93010  0.60180  0.61020  Biso   1.000  H
  H45      1.0000 0.98640  0.47350  0.44550  Biso   1.000  H
  H46      1.0000 0.01360  0.52650  0.55450  Biso   1.000  H
  H47      1.0000 0.92450  0.46430  0.35260  Biso   1.000  H
  H48      1.0000 0.07550  0.53570  0.64740  Biso   1.000  H
  H49      1.0000 0.03090  0.27290  0.76160  Biso   1.000  H
  H50      1.0000 0.96910  0.72710  0.23840  Biso   1.000  H
  H51      1.0000 0.13120  0.32080  0.80650  Biso   1.000  H
  H52      1.0000 0.86880  0.67920  0.19350  Biso   1.000  H
  H53      1.0000 0.12600  0.18630  0.85170  Biso   1.000  H
  H54      1.0000 0.87400  0.81370  0.14830  Biso   1.000  H
  H55      1.0000 0.95170  0.01160  0.40030  Biso   1.000  H
  H56      1.0000 0.04830  0.98840  0.59970  Biso   1.000  H
  H57      1.0000 0.82910  0.97360  0.37140  Biso   1.000  H
  H58      1.0000 0.17090  0.02640  0.62860  Biso   1.000  H
  H59      1.0000 0.80920  0.07560  0.41310  Biso   1.000  H
  H60      1.0000 0.19080  0.92440  0.58690  Biso   1.000  H
