data_image0
_cell_length_a       11.499
_cell_length_b       12.958
_cell_length_c       14.572
_cell_angle_alpha    71.39
_cell_angle_beta     84.31
_cell_angle_gamma    76.89

_symmetry_space_group_name_H-M    "P 1"
_symmetry_int_tables_number       1

loop_
  _symmetry_equiv_pos_as_xyz
  'x, y, z'

loop_
  _atom_site_label
  _atom_site_occupancy
  _atom_site_fract_x
  _atom_site_fract_y
  _atom_site_fract_z
  _atom_site_thermal_displace_type
  _atom_site_B_iso_or_equiv
  _atom_site_type_symbol
  Br1      1.0000 0.29280  0.58820  0.74410  Biso   1.000  Br
  Br2      1.0000 0.70720  0.41180  0.25590  Biso   1.000  Br
  Br3      1.0000 0.63120  0.48380  0.74090  Biso   1.000  Br
  Br4      1.0000 0.36880  0.51620  0.25910  Biso   1.000  Br
  Cu1      1.0000 0.47320  0.54460  0.84560  Biso   1.000  Cu
  Cu2      1.0000 0.52680  0.45540  0.15440  Biso   1.000  Cu
  Cu3      1.0000 0.46040  0.54370  0.63440  Biso   1.000  Cu
  Cu4      1.0000 0.53960  0.45630  0.36560  Biso   1.000  Cu
  S1       1.0000 0.41900  0.38200  0.96600  Biso   1.000  S
  S2       1.0000 0.58100  0.61800  0.03400  Biso   1.000  S
  S3       1.0000 0.43900  0.19100  0.17600  Biso   1.000  S
  S4       1.0000 0.56100  0.80900  0.82400  Biso   1.000  S
  S5       1.0000 0.68300  0.22900  0.06300  Biso   1.000  S
  S6       1.0000 0.31700  0.77100  0.93700  Biso   1.000  S
  S7       1.0000 0.41600  0.38000  0.61600  Biso   1.000  S
  S8       1.0000 0.58400  0.62000  0.38400  Biso   1.000  S
  S9       1.0000 0.49100  0.17700  0.52700  Biso   1.000  S
  S10      1.0000 0.50900  0.82300  0.47300  Biso   1.000  S
  S11      1.0000 0.70100  0.29500  0.57300  Biso   1.000  S
  S12      1.0000 0.29900  0.70500  0.42700  Biso   1.000  S
  P1       1.0000 0.51700  0.32100  0.09500  Biso   1.000  P
  P2       1.0000 0.48300  0.67900  0.90500  Biso   1.000  P
  P3       1.0000 0.53900  0.33000  0.51000  Biso   1.000  P
  P4       1.0000 0.46100  0.67000  0.49000  Biso   1.000  P
  C1       1.0000 0.46100  0.26400  0.91100  Biso   1.000  C
  C2       1.0000 0.53900  0.73600  0.08900  Biso   1.000  C
  C3       1.0000 0.35560  0.22090  0.90900  Biso   1.000  C
  C4       1.0000 0.64440  0.77910  0.09100  Biso   1.000  C
  C5       1.0000 0.36200  0.12530  0.86600  Biso   1.000  C
  C6       1.0000 0.63800  0.87470  0.13400  Biso   1.000  C
  C7       1.0000 0.26590  0.08470  0.86190  Biso   1.000  C
  C8       1.0000 0.73410  0.91530  0.13810  Biso   1.000  C
  C9       1.0000 0.29300  0.27000  0.20700  Biso   1.000  C
  C10      1.0000 0.70700  0.73000  0.79300  Biso   1.000  C
  C11      1.0000 0.19900  0.22400  0.29100  Biso   1.000  C
  C12      1.0000 0.80100  0.77600  0.70900  Biso   1.000  C
  C13      1.0000 0.09800  0.26900  0.33900  Biso   1.000  C
  C14      1.0000 0.90200  0.73100  0.66100  Biso   1.000  C
  C15      1.0000 0.01850  0.22770  0.38510  Biso   1.000  C
  C16      1.0000 0.98150  0.77230  0.61490  Biso   1.000  C
  C17      1.0000 0.78200  0.34000  0.99600  Biso   1.000  C
  C18      1.0000 0.21800  0.66000  0.00400  Biso   1.000  C
  C19      1.0000 0.89400  0.31400  0.97400  Biso   1.000  C
  C20      1.0000 0.10600  0.68600  0.02600  Biso   1.000  C
  C21      1.0000 0.94890  0.42010  0.92350  Biso   1.000  C
  C22      1.0000 0.05110  0.57990  0.07650  Biso   1.000  C
  C23      1.0000 0.07490  0.35280  0.93650  Biso   1.000  C
  C24      1.0000 0.92510  0.64720  0.06350  Biso   1.000  C
  C25      1.0000 0.27300  0.42100  0.53800  Biso   1.000  C
  C26      1.0000 0.72700  0.57900  0.46200  Biso   1.000  C
  C27      1.0000 0.20660  0.34550  0.60700  Biso   1.000  C
  C28      1.0000 0.79340  0.65450  0.39300  Biso   1.000  C
  C29      1.0000 0.09420  0.37480  0.65590  Biso   1.000  C
  C30      1.0000 0.90580  0.62520  0.34410  Biso   1.000  C
  C31      1.0000 0.00710  0.31750  0.69170  Biso   1.000  C
  C32      1.0000 0.99290  0.68250  0.30830  Biso   1.000  C
  C33      1.0000 0.56500  0.14000  0.42300  Biso   1.000  C
  C34      1.0000 0.43500  0.86000  0.57700  Biso   1.000  C
  C35      1.0000 0.69790  0.06370  0.44440  Biso   1.000  C
  C36      1.0000 0.30210  0.93630  0.55560  Biso   1.000  C
  C37      1.0000 0.80230  0.01180  0.37650  Biso   1.000  C
  C38      1.0000 0.19770  0.98820  0.62350  Biso   1.000  C
  C39      1.0000 0.91310  0.04560  0.34200  Biso   1.000  C
  C40      1.0000 0.08690  0.95440  0.65800  Biso   1.000  C
  C41      1.0000 0.68200  0.19400  0.69500  Biso   1.000  C
  C42      1.0000 0.31800  0.80600  0.30500  Biso   1.000  C
  C43      1.0000 0.80100  0.13900  0.73000  Biso   1.000  C
  C44      1.0000 0.19900  0.86100  0.27000  Biso   1.000  C
  C45      1.0000 0.81200  0.05500  0.83500  Biso   1.000  C
  C46      1.0000 0.18800  0.94500  0.16500  Biso   1.000  C
  C47      1.0000 0.90720  0.99790  0.86960  Biso   1.000  C
  C48      1.0000 0.09280  0.00210  0.13040  Biso   1.000  C
