data_image0
_cell_length_a       11.172
_cell_length_b       16.717
_cell_length_c       9.365
_cell_angle_alpha    90
_cell_angle_beta     99.09
_cell_angle_gamma    90

_symmetry_space_group_name_H-M    "P 1"
_symmetry_int_tables_number       1

loop_
  _symmetry_equiv_pos_as_xyz
  'x, y, z'

loop_
  _atom_site_label
  _atom_site_occupancy
  _atom_site_fract_x
  _atom_site_fract_y
  _atom_site_fract_z
  _atom_site_thermal_displace_type
  _atom_site_B_iso_or_equiv
  _atom_site_type_symbol
  Cu1      1.0000 0.99030  0.00968  0.72714  Biso   1.000  Cu
  Cu2      1.0000 0.00970  0.50968  0.77286  Biso   1.000  Cu
  Cu3      1.0000 0.00970  0.99032  0.27286  Biso   1.000  Cu
  Cu4      1.0000 0.99030  0.49032  0.22714  Biso   1.000  Cu
  S1       1.0000 0.05000  0.12320  0.60410  Biso   1.000  S
  S2       1.0000 0.95000  0.62320  0.89590  Biso   1.000  S
  S3       1.0000 0.95000  0.87680  0.39590  Biso   1.000  S
  S4       1.0000 0.05000  0.37680  0.10410  Biso   1.000  S
  S5       1.0000 0.27310  0.01640  0.52680  Biso   1.000  S
  S6       1.0000 0.72690  0.51640  0.97320  Biso   1.000  S
  S7       1.0000 0.72690  0.98360  0.47320  Biso   1.000  S
  S8       1.0000 0.27310  0.48360  0.02680  Biso   1.000  S
  S9       1.0000 0.17290  0.18485  0.34280  Biso   1.000  S
  S10      1.0000 0.82710  0.68485  0.15720  Biso   1.000  S
  S11      1.0000 0.82710  0.81515  0.65720  Biso   1.000  S
  S12      1.0000 0.17290  0.31515  0.84280  Biso   1.000  S
  S13      1.0000 0.16770  0.94833  0.84810  Biso   1.000  S
  S14      1.0000 0.83230  0.44833  0.65190  Biso   1.000  S
  S15      1.0000 0.83230  0.05167  0.15190  Biso   1.000  S
  S16      1.0000 0.16770  0.55167  0.34810  Biso   1.000  S
  P1       1.0000 0.12070  0.07574  0.42360  Biso   1.000  P
  P2       1.0000 0.87930  0.57574  0.07640  Biso   1.000  P
  P3       1.0000 0.87930  0.92426  0.57640  Biso   1.000  P
  P4       1.0000 0.12070  0.42426  0.92360  Biso   1.000  P
  N1       1.0000 0.09460  0.94820  0.12010  Biso   1.000  N
  N2       1.0000 0.90540  0.44820  0.37990  Biso   1.000  N
  N3       1.0000 0.90540  0.05180  0.87990  Biso   1.000  N
  N4       1.0000 0.09460  0.55180  0.62010  Biso   1.000  N
  C1       1.0000 0.91390  0.17130  0.50890  Biso   1.000  C
  C2       1.0000 0.08610  0.67130  0.99110  Biso   1.000  C
  C3       1.0000 0.08610  0.82870  0.49110  Biso   1.000  C
  C4       1.0000 0.91390  0.32870  0.00890  Biso   1.000  C
  C5       1.0000 0.83460  0.20150  0.60890  Biso   1.000  C
  C6       1.0000 0.16540  0.70150  0.89110  Biso   1.000  C
  C7       1.0000 0.16540  0.79850  0.39110  Biso   1.000  C
  C8       1.0000 0.83460  0.29850  0.10890  Biso   1.000  C
  C9       1.0000 0.71950  0.23620  0.52580  Biso   1.000  C
  C10      1.0000 0.28050  0.73620  0.97420  Biso   1.000  C
  C11      1.0000 0.28050  0.76380  0.47420  Biso   1.000  C
  C12      1.0000 0.71950  0.26380  0.02580  Biso   1.000  C
  C13      1.0000 0.35790  0.08850  0.64570  Biso   1.000  C
  C14      1.0000 0.64210  0.58850  0.85430  Biso   1.000  C
  C15      1.0000 0.64210  0.91150  0.35430  Biso   1.000  C
  C16      1.0000 0.35790  0.41150  0.14570  Biso   1.000  C
  C17      1.0000 0.47150  0.05300  0.72070  Biso   1.000  C
  C18      1.0000 0.52850  0.55300  0.77930  Biso   1.000  C
  C19      1.0000 0.52850  0.94700  0.27930  Biso   1.000  C
  C20      1.0000 0.47150  0.44700  0.22070  Biso   1.000  C
  C21      1.0000 0.54790  0.10620  0.81660  Biso   1.000  C
  C22      1.0000 0.45210  0.60620  0.68340  Biso   1.000  C
  C23      1.0000 0.45210  0.89380  0.18340  Biso   1.000  C
  C24      1.0000 0.54790  0.39380  0.31660  Biso   1.000  C
  C25      1.0000 0.18650  0.15680  0.15870  Biso   1.000  C
  C26      1.0000 0.81350  0.65680  0.34130  Biso   1.000  C
  C27      1.0000 0.81350  0.84320  0.84130  Biso   1.000  C
  C28      1.0000 0.18650  0.34320  0.65870  Biso   1.000  C
  C29      1.0000 0.30280  0.11860  0.13920  Biso   1.000  C
  C30      1.0000 0.69720  0.61860  0.36080  Biso   1.000  C
  C31      1.0000 0.69720  0.88140  0.86080  Biso   1.000  C
  C32      1.0000 0.30280  0.38140  0.63920  Biso   1.000  C
  C33      1.0000 0.41130  0.16860  0.18210  Biso   1.000  C
  C34      1.0000 0.58870  0.66860  0.31790  Biso   1.000  C
  C35      1.0000 0.58870  0.83140  0.81790  Biso   1.000  C
  C36      1.0000 0.41130  0.33140  0.68210  Biso   1.000  C
  C37      1.0000 0.12510  0.94650  0.00840  Biso   1.000  C
  C38      1.0000 0.87490  0.44650  0.49160  Biso   1.000  C
  C39      1.0000 0.87490  0.05350  0.99160  Biso   1.000  C
  C40      1.0000 0.12510  0.55350  0.50840  Biso   1.000  C
  H1       1.0000 0.88000  0.14100  0.44100  Biso   1.000  H
  H2       1.0000 0.12000  0.64100  0.05900  Biso   1.000  H
  H3       1.0000 0.12000  0.85900  0.55900  Biso   1.000  H
  H4       1.0000 0.88000  0.35900  0.94100  Biso   1.000  H
  H5       1.0000 0.93700  0.21200  0.45100  Biso   1.000  H
  H6       1.0000 0.06300  0.71200  0.04900  Biso   1.000  H
  H7       1.0000 0.06300  0.78800  0.54900  Biso   1.000  H
  H8       1.0000 0.93700  0.28800  0.95100  Biso   1.000  H
  H9       1.0000 0.81000  0.15800  0.65100  Biso   1.000  H
  H10      1.0000 0.19000  0.65800  0.84900  Biso   1.000  H
  H11      1.0000 0.19000  0.84200  0.34900  Biso   1.000  H
  H12      1.0000 0.81000  0.34200  0.15100  Biso   1.000  H
  H13      1.0000 0.88400  0.23900  0.66700  Biso   1.000  H
  H14      1.0000 0.11600  0.73900  0.83300  Biso   1.000  H
  H15      1.0000 0.11600  0.76100  0.33300  Biso   1.000  H
  H16      1.0000 0.88400  0.26100  0.16700  Biso   1.000  H
  H17      1.0000 0.66900  0.25800  0.58200  Biso   1.000  H
  H18      1.0000 0.33100  0.75800  0.91800  Biso   1.000  H
  H19      1.0000 0.33100  0.74200  0.41800  Biso   1.000  H
  H20      1.0000 0.66900  0.24200  0.08200  Biso   1.000  H
  H21      1.0000 0.68200  0.19800  0.46900  Biso   1.000  H
  H22      1.0000 0.31800  0.69800  0.03100  Biso   1.000  H
  H23      1.0000 0.31800  0.80200  0.53100  Biso   1.000  H
  H24      1.0000 0.68200  0.30200  0.96900  Biso   1.000  H
  H25      1.0000 0.73800  0.28700  0.47000  Biso   1.000  H
  H26      1.0000 0.26200  0.78700  0.03000  Biso   1.000  H
  H27      1.0000 0.26200  0.71300  0.53000  Biso   1.000  H
  H28      1.0000 0.73800  0.21300  0.97000  Biso   1.000  H
  H29      1.0000 0.37680  0.13220  0.59100  Biso   1.000  H
  H30      1.0000 0.62320  0.63220  0.90900  Biso   1.000  H
  H31      1.0000 0.62320  0.86780  0.40900  Biso   1.000  H
  H32      1.0000 0.37680  0.36780  0.09100  Biso   1.000  H
  H33      1.0000 0.31080  0.10420  0.71600  Biso   1.000  H
  H34      1.0000 0.68920  0.60420  0.78400  Biso   1.000  H
  H35      1.0000 0.68920  0.89580  0.28400  Biso   1.000  H
  H36      1.0000 0.31080  0.39580  0.21600  Biso   1.000  H
  H37      1.0000 0.45360  0.00590  0.77630  Biso   1.000  H
  H38      1.0000 0.54640  0.50590  0.72370  Biso   1.000  H
  H39      1.0000 0.54640  0.99410  0.22370  Biso   1.000  H
  H40      1.0000 0.45360  0.49410  0.27630  Biso   1.000  H
  H41      1.0000 0.51810  0.03060  0.64800  Biso   1.000  H
  H42      1.0000 0.48190  0.53060  0.85200  Biso   1.000  H
  H43      1.0000 0.48190  0.96940  0.35200  Biso   1.000  H
  H44      1.0000 0.51810  0.46940  0.14800  Biso   1.000  H
  H45      1.0000 0.62180  0.07750  0.85760  Biso   1.000  H
  H46      1.0000 0.37820  0.57750  0.64240  Biso   1.000  H
  H47      1.0000 0.37820  0.92250  0.14240  Biso   1.000  H
  H48      1.0000 0.62180  0.42250  0.35760  Biso   1.000  H
  H49      1.0000 0.50770  0.12370  0.88710  Biso   1.000  H
  H50      1.0000 0.49230  0.62370  0.61290  Biso   1.000  H
  H51      1.0000 0.49230  0.87630  0.11290  Biso   1.000  H
  H52      1.0000 0.50770  0.37630  0.38710  Biso   1.000  H
  H53      1.0000 0.57220  0.14840  0.75880  Biso   1.000  H
  H54      1.0000 0.42780  0.64840  0.74120  Biso   1.000  H
  H55      1.0000 0.42780  0.85160  0.24120  Biso   1.000  H
  H56      1.0000 0.57220  0.35160  0.25880  Biso   1.000  H
  H57      1.0000 0.18000  0.20900  0.11600  Biso   1.000  H
  H58      1.0000 0.82000  0.70900  0.38400  Biso   1.000  H
  H59      1.0000 0.82000  0.79100  0.88400  Biso   1.000  H
  H60      1.0000 0.18000  0.29100  0.61600  Biso   1.000  H
  H61      1.0000 0.11700  0.12100  0.12500  Biso   1.000  H
  H62      1.0000 0.88300  0.62100  0.37500  Biso   1.000  H
  H63      1.0000 0.88300  0.87900  0.87500  Biso   1.000  H
  H64      1.0000 0.11700  0.37900  0.62500  Biso   1.000  H
  H65      1.0000 0.31040  0.06980  0.19340  Biso   1.000  H
  H66      1.0000 0.68960  0.56980  0.30660  Biso   1.000  H
  H67      1.0000 0.68960  0.93020  0.80660  Biso   1.000  H
  H68      1.0000 0.31040  0.43020  0.69340  Biso   1.000  H
  H69      1.0000 0.29840  0.10560  0.03890  Biso   1.000  H
  H70      1.0000 0.70160  0.60560  0.46110  Biso   1.000  H
  H71      1.0000 0.70160  0.89440  0.96110  Biso   1.000  H
  H72      1.0000 0.29840  0.39440  0.53890  Biso   1.000  H
  H73      1.0000 0.48090  0.14020  0.16940  Biso   1.000  H
  H74      1.0000 0.51910  0.64020  0.33060  Biso   1.000  H
  H75      1.0000 0.51910  0.85980  0.83060  Biso   1.000  H
  H76      1.0000 0.48090  0.35980  0.66940  Biso   1.000  H
  H77      1.0000 0.41540  0.18070  0.28470  Biso   1.000  H
  H78      1.0000 0.58460  0.68070  0.21530  Biso   1.000  H
  H79      1.0000 0.58460  0.81930  0.71530  Biso   1.000  H
  H80      1.0000 0.41540  0.31930  0.78470  Biso   1.000  H
  H81      1.0000 0.40340  0.21640  0.13020  Biso   1.000  H
  H82      1.0000 0.59660  0.71640  0.36980  Biso   1.000  H
  H83      1.0000 0.59660  0.78360  0.86980  Biso   1.000  H
  H84      1.0000 0.40340  0.28360  0.63020  Biso   1.000  H
