data_image0
_cell_length_a       11.6582
_cell_length_b       11.6582
_cell_length_c       26.101
_cell_angle_alpha    90
_cell_angle_beta     90
_cell_angle_gamma    120

_symmetry_space_group_name_H-M    "P 1"
_symmetry_int_tables_number       1

loop_
  _symmetry_equiv_pos_as_xyz
  'x, y, z'

loop_
  _atom_site_label
  _atom_site_occupancy
  _atom_site_fract_x
  _atom_site_fract_y
  _atom_site_fract_z
  _atom_site_thermal_displace_type
  _atom_site_B_iso_or_equiv
  _atom_site_type_symbol
  W1       1.0000 0.16777  0.66068  0.21818  Biso   1.000  W
  W2       1.0000 0.33932  0.50709  0.21818  Biso   1.000  W
  W3       1.0000 0.49291  0.83223  0.21818  Biso   1.000  W
  W4       1.0000 0.83444  0.99401  0.55151  Biso   1.000  W
  W5       1.0000 0.00599  0.84042  0.55151  Biso   1.000  W
  W6       1.0000 0.15958  0.16556  0.55151  Biso   1.000  W
  W7       1.0000 0.50110  0.32735  0.88485  Biso   1.000  W
  W8       1.0000 0.67265  0.17376  0.88485  Biso   1.000  W
  W9       1.0000 0.82624  0.49890  0.88485  Biso   1.000  W
  W10      1.0000 0.83223  0.33932  0.78182  Biso   1.000  W
  W11      1.0000 0.66068  0.49291  0.78182  Biso   1.000  W
  W12      1.0000 0.50709  0.16777  0.78182  Biso   1.000  W
  W13      1.0000 0.49890  0.67265  0.11515  Biso   1.000  W
  W14      1.0000 0.32735  0.82624  0.11515  Biso   1.000  W
  W15      1.0000 0.17376  0.50110  0.11515  Biso   1.000  W
  W16      1.0000 0.16556  0.00599  0.44849  Biso   1.000  W
  W17      1.0000 0.99401  0.15958  0.44849  Biso   1.000  W
  W18      1.0000 0.84042  0.83444  0.44849  Biso   1.000  W
  Cu1      1.0000 0.66670  0.33330  0.17109  Biso   1.000  Cu
  Cu2      1.0000 0.33337  0.66663  0.50442  Biso   1.000  Cu
  Cu3      1.0000 0.00003  0.99997  0.83776  Biso   1.000  Cu
  Cu4      1.0000 0.33330  0.66670  0.82891  Biso   1.000  Cu
  Cu5      1.0000 0.99997  0.00003  0.16224  Biso   1.000  Cu
  Cu6      1.0000 0.66663  0.33337  0.49558  Biso   1.000  Cu
  O1       1.0000 0.07180  0.52810  0.16650  Biso   1.000  O
  O2       1.0000 0.47190  0.54370  0.16650  Biso   1.000  O
  O3       1.0000 0.45630  0.92820  0.16650  Biso   1.000  O
  O4       1.0000 0.73847  0.86143  0.49983  Biso   1.000  O
  O5       1.0000 0.13857  0.87703  0.49983  Biso   1.000  O
  O6       1.0000 0.12297  0.26153  0.49983  Biso   1.000  O
  O7       1.0000 0.40513  0.19477  0.83317  Biso   1.000  O
  O8       1.0000 0.80523  0.21037  0.83317  Biso   1.000  O
  O9       1.0000 0.78963  0.59487  0.83317  Biso   1.000  O
  O10      1.0000 0.92820  0.47190  0.83350  Biso   1.000  O
  O11      1.0000 0.52810  0.45630  0.83350  Biso   1.000  O
  O12      1.0000 0.54370  0.07180  0.83350  Biso   1.000  O
  O13      1.0000 0.59487  0.80523  0.16683  Biso   1.000  O
  O14      1.0000 0.19477  0.78963  0.16683  Biso   1.000  O
  O15      1.0000 0.21037  0.40513  0.16683  Biso   1.000  O
  O16      1.0000 0.26153  0.13857  0.50017  Biso   1.000  O
  O17      1.0000 0.86143  0.12297  0.50017  Biso   1.000  O
  O18      1.0000 0.87703  0.73847  0.50017  Biso   1.000  O
  C1       1.0000 0.67310  0.15360  0.08560  Biso   1.000  C
  C2       1.0000 0.84640  0.51950  0.08560  Biso   1.000  C
  C3       1.0000 0.48050  0.32690  0.08560  Biso   1.000  C
  C4       1.0000 0.33977  0.48693  0.41893  Biso   1.000  C
  C5       1.0000 0.51307  0.85283  0.41893  Biso   1.000  C
  C6       1.0000 0.14717  0.66023  0.41893  Biso   1.000  C
  C7       1.0000 0.00643  0.82027  0.75227  Biso   1.000  C
  C8       1.0000 0.17973  0.18617  0.75227  Biso   1.000  C
  C9       1.0000 0.81383  0.99357  0.75227  Biso   1.000  C
  C10      1.0000 0.32690  0.84640  0.91440  Biso   1.000  C
  C11      1.0000 0.15360  0.48050  0.91440  Biso   1.000  C
  C12      1.0000 0.51950  0.67310  0.91440  Biso   1.000  C
  C13      1.0000 0.99357  0.17973  0.24773  Biso   1.000  C
  C14      1.0000 0.82027  0.81383  0.24773  Biso   1.000  C
  C15      1.0000 0.18617  0.00643  0.24773  Biso   1.000  C
  C16      1.0000 0.66023  0.51307  0.58107  Biso   1.000  C
  C17      1.0000 0.48693  0.14717  0.58107  Biso   1.000  C
  C18      1.0000 0.85283  0.33977  0.58107  Biso   1.000  C
  H1       1.0000 0.62340  0.19580  0.08740  Biso   1.000  H
  H2       1.0000 0.80420  0.42760  0.08740  Biso   1.000  H
  H3       1.0000 0.57240  0.37660  0.08740  Biso   1.000  H
  H4       1.0000 0.29007  0.52913  0.42073  Biso   1.000  H
  H5       1.0000 0.47087  0.76093  0.42073  Biso   1.000  H
  H6       1.0000 0.23907  0.70993  0.42073  Biso   1.000  H
  H7       1.0000 0.95673  0.86247  0.75407  Biso   1.000  H
  H8       1.0000 0.13753  0.09427  0.75407  Biso   1.000  H
  H9       1.0000 0.90573  0.04327  0.75407  Biso   1.000  H
  H10      1.0000 0.37660  0.80420  0.91260  Biso   1.000  H
  H11      1.0000 0.19580  0.57240  0.91260  Biso   1.000  H
  H12      1.0000 0.42760  0.62340  0.91260  Biso   1.000  H
  H13      1.0000 0.04327  0.13753  0.24593  Biso   1.000  H
  H14      1.0000 0.86247  0.90573  0.24593  Biso   1.000  H
  H15      1.0000 0.09427  0.95673  0.24593  Biso   1.000  H
  H16      1.0000 0.70993  0.47087  0.57927  Biso   1.000  H
  H17      1.0000 0.52913  0.23907  0.57927  Biso   1.000  H
  H18      1.0000 0.76093  0.29007  0.57927  Biso   1.000  H
  O19      1.0000 0.32810  0.79380  0.24970  Biso   1.000  O
  O20      1.0000 0.20620  0.53430  0.24970  Biso   1.000  O
  O21      1.0000 0.46570  0.67190  0.24970  Biso   1.000  O
  O22      1.0000 0.99477  0.12713  0.58303  Biso   1.000  O
  O23      1.0000 0.87287  0.86763  0.58303  Biso   1.000  O
  O24      1.0000 0.13237  0.00523  0.58303  Biso   1.000  O
  O25      1.0000 0.66143  0.46047  0.91637  Biso   1.000  O
  O26      1.0000 0.53953  0.20097  0.91637  Biso   1.000  O
  O27      1.0000 0.79903  0.33857  0.91637  Biso   1.000  O
  O28      1.0000 0.67190  0.20620  0.75030  Biso   1.000  O
  O29      1.0000 0.79380  0.46570  0.75030  Biso   1.000  O
  O30      1.0000 0.53430  0.32810  0.75030  Biso   1.000  O
  O31      1.0000 0.33857  0.53953  0.08363  Biso   1.000  O
  O32      1.0000 0.46047  0.79903  0.08363  Biso   1.000  O
  O33      1.0000 0.20097  0.66143  0.08363  Biso   1.000  O
  O34      1.0000 0.00523  0.87287  0.41697  Biso   1.000  O
  O35      1.0000 0.12713  0.13237  0.41697  Biso   1.000  O
  O36      1.0000 0.86763  0.99477  0.41697  Biso   1.000  O
  O37      1.0000 0.04540  0.65660  0.25480  Biso   1.000  O
  O38      1.0000 0.34340  0.38880  0.25480  Biso   1.000  O
  O39      1.0000 0.61120  0.95460  0.25480  Biso   1.000  O
  O40      1.0000 0.71207  0.98993  0.58813  Biso   1.000  O
  O41      1.0000 0.01007  0.72213  0.58813  Biso   1.000  O
  O42      1.0000 0.27787  0.28793  0.58813  Biso   1.000  O
  O43      1.0000 0.37873  0.32327  0.92147  Biso   1.000  O
  O44      1.0000 0.67673  0.05547  0.92147  Biso   1.000  O
  O45      1.0000 0.94453  0.62127  0.92147  Biso   1.000  O
  O46      1.0000 0.95460  0.34340  0.74520  Biso   1.000  O
  O47      1.0000 0.65660  0.61120  0.74520  Biso   1.000  O
  O48      1.0000 0.38880  0.04540  0.74520  Biso   1.000  O
  O49      1.0000 0.62127  0.67673  0.07853  Biso   1.000  O
  O50      1.0000 0.32327  0.94453  0.07853  Biso   1.000  O
  O51      1.0000 0.05547  0.37873  0.07853  Biso   1.000  O
  O52      1.0000 0.28793  0.01007  0.41187  Biso   1.000  O
  O53      1.0000 0.98993  0.27787  0.41187  Biso   1.000  O
  O54      1.0000 0.72213  0.71207  0.41187  Biso   1.000  O
  C19      1.0000 0.81390  0.01840  0.07960  Biso   1.000  C
  C20      1.0000 0.98160  0.79550  0.07960  Biso   1.000  C
  C21      1.0000 0.20450  0.18610  0.07960  Biso   1.000  C
  C22      1.0000 0.48057  0.35173  0.41293  Biso   1.000  C
  C23      1.0000 0.64827  0.12883  0.41293  Biso   1.000  C
  C24      1.0000 0.87117  0.51943  0.41293  Biso   1.000  C
  C25      1.0000 0.14723  0.68507  0.74627  Biso   1.000  C
  C26      1.0000 0.31493  0.46217  0.74627  Biso   1.000  C
  C27      1.0000 0.53783  0.85277  0.74627  Biso   1.000  C
  C28      1.0000 0.18610  0.98160  0.92040  Biso   1.000  C
  C29      1.0000 0.01840  0.20450  0.92040  Biso   1.000  C
  C30      1.0000 0.79550  0.81390  0.92040  Biso   1.000  C
  C31      1.0000 0.85277  0.31493  0.25373  Biso   1.000  C
  C32      1.0000 0.68507  0.53783  0.25373  Biso   1.000  C
  C33      1.0000 0.46217  0.14723  0.25373  Biso   1.000  C
  C34      1.0000 0.51943  0.64827  0.58707  Biso   1.000  C
  C35      1.0000 0.35173  0.87117  0.58707  Biso   1.000  C
  C36      1.0000 0.12883  0.48057  0.58707  Biso   1.000  C
  H19      1.0000 0.85900  0.97160  0.07730  Biso   1.000  H
  H20      1.0000 0.02840  0.88740  0.07730  Biso   1.000  H
  H21      1.0000 0.11260  0.14100  0.07730  Biso   1.000  H
  H22      1.0000 0.52567  0.30493  0.41063  Biso   1.000  H
  H23      1.0000 0.69507  0.22073  0.41063  Biso   1.000  H
  H24      1.0000 0.77927  0.47433  0.41063  Biso   1.000  H
  H25      1.0000 0.19233  0.63827  0.74397  Biso   1.000  H
  H26      1.0000 0.36173  0.55407  0.74397  Biso   1.000  H
  H27      1.0000 0.44593  0.80767  0.74397  Biso   1.000  H
  H28      1.0000 0.14100  0.02840  0.92270  Biso   1.000  H
  H29      1.0000 0.97160  0.11260  0.92270  Biso   1.000  H
  H30      1.0000 0.88740  0.85900  0.92270  Biso   1.000  H
  H31      1.0000 0.80767  0.36173  0.25603  Biso   1.000  H
  H32      1.0000 0.63827  0.44593  0.25603  Biso   1.000  H
  H33      1.0000 0.55407  0.19233  0.25603  Biso   1.000  H
  H34      1.0000 0.47433  0.69507  0.58937  Biso   1.000  H
  H35      1.0000 0.30493  0.77927  0.58937  Biso   1.000  H
  H36      1.0000 0.22073  0.52567  0.58937  Biso   1.000  H
  C37      1.0000 0.66850  0.08610  0.04300  Biso   1.000  C
  C38      1.0000 0.91390  0.58240  0.04300  Biso   1.000  C
  C39      1.0000 0.41760  0.33150  0.04300  Biso   1.000  C
  C40      1.0000 0.33517  0.41943  0.37633  Biso   1.000  C
  C41      1.0000 0.58057  0.91573  0.37633  Biso   1.000  C
  C42      1.0000 0.08427  0.66483  0.37633  Biso   1.000  C
  C43      1.0000 0.00183  0.75277  0.70967  Biso   1.000  C
  C44      1.0000 0.24723  0.24907  0.70967  Biso   1.000  C
  C45      1.0000 0.75093  0.99817  0.70967  Biso   1.000  C
  C46      1.0000 0.33150  0.91390  0.95700  Biso   1.000  C
  C47      1.0000 0.08610  0.41760  0.95700  Biso   1.000  C
  C48      1.0000 0.58240  0.66850  0.95700  Biso   1.000  C
  C49      1.0000 0.99817  0.24723  0.29033  Biso   1.000  C
  C50      1.0000 0.75277  0.75093  0.29033  Biso   1.000  C
  C51      1.0000 0.24907  0.00183  0.29033  Biso   1.000  C
  C52      1.0000 0.66483  0.58057  0.62367  Biso   1.000  C
  C53      1.0000 0.41943  0.08427  0.62367  Biso   1.000  C
  C54      1.0000 0.91573  0.33517  0.62367  Biso   1.000  C
  H37      1.0000 0.61920  0.08620  0.01500  Biso   1.000  H
  H38      1.0000 0.91380  0.53300  0.01500  Biso   1.000  H
  H39      1.0000 0.46700  0.38080  0.01500  Biso   1.000  H
  H40      1.0000 0.28587  0.41953  0.34833  Biso   1.000  H
  H41      1.0000 0.58047  0.86633  0.34833  Biso   1.000  H
  H42      1.0000 0.13367  0.71413  0.34833  Biso   1.000  H
  H43      1.0000 0.95253  0.75287  0.68167  Biso   1.000  H
  H44      1.0000 0.24713  0.19967  0.68167  Biso   1.000  H
  H45      1.0000 0.80033  0.04747  0.68167  Biso   1.000  H
  H46      1.0000 0.38080  0.91380  0.98500  Biso   1.000  H
  H47      1.0000 0.08620  0.46700  0.98500  Biso   1.000  H
  H48      1.0000 0.53300  0.61920  0.98500  Biso   1.000  H
  H49      1.0000 0.04747  0.24713  0.31833  Biso   1.000  H
  H50      1.0000 0.75287  0.80033  0.31833  Biso   1.000  H
  H51      1.0000 0.19967  0.95253  0.31833  Biso   1.000  H
  H52      1.0000 0.71413  0.58047  0.65167  Biso   1.000  H
  H53      1.0000 0.41953  0.13367  0.65167  Biso   1.000  H
  H54      1.0000 0.86633  0.28587  0.65167  Biso   1.000  H
  C55      1.0000 0.75380  0.16080  0.12810  Biso   1.000  C
  C56      1.0000 0.83920  0.59300  0.12810  Biso   1.000  C
  C57      1.0000 0.40700  0.24620  0.12810  Biso   1.000  C
  C58      1.0000 0.42047  0.49413  0.46143  Biso   1.000  C
  C59      1.0000 0.50587  0.92633  0.46143  Biso   1.000  C
  C60      1.0000 0.07367  0.57953  0.46143  Biso   1.000  C
  C61      1.0000 0.08713  0.82747  0.79477  Biso   1.000  C
  C62      1.0000 0.17253  0.25967  0.79477  Biso   1.000  C
  C63      1.0000 0.74033  0.91287  0.79477  Biso   1.000  C
  C64      1.0000 0.24620  0.83920  0.87190  Biso   1.000  C
  C65      1.0000 0.16080  0.40700  0.87190  Biso   1.000  C
  C66      1.0000 0.59300  0.75380  0.87190  Biso   1.000  C
  C67      1.0000 0.91287  0.17253  0.20523  Biso   1.000  C
  C68      1.0000 0.82747  0.74033  0.20523  Biso   1.000  C
  C69      1.0000 0.25967  0.08713  0.20523  Biso   1.000  C
  C70      1.0000 0.57953  0.50587  0.53857  Biso   1.000  C
  C71      1.0000 0.49413  0.07367  0.53857  Biso   1.000  C
  C72      1.0000 0.92633  0.42047  0.53857  Biso   1.000  C
  N1       1.0000 0.76230  0.23490  0.16910  Biso   1.000  N
  N2       1.0000 0.76510  0.52740  0.16910  Biso   1.000  N
  N3       1.0000 0.47260  0.23770  0.16910  Biso   1.000  N
  N4       1.0000 0.42897  0.56823  0.50243  Biso   1.000  N
  N5       1.0000 0.43177  0.86073  0.50243  Biso   1.000  N
  N6       1.0000 0.13927  0.57103  0.50243  Biso   1.000  N
  N7       1.0000 0.09563  0.90157  0.83577  Biso   1.000  N
  N8       1.0000 0.09843  0.19407  0.83577  Biso   1.000  N
  N9       1.0000 0.80593  0.90437  0.83577  Biso   1.000  N
  N10      1.0000 0.23770  0.76510  0.83090  Biso   1.000  N
  N11      1.0000 0.23490  0.47260  0.83090  Biso   1.000  N
  N12      1.0000 0.52740  0.76230  0.83090  Biso   1.000  N
  N13      1.0000 0.90437  0.09843  0.16423  Biso   1.000  N
  N14      1.0000 0.90157  0.80593  0.16423  Biso   1.000  N
  N15      1.0000 0.19407  0.09563  0.16423  Biso   1.000  N
  N16      1.0000 0.57103  0.43177  0.49757  Biso   1.000  N
  N17      1.0000 0.56823  0.13927  0.49757  Biso   1.000  N
  N18      1.0000 0.86073  0.42897  0.49757  Biso   1.000  N
  C73      1.0000 0.73820  0.01470  0.04010  Biso   1.000  C
  C74      1.0000 0.98530  0.72350  0.04010  Biso   1.000  C
  C75      1.0000 0.27650  0.26180  0.04010  Biso   1.000  C
  C76      1.0000 0.40487  0.34803  0.37343  Biso   1.000  C
  C77      1.0000 0.65197  0.05683  0.37343  Biso   1.000  C
  C78      1.0000 0.94317  0.59513  0.37343  Biso   1.000  C
  C79      1.0000 0.07153  0.68137  0.70677  Biso   1.000  C
  C80      1.0000 0.31863  0.39017  0.70677  Biso   1.000  C
  C81      1.0000 0.60983  0.92847  0.70677  Biso   1.000  C
  C82      1.0000 0.26180  0.98530  0.95990  Biso   1.000  C
  C83      1.0000 0.01470  0.27650  0.95990  Biso   1.000  C
  C84      1.0000 0.72350  0.73820  0.95990  Biso   1.000  C
  C85      1.0000 0.92847  0.31863  0.29323  Biso   1.000  C
  C86      1.0000 0.68137  0.60983  0.29323  Biso   1.000  C
  C87      1.0000 0.39017  0.07153  0.29323  Biso   1.000  C
  C88      1.0000 0.59513  0.65197  0.62657  Biso   1.000  C
  C89      1.0000 0.34803  0.94317  0.62657  Biso   1.000  C
  C90      1.0000 0.05683  0.40487  0.62657  Biso   1.000  C
  H55      1.0000 0.73130  0.96580  0.01100  Biso   1.000  H
  H56      1.0000 0.03420  0.76550  0.01100  Biso   1.000  H
  H57      1.0000 0.23450  0.26870  0.01100  Biso   1.000  H
  H58      1.0000 0.39797  0.29913  0.34433  Biso   1.000  H
  H59      1.0000 0.70087  0.09883  0.34433  Biso   1.000  H
  H60      1.0000 0.90117  0.60203  0.34433  Biso   1.000  H
  H61      1.0000 0.06463  0.63247  0.67767  Biso   1.000  H
  H62      1.0000 0.36753  0.43217  0.67767  Biso   1.000  H
  H63      1.0000 0.56783  0.93537  0.67767  Biso   1.000  H
  H64      1.0000 0.26870  0.03420  0.98900  Biso   1.000  H
  H65      1.0000 0.96580  0.23450  0.98900  Biso   1.000  H
  H66      1.0000 0.76550  0.73130  0.98900  Biso   1.000  H
  H67      1.0000 0.93537  0.36753  0.32233  Biso   1.000  H
  H68      1.0000 0.63247  0.56783  0.32233  Biso   1.000  H
  H69      1.0000 0.43217  0.06463  0.32233  Biso   1.000  H
  H70      1.0000 0.60203  0.70087  0.65567  Biso   1.000  H
  H71      1.0000 0.29913  0.90117  0.65567  Biso   1.000  H
  H72      1.0000 0.09883  0.39797  0.65567  Biso   1.000  H
  O55      1.0000 0.33330  0.66670  0.16670  Biso   1.000  O
  O56      1.0000 0.99997  0.00003  0.50003  Biso   1.000  O
  O57      1.0000 0.66663  0.33337  0.83337  Biso   1.000  O
  C91      1.0000 0.82670  0.09220  0.12510  Biso   1.000  C
  C92      1.0000 0.90780  0.73450  0.12510  Biso   1.000  C
  C93      1.0000 0.26550  0.17330  0.12510  Biso   1.000  C
  C94      1.0000 0.49337  0.42553  0.45843  Biso   1.000  C
  C95      1.0000 0.57447  0.06783  0.45843  Biso   1.000  C
  C96      1.0000 0.93217  0.50663  0.45843  Biso   1.000  C
  C97      1.0000 0.16003  0.75887  0.79177  Biso   1.000  C
  C98      1.0000 0.24113  0.40117  0.79177  Biso   1.000  C
  C99      1.0000 0.59883  0.83997  0.79177  Biso   1.000  C
  C100     1.0000 0.17330  0.90780  0.87490  Biso   1.000  C
  C101     1.0000 0.09220  0.26550  0.87490  Biso   1.000  C
  C102     1.0000 0.73450  0.82670  0.87490  Biso   1.000  C
  C103     1.0000 0.83997  0.24113  0.20823  Biso   1.000  C
  C104     1.0000 0.75887  0.59883  0.20823  Biso   1.000  C
  C105     1.0000 0.40117  0.16003  0.20823  Biso   1.000  C
  C106     1.0000 0.50663  0.57447  0.54157  Biso   1.000  C
  C107     1.0000 0.42553  0.93217  0.54157  Biso   1.000  C
  C108     1.0000 0.06783  0.49337  0.54157  Biso   1.000  C
