data_image0
_cell_length_a       11.7022
_cell_length_b       11.7022
_cell_length_c       26.046
_cell_angle_alpha    90
_cell_angle_beta     90
_cell_angle_gamma    120

_symmetry_space_group_name_H-M    "P 1"
_symmetry_int_tables_number       1

loop_
  _symmetry_equiv_pos_as_xyz
  'x, y, z'

loop_
  _atom_site_label
  _atom_site_occupancy
  _atom_site_fract_x
  _atom_site_fract_y
  _atom_site_fract_z
  _atom_site_thermal_displace_type
  _atom_site_B_iso_or_equiv
  _atom_site_type_symbol
  O1       1.0000 0.00000  0.00000  0.00000  Biso   1.000  O
  O2       1.0000 0.66667  0.33333  0.33333  Biso   1.000  O
  O3       1.0000 0.33333  0.66667  0.66667  Biso   1.000  O
  C1       1.0000 0.14620  0.48660  0.91870  Biso   1.000  C
  C2       1.0000 0.51340  0.65960  0.91870  Biso   1.000  C
  C3       1.0000 0.34040  0.85380  0.91870  Biso   1.000  C
  C4       1.0000 0.81287  0.81993  0.25203  Biso   1.000  C
  C5       1.0000 0.18007  0.99293  0.25203  Biso   1.000  C
  C6       1.0000 0.00707  0.18713  0.25203  Biso   1.000  C
  C7       1.0000 0.47953  0.15327  0.58537  Biso   1.000  C
  C8       1.0000 0.84673  0.32627  0.58537  Biso   1.000  C
  C9       1.0000 0.67373  0.52047  0.58537  Biso   1.000  C
  C10      1.0000 0.85380  0.51340  0.08130  Biso   1.000  C
  C11      1.0000 0.48660  0.34040  0.08130  Biso   1.000  C
  C12      1.0000 0.65960  0.14620  0.08130  Biso   1.000  C
  C13      1.0000 0.52047  0.84673  0.41463  Biso   1.000  C
  C14      1.0000 0.15327  0.67373  0.41463  Biso   1.000  C
  C15      1.0000 0.32627  0.47953  0.41463  Biso   1.000  C
  C16      1.0000 0.18713  0.18007  0.74797  Biso   1.000  C
  C17      1.0000 0.81993  0.00707  0.74797  Biso   1.000  C
  C18      1.0000 0.99293  0.81287  0.74797  Biso   1.000  C
  H1       1.0000 0.23780  0.52910  0.92020  Biso   1.000  H
  H2       1.0000 0.47090  0.70870  0.92020  Biso   1.000  H
  H3       1.0000 0.29130  0.76220  0.92020  Biso   1.000  H
  H4       1.0000 0.90447  0.86243  0.25353  Biso   1.000  H
  H5       1.0000 0.13757  0.04203  0.25353  Biso   1.000  H
  H6       1.0000 0.95797  0.09553  0.25353  Biso   1.000  H
  H7       1.0000 0.57113  0.19577  0.58687  Biso   1.000  H
  H8       1.0000 0.80423  0.37537  0.58687  Biso   1.000  H
  H9       1.0000 0.62463  0.42887  0.58687  Biso   1.000  H
  H10      1.0000 0.76220  0.47090  0.07980  Biso   1.000  H
  H11      1.0000 0.52910  0.29130  0.07980  Biso   1.000  H
  H12      1.0000 0.70870  0.23780  0.07980  Biso   1.000  H
  H13      1.0000 0.42887  0.80423  0.41313  Biso   1.000  H
  H14      1.0000 0.19577  0.62463  0.41313  Biso   1.000  H
  H15      1.0000 0.37537  0.57113  0.41313  Biso   1.000  H
  H16      1.0000 0.09553  0.13757  0.74647  Biso   1.000  H
  H17      1.0000 0.86243  0.95797  0.74647  Biso   1.000  H
  H18      1.0000 0.04203  0.90447  0.74647  Biso   1.000  H
  C19      1.0000 0.93370  0.42630  0.95843  Biso   1.000  C
  C20      1.0000 0.57370  0.50740  0.95843  Biso   1.000  C
  C21      1.0000 0.49260  0.06630  0.95843  Biso   1.000  C
  C22      1.0000 0.60037  0.75963  0.29176  Biso   1.000  C
  C23      1.0000 0.24037  0.84073  0.29176  Biso   1.000  C
  C24      1.0000 0.15927  0.39963  0.29176  Biso   1.000  C
  C25      1.0000 0.26703  0.09297  0.62510  Biso   1.000  C
  C26      1.0000 0.90703  0.17407  0.62510  Biso   1.000  C
  C27      1.0000 0.82593  0.73297  0.62510  Biso   1.000  C
  C28      1.0000 0.06630  0.57370  0.04157  Biso   1.000  C
  C29      1.0000 0.42630  0.49260  0.04157  Biso   1.000  C
  C30      1.0000 0.50740  0.93370  0.04157  Biso   1.000  C
  C31      1.0000 0.73297  0.90703  0.37490  Biso   1.000  C
  C32      1.0000 0.09297  0.82593  0.37490  Biso   1.000  C
  C33      1.0000 0.17407  0.26703  0.37490  Biso   1.000  C
  C34      1.0000 0.39963  0.24037  0.70824  Biso   1.000  C
  C35      1.0000 0.75963  0.15927  0.70824  Biso   1.000  C
  C36      1.0000 0.84073  0.60037  0.70824  Biso   1.000  C
  C37      1.0000 0.07440  0.49490  0.96098  Biso   1.000  C
  C38      1.0000 0.50510  0.57950  0.96098  Biso   1.000  C
  C39      1.0000 0.42050  0.92560  0.96098  Biso   1.000  C
  C40      1.0000 0.74107  0.82823  0.29431  Biso   1.000  C
  C41      1.0000 0.17177  0.91283  0.29431  Biso   1.000  C
  C42      1.0000 0.08717  0.25893  0.29431  Biso   1.000  C
  C43      1.0000 0.40773  0.16157  0.62765  Biso   1.000  C
  C44      1.0000 0.83843  0.24617  0.62765  Biso   1.000  C
  C45      1.0000 0.75383  0.59227  0.62765  Biso   1.000  C
  C46      1.0000 0.92560  0.50510  0.03902  Biso   1.000  C
  C47      1.0000 0.49490  0.42050  0.03902  Biso   1.000  C
  C48      1.0000 0.57950  0.07440  0.03902  Biso   1.000  C
  C49      1.0000 0.59227  0.83843  0.37235  Biso   1.000  C
  C50      1.0000 0.16157  0.75383  0.37235  Biso   1.000  C
  C51      1.0000 0.24617  0.40773  0.37235  Biso   1.000  C
  C52      1.0000 0.25893  0.17177  0.70569  Biso   1.000  C
  C53      1.0000 0.82823  0.08717  0.70569  Biso   1.000  C
  C54      1.0000 0.91283  0.74107  0.70569  Biso   1.000  C
  C55      1.0000 0.08320  0.41770  0.87631  Biso   1.000  C
  C56      1.0000 0.58230  0.66550  0.87631  Biso   1.000  C
  C57      1.0000 0.33450  0.91680  0.87631  Biso   1.000  C
  C58      1.0000 0.74987  0.75103  0.20964  Biso   1.000  C
  C59      1.0000 0.24897  0.99883  0.20964  Biso   1.000  C
  C60      1.0000 0.00117  0.25013  0.20964  Biso   1.000  C
  C61      1.0000 0.41653  0.08437  0.54298  Biso   1.000  C
  C62      1.0000 0.91563  0.33217  0.54298  Biso   1.000  C
  C63      1.0000 0.66783  0.58347  0.54298  Biso   1.000  C
  C64      1.0000 0.91680  0.58230  0.12369  Biso   1.000  C
  C65      1.0000 0.41770  0.33450  0.12369  Biso   1.000  C
  C66      1.0000 0.66550  0.08320  0.12369  Biso   1.000  C
  C67      1.0000 0.58347  0.91563  0.45702  Biso   1.000  C
  C68      1.0000 0.08437  0.66783  0.45702  Biso   1.000  C
  C69      1.0000 0.33217  0.41653  0.45702  Biso   1.000  C
  C70      1.0000 0.25013  0.24897  0.79036  Biso   1.000  C
  C71      1.0000 0.75103  0.00117  0.79036  Biso   1.000  C
  C72      1.0000 0.99883  0.74987  0.79036  Biso   1.000  C
  H19      1.0000 0.13190  0.41540  0.84850  Biso   1.000  H
  H20      1.0000 0.58460  0.71650  0.84850  Biso   1.000  H
  H21      1.0000 0.28350  0.86810  0.84850  Biso   1.000  H
  H22      1.0000 0.79857  0.74873  0.18183  Biso   1.000  H
  H23      1.0000 0.25127  0.04983  0.18183  Biso   1.000  H
  H24      1.0000 0.95017  0.20143  0.18183  Biso   1.000  H
  H25      1.0000 0.46523  0.08207  0.51517  Biso   1.000  H
  H26      1.0000 0.91793  0.38317  0.51517  Biso   1.000  H
  H27      1.0000 0.61683  0.53477  0.51517  Biso   1.000  H
  H28      1.0000 0.86810  0.58460  0.15150  Biso   1.000  H
  H29      1.0000 0.41540  0.28350  0.15150  Biso   1.000  H
  H30      1.0000 0.71650  0.13190  0.15150  Biso   1.000  H
  H31      1.0000 0.53477  0.91793  0.48483  Biso   1.000  H
  H32      1.0000 0.08207  0.61683  0.48483  Biso   1.000  H
  H33      1.0000 0.38317  0.46523  0.48483  Biso   1.000  H
  H34      1.0000 0.20143  0.25127  0.81817  Biso   1.000  H
  H35      1.0000 0.74873  0.95017  0.81817  Biso   1.000  H
  H36      1.0000 0.04983  0.79857  0.81817  Biso   1.000  H
  C73      1.0000 0.87090  0.35180  0.91352  Biso   1.000  C
  C74      1.0000 0.64820  0.51910  0.91352  Biso   1.000  C
  C75      1.0000 0.48090  0.12910  0.91352  Biso   1.000  C
  C76      1.0000 0.53757  0.68513  0.24685  Biso   1.000  C
  C77      1.0000 0.31487  0.85243  0.24685  Biso   1.000  C
  C78      1.0000 0.14757  0.46243  0.24685  Biso   1.000  C
  C79      1.0000 0.20423  0.01847  0.58019  Biso   1.000  C
  C80      1.0000 0.98153  0.18577  0.58019  Biso   1.000  C
  C81      1.0000 0.81423  0.79577  0.58019  Biso   1.000  C
  C82      1.0000 0.12910  0.64820  0.08648  Biso   1.000  C
  C83      1.0000 0.35180  0.48090  0.08648  Biso   1.000  C
  C84      1.0000 0.51910  0.87090  0.08648  Biso   1.000  C
  C85      1.0000 0.79577  0.98153  0.41981  Biso   1.000  C
  C86      1.0000 0.01847  0.81423  0.41981  Biso   1.000  C
  C87      1.0000 0.18577  0.20423  0.41981  Biso   1.000  C
  C88      1.0000 0.46243  0.31487  0.75315  Biso   1.000  C
  C89      1.0000 0.68513  0.14757  0.75315  Biso   1.000  C
  C90      1.0000 0.85243  0.53757  0.75315  Biso   1.000  C
  H37      1.0000 0.77930  0.30480  0.91160  Biso   1.000  H
  H38      1.0000 0.69520  0.47450  0.91160  Biso   1.000  H
  H39      1.0000 0.52550  0.22070  0.91160  Biso   1.000  H
  H40      1.0000 0.44597  0.63813  0.24493  Biso   1.000  H
  H41      1.0000 0.36187  0.80783  0.24493  Biso   1.000  H
  H42      1.0000 0.19217  0.55403  0.24493  Biso   1.000  H
  H43      1.0000 0.11263  0.97147  0.57827  Biso   1.000  H
  H44      1.0000 0.02853  0.14117  0.57827  Biso   1.000  H
  H45      1.0000 0.85883  0.88737  0.57827  Biso   1.000  H
  H46      1.0000 0.22070  0.69520  0.08840  Biso   1.000  H
  H47      1.0000 0.30480  0.52550  0.08840  Biso   1.000  H
  H48      1.0000 0.47450  0.77930  0.08840  Biso   1.000  H
  H49      1.0000 0.88737  0.02853  0.42173  Biso   1.000  H
  H50      1.0000 0.97147  0.85883  0.42173  Biso   1.000  H
  H51      1.0000 0.14117  0.11263  0.42173  Biso   1.000  H
  H52      1.0000 0.55403  0.36187  0.75507  Biso   1.000  H
  H53      1.0000 0.63813  0.19217  0.75507  Biso   1.000  H
  H54      1.0000 0.80783  0.44597  0.75507  Biso   1.000  H
  Mo1      1.0000 0.83534  0.84100  0.05116  Biso   1.000  Mo
  Mo2      1.0000 0.15900  0.99434  0.05116  Biso   1.000  Mo
  Mo3      1.0000 0.00566  0.16466  0.05116  Biso   1.000  Mo
  Mo4      1.0000 0.50201  0.17433  0.38450  Biso   1.000  Mo
  Mo5      1.0000 0.82567  0.32767  0.38450  Biso   1.000  Mo
  Mo6      1.0000 0.67233  0.49799  0.38450  Biso   1.000  Mo
  Mo7      1.0000 0.16867  0.50767  0.71783  Biso   1.000  Mo
  Mo8      1.0000 0.49233  0.66101  0.71783  Biso   1.000  Mo
  Mo9      1.0000 0.33899  0.83133  0.71783  Biso   1.000  Mo
  Mo10     1.0000 0.16466  0.15900  0.94884  Biso   1.000  Mo
  Mo11     1.0000 0.84100  0.00566  0.94884  Biso   1.000  Mo
  Mo12     1.0000 0.99434  0.83534  0.94884  Biso   1.000  Mo
  Mo13     1.0000 0.83133  0.49233  0.28217  Biso   1.000  Mo
  Mo14     1.0000 0.50767  0.33899  0.28217  Biso   1.000  Mo
  Mo15     1.0000 0.66101  0.16867  0.28217  Biso   1.000  Mo
  Mo16     1.0000 0.49799  0.82567  0.61550  Biso   1.000  Mo
  Mo17     1.0000 0.17433  0.67233  0.61550  Biso   1.000  Mo
  Mo18     1.0000 0.32767  0.50201  0.61550  Biso   1.000  Mo
  O4       1.0000 0.73890  0.87750  0.00021  Biso   1.000  O
  O5       1.0000 0.12250  0.86140  0.00021  Biso   1.000  O
  O6       1.0000 0.13860  0.26110  0.00021  Biso   1.000  O
  O7       1.0000 0.40557  0.21083  0.33354  Biso   1.000  O
  O8       1.0000 0.78917  0.19473  0.33354  Biso   1.000  O
  O9       1.0000 0.80527  0.59443  0.33354  Biso   1.000  O
  O10      1.0000 0.07223  0.54417  0.66688  Biso   1.000  O
  O11      1.0000 0.45583  0.52807  0.66688  Biso   1.000  O
  O12      1.0000 0.47193  0.92777  0.66688  Biso   1.000  O
  O13      1.0000 0.26110  0.12250  0.99979  Biso   1.000  O
  O14      1.0000 0.87750  0.13860  0.99979  Biso   1.000  O
  O15      1.0000 0.86140  0.73890  0.99979  Biso   1.000  O
  O16      1.0000 0.92777  0.45583  0.33312  Biso   1.000  O
  O17      1.0000 0.54417  0.47193  0.33312  Biso   1.000  O
  O18      1.0000 0.52807  0.07223  0.33312  Biso   1.000  O
  O19      1.0000 0.59443  0.78917  0.66646  Biso   1.000  O
  O20      1.0000 0.21083  0.80527  0.66646  Biso   1.000  O
  O21      1.0000 0.19473  0.40557  0.66646  Biso   1.000  O
  O22      1.0000 0.87260  0.00530  0.08300  Biso   1.000  O
  O23      1.0000 0.99470  0.86730  0.08300  Biso   1.000  O
  O24      1.0000 0.13270  0.12740  0.08300  Biso   1.000  O
  O25      1.0000 0.53927  0.33863  0.41633  Biso   1.000  O
  O26      1.0000 0.66137  0.20063  0.41633  Biso   1.000  O
  O27      1.0000 0.79937  0.46073  0.41633  Biso   1.000  O
  O28      1.0000 0.20593  0.67197  0.74967  Biso   1.000  O
  O29      1.0000 0.32803  0.53397  0.74967  Biso   1.000  O
  O30      1.0000 0.46603  0.79407  0.74967  Biso   1.000  O
  O31      1.0000 0.12740  0.99470  0.91700  Biso   1.000  O
  O32      1.0000 0.00530  0.13270  0.91700  Biso   1.000  O
  O33      1.0000 0.86730  0.87260  0.91700  Biso   1.000  O
  O34      1.0000 0.79407  0.32803  0.25033  Biso   1.000  O
  O35      1.0000 0.67197  0.46603  0.25033  Biso   1.000  O
  O36      1.0000 0.53397  0.20593  0.25033  Biso   1.000  O
  O37      1.0000 0.46073  0.66137  0.58367  Biso   1.000  O
  O38      1.0000 0.33863  0.79937  0.58367  Biso   1.000  O
  O39      1.0000 0.20063  0.53927  0.58367  Biso   1.000  O
  O40      1.0000 0.71410  0.72400  0.08748  Biso   1.000  O
  O41      1.0000 0.27600  0.99010  0.08748  Biso   1.000  O
  O42      1.0000 0.00990  0.28590  0.08748  Biso   1.000  O
  O43      1.0000 0.38077  0.05733  0.42081  Biso   1.000  O
  O44      1.0000 0.94267  0.32343  0.42081  Biso   1.000  O
  O45      1.0000 0.67657  0.61923  0.42081  Biso   1.000  O
  O46      1.0000 0.04743  0.39067  0.75415  Biso   1.000  O
  O47      1.0000 0.60933  0.65677  0.75415  Biso   1.000  O
  O48      1.0000 0.34323  0.95257  0.75415  Biso   1.000  O
  O49      1.0000 0.28590  0.27600  0.91252  Biso   1.000  O
  O50      1.0000 0.72400  0.00990  0.91252  Biso   1.000  O
  O51      1.0000 0.99010  0.71410  0.91252  Biso   1.000  O
  O52      1.0000 0.95257  0.60933  0.24585  Biso   1.000  O
  O53      1.0000 0.39067  0.34323  0.24585  Biso   1.000  O
  O54      1.0000 0.65677  0.04743  0.24585  Biso   1.000  O
  O55      1.0000 0.61923  0.94267  0.57919  Biso   1.000  O
  O56      1.0000 0.05733  0.67657  0.57919  Biso   1.000  O
  O57      1.0000 0.32343  0.38077  0.57919  Biso   1.000  O
  Cu1      1.0000 0.33330  0.66670  0.00440  Biso   1.000  Cu
  Cu2      1.0000 0.99997  0.00003  0.33773  Biso   1.000  Cu
  Cu3      1.0000 0.66663  0.33337  0.67107  Biso   1.000  Cu
  Cu4      1.0000 0.66670  0.33330  0.99560  Biso   1.000  Cu
  Cu5      1.0000 0.33337  0.66663  0.32893  Biso   1.000  Cu
  Cu6      1.0000 0.00003  0.99997  0.66227  Biso   1.000  Cu
  N1       1.0000 0.13870  0.56800  0.00253  Biso   1.000  N
  N2       1.0000 0.43200  0.57070  0.00253  Biso   1.000  N
  N3       1.0000 0.42930  0.86130  0.00253  Biso   1.000  N
  N4       1.0000 0.80537  0.90133  0.33586  Biso   1.000  N
  N5       1.0000 0.09867  0.90403  0.33586  Biso   1.000  N
  N6       1.0000 0.09597  0.19463  0.33586  Biso   1.000  N
  N7       1.0000 0.47203  0.23467  0.66920  Biso   1.000  N
  N8       1.0000 0.76533  0.23737  0.66920  Biso   1.000  N
  N9       1.0000 0.76263  0.52797  0.66920  Biso   1.000  N
  N10      1.0000 0.86130  0.43200  0.99747  Biso   1.000  N
  N11      1.0000 0.56800  0.42930  0.99747  Biso   1.000  N
  N12      1.0000 0.57070  0.13870  0.99747  Biso   1.000  N
  N13      1.0000 0.52797  0.76533  0.33080  Biso   1.000  N
  N14      1.0000 0.23467  0.76263  0.33080  Biso   1.000  N
  N15      1.0000 0.23737  0.47203  0.33080  Biso   1.000  N
  N16      1.0000 0.19463  0.09867  0.66414  Biso   1.000  N
  N17      1.0000 0.90133  0.09597  0.66414  Biso   1.000  N
  N18      1.0000 0.90403  0.80537  0.66414  Biso   1.000  N
  C91      1.0000 0.94340  0.34870  0.87369  Biso   1.000  C
  C92      1.0000 0.65130  0.59470  0.87369  Biso   1.000  C
  C93      1.0000 0.40530  0.05660  0.87369  Biso   1.000  C
  C94      1.0000 0.61007  0.68203  0.20702  Biso   1.000  C
  C95      1.0000 0.31797  0.92803  0.20702  Biso   1.000  C
  C96      1.0000 0.07197  0.38993  0.20702  Biso   1.000  C
  C97      1.0000 0.27673  0.01537  0.54036  Biso   1.000  C
  C98      1.0000 0.98463  0.26137  0.54036  Biso   1.000  C
  C99      1.0000 0.73863  0.72327  0.54036  Biso   1.000  C
  C100     1.0000 0.05660  0.65130  0.12631  Biso   1.000  C
  C101     1.0000 0.34870  0.40530  0.12631  Biso   1.000  C
  C102     1.0000 0.59470  0.94340  0.12631  Biso   1.000  C
  C103     1.0000 0.72327  0.98463  0.45964  Biso   1.000  C
  C104     1.0000 0.01537  0.73863  0.45964  Biso   1.000  C
  C105     1.0000 0.26137  0.27673  0.45964  Biso   1.000  C
  C106     1.0000 0.38993  0.31797  0.79298  Biso   1.000  C
  C107     1.0000 0.68203  0.07197  0.79298  Biso   1.000  C
  C108     1.0000 0.92803  0.61007  0.79298  Biso   1.000  C
  H55      1.0000 0.90120  0.30090  0.84430  Biso   1.000  H
  H56      1.0000 0.69910  0.60030  0.84430  Biso   1.000  H
  H57      1.0000 0.39970  0.09880  0.84430  Biso   1.000  H
  H58      1.0000 0.56787  0.63423  0.17763  Biso   1.000  H
  H59      1.0000 0.36577  0.93363  0.17763  Biso   1.000  H
  H60      1.0000 0.06637  0.43213  0.17763  Biso   1.000  H
  H61      1.0000 0.23453  0.96757  0.51097  Biso   1.000  H
  H62      1.0000 0.03243  0.26697  0.51097  Biso   1.000  H
  H63      1.0000 0.73303  0.76547  0.51097  Biso   1.000  H
  H64      1.0000 0.09880  0.69910  0.15570  Biso   1.000  H
  H65      1.0000 0.30090  0.39970  0.15570  Biso   1.000  H
  H66      1.0000 0.60030  0.90120  0.15570  Biso   1.000  H
  H67      1.0000 0.76547  0.03243  0.48903  Biso   1.000  H
  H68      1.0000 0.96757  0.73303  0.48903  Biso   1.000  H
  H69      1.0000 0.26697  0.23453  0.48903  Biso   1.000  H
  H70      1.0000 0.43213  0.36577  0.82237  Biso   1.000  H
  H71      1.0000 0.63423  0.06637  0.82237  Biso   1.000  H
  H72      1.0000 0.93363  0.56787  0.82237  Biso   1.000  H
