data_image0
_cell_length_a       7.173
_cell_length_b       13.12
_cell_length_c       13.152
_cell_angle_alpha    92.69
_cell_angle_beta     94.45
_cell_angle_gamma    103.81

_symmetry_space_group_name_H-M    "P 1"
_symmetry_int_tables_number       1

loop_
  _symmetry_equiv_pos_as_xyz
  'x, y, z'

loop_
  _atom_site_label
  _atom_site_occupancy
  _atom_site_fract_x
  _atom_site_fract_y
  _atom_site_fract_z
  _atom_site_thermal_displace_type
  _atom_site_B_iso_or_equiv
  _atom_site_type_symbol
  C1       1.0000 0.23350  0.40760  0.58830  Biso   1.000  C
  C2       1.0000 0.76650  0.59240  0.41170  Biso   1.000  C
  C3       1.0000 0.41000  0.44520  0.65960  Biso   1.000  C
  C4       1.0000 0.59000  0.55480  0.34040  Biso   1.000  C
  C5       1.0000 0.55980  0.38260  0.64140  Biso   1.000  C
  C6       1.0000 0.44020  0.61740  0.35860  Biso   1.000  C
  C7       1.0000 0.71080  0.38880  0.72790  Biso   1.000  C
  C8       1.0000 0.28920  0.61120  0.27210  Biso   1.000  C
  C9       1.0000 0.82250  0.50060  0.75590  Biso   1.000  C
  C10      1.0000 0.17750  0.49940  0.24410  Biso   1.000  C
  C11      1.0000 0.99860  0.51370  0.83010  Biso   1.000  C
  C12      1.0000 0.00140  0.48630  0.16990  Biso   1.000  C
  C13      1.0000 0.09950  0.62820  0.85150  Biso   1.000  C
  C14      1.0000 0.90050  0.37180  0.14850  Biso   1.000  C
  C15      1.0000 0.28710  0.65040  0.91180  Biso   1.000  C
  C16      1.0000 0.71290  0.34960  0.08820  Biso   1.000  C
  O1       1.0000 0.36730  0.75060  0.93640  Biso   1.000  O
  O2       1.0000 0.63270  0.24940  0.06360  Biso   1.000  O
  O3       1.0000 0.37410  0.58560  0.94190  Biso   1.000  O
  O4       1.0000 0.62590  0.41440  0.05810  Biso   1.000  O
  S1       1.0000 0.81270  0.04580  0.41950  Biso   1.000  S
  S2       1.0000 0.18730  0.95420  0.58050  Biso   1.000  S
  S3       1.0000 0.52840  0.05040  0.38210  Biso   1.000  S
  S4       1.0000 0.47160  0.94960  0.61790  Biso   1.000  S
  C17      1.0000 0.84250  0.99890  0.29170  Biso   1.000  C
  C18      1.0000 0.15750  0.00110  0.70830  Biso   1.000  C
  C19      1.0000 0.73740  0.05520  0.21740  Biso   1.000  C
  C20      1.0000 0.26260  0.94480  0.78260  Biso   1.000  C
  C21      1.0000 0.55320  0.06810  0.25440  Biso   1.000  C
  C22      1.0000 0.44680  0.93190  0.74560  Biso   1.000  C
  C23      1.0000 0.38840  0.03420  0.17160  Biso   1.000  C
  C24      1.0000 0.61160  0.96580  0.82840  Biso   1.000  C
  C25      1.0000 0.28690  0.91950  0.16500  Biso   1.000  C
  C26      1.0000 0.71310  0.08050  0.83500  Biso   1.000  C
  C27      1.0000 0.10280  0.89030  0.08770  Biso   1.000  C
  C28      1.0000 0.89720  0.10970  0.91230  Biso   1.000  C
  C29      1.0000 0.99650  0.78400  0.10990  Biso   1.000  C
  C30      1.0000 0.00350  0.21600  0.89010  Biso   1.000  C
  C31      1.0000 0.80100  0.74850  0.05660  Biso   1.000  C
  C32      1.0000 0.19900  0.25150  0.94340  Biso   1.000  C
  Cu1      1.0000 0.49340  0.21600  0.43540  Biso   1.000  Cu
  Cu2      1.0000 0.50660  0.78400  0.56460  Biso   1.000  Cu
  Cu3      1.0000 0.99530  0.21570  0.43600  Biso   1.000  Cu
  Cu4      1.0000 0.00470  0.78430  0.56400  Biso   1.000  Cu
  Cl1      1.0000 0.79350  0.32850  0.41780  Biso   1.000  Cl
  Cl2      1.0000 0.20650  0.67150  0.58220  Biso   1.000  Cl
  Cl3      1.0000 0.24070  0.24210  0.32830  Biso   1.000  Cl
  Cl4      1.0000 0.75930  0.75790  0.67170  Biso   1.000  Cl
  S5       1.0000 0.15100  0.26730  0.59790  Biso   1.000  S
  S6       1.0000 0.84900  0.73270  0.40210  Biso   1.000  S
  S7       1.0000 0.43090  0.24420  0.60280  Biso   1.000  S
  S8       1.0000 0.56910  0.75580  0.39720  Biso   1.000  S
  O5       1.0000 0.68720  0.65760  0.07490  Biso   1.000  O
  O6       1.0000 0.31280  0.34240  0.92510  Biso   1.000  O
  O7       1.0000 0.72430  0.81240  0.01460  Biso   1.000  O
  O8       1.0000 0.27570  0.18760  0.98540  Biso   1.000  O
  H1       1.0000 0.26190  0.42270  0.51890  Biso   1.000  H
  H2       1.0000 0.73810  0.57730  0.48110  Biso   1.000  H
  H3       1.0000 0.13480  0.44260  0.60660  Biso   1.000  H
  H4       1.0000 0.86520  0.55740  0.39340  Biso   1.000  H
  H5       1.0000 0.37600  0.43900  0.72940  Biso   1.000  H
  H6       1.0000 0.62400  0.56100  0.27060  Biso   1.000  H
  H7       1.0000 0.46520  0.51900  0.65090  Biso   1.000  H
  H8       1.0000 0.53480  0.48100  0.34910  Biso   1.000  H
  H9       1.0000 0.62650  0.41110  0.58280  Biso   1.000  H
  H10      1.0000 0.37350  0.58890  0.41720  Biso   1.000  H
  H11      1.0000 0.79890  0.34700  0.70890  Biso   1.000  H
  H12      1.0000 0.20110  0.65300  0.29110  Biso   1.000  H
  H13      1.0000 0.65000  0.35960  0.78700  Biso   1.000  H
  H14      1.0000 0.35000  0.64040  0.21300  Biso   1.000  H
  H15      1.0000 0.86200  0.53300  0.69370  Biso   1.000  H
  H16      1.0000 0.13800  0.46700  0.30630  Biso   1.000  H
  H17      1.0000 0.73670  0.53880  0.78500  Biso   1.000  H
  H18      1.0000 0.26330  0.46120  0.21500  Biso   1.000  H
  H19      1.0000 0.96110  0.48340  0.89350  Biso   1.000  H
  H20      1.0000 0.03890  0.51660  0.10650  Biso   1.000  H
  H21      1.0000 0.08640  0.47640  0.80190  Biso   1.000  H
  H22      1.0000 0.91360  0.52360  0.19810  Biso   1.000  H
  H23      1.0000 0.11760  0.65980  0.78660  Biso   1.000  H
  H24      1.0000 0.88240  0.34020  0.21340  Biso   1.000  H
  H25      1.0000 0.01540  0.66260  0.88710  Biso   1.000  H
  H26      1.0000 0.98460  0.33740  0.11290  Biso   1.000  H
  H27      1.0000 0.38700  0.76030  0.99880  Biso   1.000  H
  H28      1.0000 0.61300  0.23970  0.00120  Biso   1.000  H
  H29      1.0000 0.97830  0.01380  0.28070  Biso   1.000  H
  H30      1.0000 0.02170  0.98620  0.71930  Biso   1.000  H
  H31      1.0000 0.78930  0.92350  0.28210  Biso   1.000  H
  H32      1.0000 0.21070  0.07650  0.71790  Biso   1.000  H
  H33      1.0000 0.81920  0.12380  0.20800  Biso   1.000  H
  H34      1.0000 0.18080  0.87620  0.79200  Biso   1.000  H
  H35      1.0000 0.71080  0.01540  0.15160  Biso   1.000  H
  H36      1.0000 0.28920  0.98460  0.84840  Biso   1.000  H
  H37      1.0000 0.57400  0.14470  0.25470  Biso   1.000  H
  H38      1.0000 0.42600  0.85530  0.74530  Biso   1.000  H
  H39      1.0000 0.29460  0.07500  0.18290  Biso   1.000  H
  H40      1.0000 0.70540  0.92500  0.81710  Biso   1.000  H
  H41      1.0000 0.43760  0.05140  0.10630  Biso   1.000  H
  H42      1.0000 0.56240  0.94860  0.89370  Biso   1.000  H
  H43      1.0000 0.25060  0.90000  0.23230  Biso   1.000  H
  H44      1.0000 0.74940  0.10000  0.76770  Biso   1.000  H
  H45      1.0000 0.37600  0.87870  0.14500  Biso   1.000  H
  H46      1.0000 0.62400  0.12130  0.85500  Biso   1.000  H
  H47      1.0000 0.02420  0.94020  0.09660  Biso   1.000  H
  H48      1.0000 0.97580  0.05980  0.90340  Biso   1.000  H
  H49      1.0000 0.13810  0.89050  0.01800  Biso   1.000  H
  H50      1.0000 0.86190  0.10950  0.98200  Biso   1.000  H
  H51      1.0000 0.98630  0.78260  0.18300  Biso   1.000  H
  H52      1.0000 0.01370  0.21740  0.81700  Biso   1.000  H
  H53      1.0000 0.07090  0.73430  0.09130  Biso   1.000  H
  H54      1.0000 0.92910  0.26570  0.90870  Biso   1.000  H
  H55      1.0000 0.74800  0.61190  0.07400  Biso   1.000  H
  H56      1.0000 0.25200  0.38810  0.92600  Biso   1.000  H
  O9       1.0000 0.42180  0.66240  0.84390  Biso   1.000  O
  O10      1.0000 0.57820  0.33760  0.15610  Biso   1.000  O
  O11      1.0000 0.32800  0.65240  0.00210  Biso   1.000  O
  O12      1.0000 0.67200  0.34760  0.99790  Biso   1.000  O
  C33      1.0000 0.69230  0.99490  0.20670  Biso   1.000  C
  C34      1.0000 0.30770  0.00510  0.79330  Biso   1.000  C
  C35      1.0000 0.52680  0.04110  0.23190  Biso   1.000  C
  C36      1.0000 0.47320  0.95890  0.76810  Biso   1.000  C
  C37      1.0000 0.34450  0.95190  0.20650  Biso   1.000  C
  C38      1.0000 0.65550  0.04810  0.79350  Biso   1.000  C
  C39      1.0000 0.30760  0.94880  0.09190  Biso   1.000  C
  C40      1.0000 0.69240  0.05120  0.90810  Biso   1.000  C
  O13      1.0000 0.74420  0.64670  0.02480  Biso   1.000  O
  O14      1.0000 0.25580  0.35330  0.97520  Biso   1.000  O
  O15      1.0000 0.67370  0.79310  0.06970  Biso   1.000  O
  O16      1.0000 0.32630  0.20690  0.93030  Biso   1.000  O
  H57      1.0000 0.44800  0.72400  0.82800  Biso   1.000  H
  H58      1.0000 0.55200  0.27600  0.17200  Biso   1.000  H
  H59      1.0000 0.64050  0.92190  0.18210  Biso   1.000  H
  H60      1.0000 0.35950  0.07810  0.81790  Biso   1.000  H
  H61      1.0000 0.75310  0.03170  0.15110  Biso   1.000  H
  H62      1.0000 0.24690  0.96830  0.84890  Biso   1.000  H
  H63      1.0000 0.52360  0.10660  0.19980  Biso   1.000  H
  H64      1.0000 0.47640  0.89340  0.80020  Biso   1.000  H
  H65      1.0000 0.36550  0.88550  0.22800  Biso   1.000  H
  H66      1.0000 0.63450  0.11450  0.77200  Biso   1.000  H
  H67      1.0000 0.23680  0.96690  0.23960  Biso   1.000  H
  H68      1.0000 0.76320  0.03310  0.76040  Biso   1.000  H
  H69      1.0000 0.32330  0.01830  0.06660  Biso   1.000  H
  H70      1.0000 0.67670  0.98170  0.93340  Biso   1.000  H
  H71      1.0000 0.38590  0.91010  0.05670  Biso   1.000  H
  H72      1.0000 0.61410  0.08990  0.94330  Biso   1.000  H
  H73      1.0000 0.74700  0.64040  0.96260  Biso   1.000  H
  H74      1.0000 0.25300  0.35960  0.03740  Biso   1.000  H
