data_image0
_cell_length_a       16.13
_cell_length_b       9.821
_cell_length_c       17.719
_cell_angle_alpha    90
_cell_angle_beta     116.54
_cell_angle_gamma    90

_symmetry_space_group_name_H-M    "P 1"
_symmetry_int_tables_number       1

loop_
  _symmetry_equiv_pos_as_xyz
  'x, y, z'

loop_
  _atom_site_label
  _atom_site_occupancy
  _atom_site_fract_x
  _atom_site_fract_y
  _atom_site_fract_z
  _atom_site_thermal_displace_type
  _atom_site_B_iso_or_equiv
  _atom_site_type_symbol
  C1       1.0000 0.27100  0.31000  0.75900  Biso   1.000  C
  C2       1.0000 0.72900  0.81000  0.74100  Biso   1.000  C
  C3       1.0000 0.72900  0.69000  0.24100  Biso   1.000  C
  C4       1.0000 0.27100  0.19000  0.25900  Biso   1.000  C
  C5       1.0000 0.23900  0.36000  0.67100  Biso   1.000  C
  C6       1.0000 0.76100  0.86000  0.82900  Biso   1.000  C
  C7       1.0000 0.76100  0.64000  0.32900  Biso   1.000  C
  C8       1.0000 0.23900  0.14000  0.17100  Biso   1.000  C
  C9       1.0000 0.22200  0.25000  0.61300  Biso   1.000  C
  C10      1.0000 0.77800  0.75000  0.88700  Biso   1.000  C
  C11      1.0000 0.77800  0.75000  0.38700  Biso   1.000  C
  C12      1.0000 0.22200  0.25000  0.11300  Biso   1.000  C
  C13      1.0000 0.17900  0.29000  0.52100  Biso   1.000  C
  C14      1.0000 0.82100  0.79000  0.97900  Biso   1.000  C
  C15      1.0000 0.82100  0.71000  0.47900  Biso   1.000  C
  C16      1.0000 0.17900  0.21000  0.02100  Biso   1.000  C
  C17      1.0000 0.14800  0.17000  0.45900  Biso   1.000  C
  C18      1.0000 0.85200  0.67000  0.04100  Biso   1.000  C
  C19      1.0000 0.85200  0.83000  0.54100  Biso   1.000  C
  C20      1.0000 0.14800  0.33000  0.95900  Biso   1.000  C
  C21      1.0000 0.09900  0.23000  0.37000  Biso   1.000  C
  C22      1.0000 0.90100  0.73000  0.13000  Biso   1.000  C
  C23      1.0000 0.90100  0.77000  0.63000  Biso   1.000  C
  C24      1.0000 0.09900  0.27000  0.87000  Biso   1.000  C
  C25      1.0000 0.07300  0.11000  0.31300  Biso   1.000  C
  C26      1.0000 0.92700  0.61000  0.18700  Biso   1.000  C
  C27      1.0000 0.92700  0.89000  0.68700  Biso   1.000  C
  C28      1.0000 0.07300  0.39000  0.81300  Biso   1.000  C
  C29      1.0000 0.02700  0.16000  0.22300  Biso   1.000  C
  C30      1.0000 0.97300  0.66000  0.27700  Biso   1.000  C
  C31      1.0000 0.97300  0.84000  0.77700  Biso   1.000  C
  C32      1.0000 0.02700  0.34000  0.72300  Biso   1.000  C
  O1       1.0000 0.99500  0.06500  0.16200  Biso   1.000  O
  O2       1.0000 0.00500  0.56500  0.33800  Biso   1.000  O
  O3       1.0000 0.00500  0.93500  0.83800  Biso   1.000  O
  O4       1.0000 0.99500  0.43500  0.66200  Biso   1.000  O
  O5       1.0000 0.03300  0.27800  0.20400  Biso   1.000  O
  O6       1.0000 0.96700  0.77800  0.29600  Biso   1.000  O
  O7       1.0000 0.96700  0.72200  0.79600  Biso   1.000  O
  O8       1.0000 0.03300  0.22200  0.70400  Biso   1.000  O
  S1       1.0000 0.62400  0.22400  0.91800  Biso   1.000  S
  S2       1.0000 0.37600  0.72400  0.58200  Biso   1.000  S
  S3       1.0000 0.37600  0.77600  0.08200  Biso   1.000  S
  S4       1.0000 0.62400  0.27600  0.41800  Biso   1.000  S
  S5       1.0000 0.68900  0.35400  0.01900  Biso   1.000  S
  S6       1.0000 0.31100  0.85400  0.48100  Biso   1.000  S
  S7       1.0000 0.31100  0.64600  0.98100  Biso   1.000  S
  S8       1.0000 0.68900  0.14600  0.51900  Biso   1.000  S
  C33      1.0000 0.59700  0.09000  0.97500  Biso   1.000  C
  C34      1.0000 0.40300  0.59000  0.52500  Biso   1.000  C
  C35      1.0000 0.40300  0.91000  0.02500  Biso   1.000  C
  C36      1.0000 0.59700  0.41000  0.47500  Biso   1.000  C
  C37      1.0000 0.66900  0.10000  0.06700  Biso   1.000  C
  C38      1.0000 0.33100  0.60000  0.43300  Biso   1.000  C
  C39      1.0000 0.33100  0.90000  0.93300  Biso   1.000  C
  C40      1.0000 0.66900  0.40000  0.56700  Biso   1.000  C
  C41      1.0000 0.70700  0.24000  0.09900  Biso   1.000  C
  C42      1.0000 0.29300  0.74000  0.40100  Biso   1.000  C
  C43      1.0000 0.29300  0.76000  0.90100  Biso   1.000  C
  C44      1.0000 0.70700  0.26000  0.59900  Biso   1.000  C
  C45      1.0000 0.77600  0.28000  0.18700  Biso   1.000  C
  C46      1.0000 0.22400  0.78000  0.31300  Biso   1.000  C
  C47      1.0000 0.22400  0.72000  0.81300  Biso   1.000  C
  C48      1.0000 0.77600  0.22000  0.68700  Biso   1.000  C
  C49      1.0000 0.78600  0.18000  0.25700  Biso   1.000  C
  C50      1.0000 0.21400  0.68000  0.24300  Biso   1.000  C
  C51      1.0000 0.21400  0.82000  0.74300  Biso   1.000  C
  C52      1.0000 0.78600  0.32000  0.75700  Biso   1.000  C
  C53      1.0000 0.83800  0.26000  0.33500  Biso   1.000  C
  C54      1.0000 0.16200  0.76000  0.16500  Biso   1.000  C
  C55      1.0000 0.16200  0.74000  0.66500  Biso   1.000  C
  C56      1.0000 0.83800  0.24000  0.83500  Biso   1.000  C
  C57      1.0000 0.86300  0.16000  0.40600  Biso   1.000  C
  C58      1.0000 0.13700  0.66000  0.09400  Biso   1.000  C
  C59      1.0000 0.13700  0.84000  0.59400  Biso   1.000  C
  C60      1.0000 0.86300  0.34000  0.90600  Biso   1.000  C
  C61      1.0000 0.91700  0.21000  0.49600  Biso   1.000  C
  C62      1.0000 0.08300  0.71000  0.00400  Biso   1.000  C
  C63      1.0000 0.08300  0.79000  0.50400  Biso   1.000  C
  C64      1.0000 0.91700  0.29000  0.99600  Biso   1.000  C
  O9       1.0000 0.95900  0.12100  0.55000  Biso   1.000  O
  O10      1.0000 0.04100  0.62100  0.95000  Biso   1.000  O
  O11      1.0000 0.04100  0.87900  0.45000  Biso   1.000  O
  O12      1.0000 0.95900  0.37900  0.05000  Biso   1.000  O
  O13      1.0000 0.91300  0.32600  0.50400  Biso   1.000  O
  O14      1.0000 0.08700  0.82600  0.99600  Biso   1.000  O
  O15      1.0000 0.08700  0.67400  0.49600  Biso   1.000  O
  O16      1.0000 0.91300  0.17400  0.00400  Biso   1.000  O
  Cu1      1.0000 0.49300  0.31500  0.81770  Biso   1.000  Cu
  Cu2      1.0000 0.50700  0.81500  0.68230  Biso   1.000  Cu
  Cu3      1.0000 0.50700  0.68500  0.18230  Biso   1.000  Cu
  Cu4      1.0000 0.49300  0.18500  0.31770  Biso   1.000  Cu
  Cu5      1.0000 0.59490  0.51600  0.01720  Biso   1.000  Cu
  Cu6      1.0000 0.40510  0.01600  0.48280  Biso   1.000  Cu
  Cu7      1.0000 0.40510  0.48400  0.98280  Biso   1.000  Cu
  Cu8      1.0000 0.59490  0.98400  0.51720  Biso   1.000  Cu
  Cu9      1.0000 0.42770  0.22100  0.61350  Biso   1.000  Cu
  Cu10     1.0000 0.57230  0.72100  0.88650  Biso   1.000  Cu
  Cu11     1.0000 0.57230  0.77900  0.38650  Biso   1.000  Cu
  Cu12     1.0000 0.42770  0.27900  0.11350  Biso   1.000  Cu
  Cl1      1.0000 0.51600  0.38300  0.70500  Biso   1.000  Cl
  Cl2      1.0000 0.48400  0.88300  0.79500  Biso   1.000  Cl
  Cl3      1.0000 0.48400  0.61700  0.29500  Biso   1.000  Cl
  Cl4      1.0000 0.51600  0.11700  0.20500  Biso   1.000  Cl
  Cl5      1.0000 0.46100  0.52100  0.87500  Biso   1.000  Cl
  Cl6      1.0000 0.53900  0.02100  0.62500  Biso   1.000  Cl
  Cl7      1.0000 0.53900  0.47900  0.12500  Biso   1.000  Cl
  Cl8      1.0000 0.46100  0.97900  0.37500  Biso   1.000  Cl
  Cl9      1.0000 0.62100  0.74600  0.03000  Biso   1.000  Cl
  Cl10     1.0000 0.37900  0.24600  0.47000  Biso   1.000  Cl
  Cl11     1.0000 0.37900  0.25400  0.97000  Biso   1.000  Cl
  Cl12     1.0000 0.62100  0.75400  0.53000  Biso   1.000  Cl
  S9       1.0000 0.36400  0.18500  0.77700  Biso   1.000  S
  S10      1.0000 0.63600  0.68500  0.72300  Biso   1.000  S
  S11      1.0000 0.63600  0.81500  0.22300  Biso   1.000  S
  S12      1.0000 0.36400  0.31500  0.27700  Biso   1.000  S
  S13      1.0000 0.31800  0.13400  0.64800  Biso   1.000  S
  S14      1.0000 0.68200  0.63400  0.85200  Biso   1.000  S
  S15      1.0000 0.68200  0.86600  0.35200  Biso   1.000  S
  S16      1.0000 0.31800  0.36600  0.14800  Biso   1.000  S
  H1       1.0000 0.28200  0.42400  0.66900  Biso   1.000  H
  H2       1.0000 0.71800  0.92400  0.83100  Biso   1.000  H
  H3       1.0000 0.71800  0.57600  0.33100  Biso   1.000  H
  H4       1.0000 0.28200  0.07600  0.16900  Biso   1.000  H
  H5       1.0000 0.18000  0.41000  0.65600  Biso   1.000  H
  H6       1.0000 0.82000  0.91000  0.84400  Biso   1.000  H
  H7       1.0000 0.82000  0.59000  0.34400  Biso   1.000  H
  H8       1.0000 0.18000  0.09000  0.15600  Biso   1.000  H
  H9       1.0000 0.18200  0.18100  0.62000  Biso   1.000  H
  H10      1.0000 0.81800  0.68100  0.88000  Biso   1.000  H
  H11      1.0000 0.81800  0.81900  0.38000  Biso   1.000  H
  H12      1.0000 0.18200  0.31900  0.12000  Biso   1.000  H
  H13      1.0000 0.22200  0.34300  0.51200  Biso   1.000  H
  H14      1.0000 0.77800  0.84300  0.98800  Biso   1.000  H
  H15      1.0000 0.77800  0.65700  0.48800  Biso   1.000  H
  H16      1.0000 0.22200  0.15700  0.01200  Biso   1.000  H
  H17      1.0000 0.12600  0.34300  0.51100  Biso   1.000  H
  H18      1.0000 0.87400  0.84300  0.98900  Biso   1.000  H
  H19      1.0000 0.87400  0.65700  0.48900  Biso   1.000  H
  H20      1.0000 0.12600  0.15700  0.01100  Biso   1.000  H
  H21      1.0000 0.10800  0.11600  0.46900  Biso   1.000  H
  H22      1.0000 0.89200  0.61600  0.03100  Biso   1.000  H
  H23      1.0000 0.89200  0.88400  0.53100  Biso   1.000  H
  H24      1.0000 0.10800  0.38400  0.96900  Biso   1.000  H
  H25      1.0000 0.20100  0.12400  0.46400  Biso   1.000  H
  H26      1.0000 0.79900  0.62400  0.03600  Biso   1.000  H
  H27      1.0000 0.79900  0.87600  0.53600  Biso   1.000  H
  H28      1.0000 0.20100  0.37600  0.96400  Biso   1.000  H
  H29      1.0000 0.13900  0.28900  0.35800  Biso   1.000  H
  H30      1.0000 0.86100  0.78900  0.14200  Biso   1.000  H
  H31      1.0000 0.86100  0.71100  0.64200  Biso   1.000  H
  H32      1.0000 0.13900  0.21100  0.85800  Biso   1.000  H
  H33      1.0000 0.04500  0.27900  0.36300  Biso   1.000  H
  H34      1.0000 0.95500  0.77900  0.13700  Biso   1.000  H
  H35      1.0000 0.95500  0.72100  0.63700  Biso   1.000  H
  H36      1.0000 0.04500  0.22100  0.86300  Biso   1.000  H
  H37      1.0000 0.03100  0.05300  0.32400  Biso   1.000  H
  H38      1.0000 0.96900  0.55300  0.17600  Biso   1.000  H
  H39      1.0000 0.96900  0.94700  0.67600  Biso   1.000  H
  H40      1.0000 0.03100  0.44700  0.82400  Biso   1.000  H
  H41      1.0000 0.12700  0.05800  0.32300  Biso   1.000  H
  H42      1.0000 0.87300  0.55800  0.17700  Biso   1.000  H
  H43      1.0000 0.87300  0.94200  0.67700  Biso   1.000  H
  H44      1.0000 0.12700  0.44200  0.82300  Biso   1.000  H
  H45      1.0000 0.64100  0.06800  0.10000  Biso   1.000  H
  H46      1.0000 0.35900  0.56800  0.40000  Biso   1.000  H
  H47      1.0000 0.35900  0.93200  0.90000  Biso   1.000  H
  H48      1.0000 0.64100  0.43200  0.60000  Biso   1.000  H
  H49      1.0000 0.71900  0.04300  0.07300  Biso   1.000  H
  H50      1.0000 0.28100  0.54300  0.42700  Biso   1.000  H
  H51      1.0000 0.28100  0.95700  0.92700  Biso   1.000  H
  H52      1.0000 0.71900  0.45700  0.57300  Biso   1.000  H
  H53      1.0000 0.73600  0.23200  0.56400  Biso   1.000  H
  H54      1.0000 0.26400  0.73200  0.93600  Biso   1.000  H
  H55      1.0000 0.26400  0.76800  0.43600  Biso   1.000  H
  H56      1.0000 0.73600  0.26800  0.06400  Biso   1.000  H
  H57      1.0000 0.83600  0.28400  0.18800  Biso   1.000  H
  H58      1.0000 0.16400  0.78400  0.31200  Biso   1.000  H
  H59      1.0000 0.16400  0.71600  0.81200  Biso   1.000  H
  H60      1.0000 0.83600  0.21600  0.68800  Biso   1.000  H
  H61      1.0000 0.75900  0.36200  0.20000  Biso   1.000  H
  H62      1.0000 0.24100  0.86200  0.30000  Biso   1.000  H
  H63      1.0000 0.24100  0.63800  0.80000  Biso   1.000  H
  H64      1.0000 0.75900  0.13800  0.70000  Biso   1.000  H
  H65      1.0000 0.72700  0.15000  0.25200  Biso   1.000  H
  H66      1.0000 0.27300  0.65000  0.24800  Biso   1.000  H
  H67      1.0000 0.27300  0.85000  0.74800  Biso   1.000  H
  H68      1.0000 0.72700  0.35000  0.75200  Biso   1.000  H
  H69      1.0000 0.82000  0.09700  0.25700  Biso   1.000  H
  H70      1.0000 0.18000  0.59700  0.24300  Biso   1.000  H
  H71      1.0000 0.18000  0.90300  0.74300  Biso   1.000  H
  H72      1.0000 0.82000  0.40300  0.75700  Biso   1.000  H
  H73      1.0000 0.89200  0.29800  0.33500  Biso   1.000  H
  H74      1.0000 0.10800  0.79800  0.16500  Biso   1.000  H
  H75      1.0000 0.10800  0.70200  0.66500  Biso   1.000  H
  H76      1.0000 0.89200  0.20200  0.83500  Biso   1.000  H
  H77      1.0000 0.80000  0.33000  0.33900  Biso   1.000  H
  H78      1.0000 0.20000  0.83000  0.16100  Biso   1.000  H
  H79      1.0000 0.20000  0.67000  0.66100  Biso   1.000  H
  H80      1.0000 0.80000  0.17000  0.83900  Biso   1.000  H
  H81      1.0000 0.80700  0.12300  0.40200  Biso   1.000  H
  H82      1.0000 0.19300  0.62300  0.09800  Biso   1.000  H
  H83      1.0000 0.19300  0.87700  0.59800  Biso   1.000  H
  H84      1.0000 0.80700  0.37700  0.90200  Biso   1.000  H
  H85      1.0000 0.90000  0.09200  0.39800  Biso   1.000  H
  H86      1.0000 0.10000  0.59200  0.10200  Biso   1.000  H
  H87      1.0000 0.10000  0.90800  0.60200  Biso   1.000  H
  H88      1.0000 0.90000  0.40800  0.89800  Biso   1.000  H
  H89      1.0000 0.34300  0.29900  0.80700  Biso   1.000  H
  H90      1.0000 0.65700  0.79900  0.69300  Biso   1.000  H
  H91      1.0000 0.65700  0.70100  0.19300  Biso   1.000  H
  H92      1.0000 0.34300  0.20100  0.30700  Biso   1.000  H
  H93      1.0000 0.22600  0.29200  0.78900  Biso   1.000  H
  H94      1.0000 0.77400  0.79200  0.71100  Biso   1.000  H
  H95      1.0000 0.77400  0.70800  0.21100  Biso   1.000  H
  H96      1.0000 0.22600  0.20800  0.28900  Biso   1.000  H
  H97      1.0000 0.52700  0.10500  0.96700  Biso   1.000  H
  H98      1.0000 0.47300  0.60500  0.53300  Biso   1.000  H
  H99      1.0000 0.47300  0.89500  0.03300  Biso   1.000  H
  H100     1.0000 0.52700  0.39500  0.46700  Biso   1.000  H
  H101     1.0000 0.60600  0.99400  0.95500  Biso   1.000  H
  H102     1.0000 0.39400  0.49400  0.54500  Biso   1.000  H
  H103     1.0000 0.39400  0.00600  0.04500  Biso   1.000  H
  H104     1.0000 0.60600  0.50600  0.45500  Biso   1.000  H
