data_image0
_cell_length_a       4.937
_cell_length_b       32.143
_cell_length_c       7.198
_cell_angle_alpha    90
_cell_angle_beta     90.39
_cell_angle_gamma    90

_symmetry_space_group_name_H-M    "P 1"
_symmetry_int_tables_number       1

loop_
  _symmetry_equiv_pos_as_xyz
  'x, y, z'

loop_
  _atom_site_label
  _atom_site_occupancy
  _atom_site_fract_x
  _atom_site_fract_y
  _atom_site_fract_z
  _atom_site_thermal_displace_type
  _atom_site_B_iso_or_equiv
  _atom_site_type_symbol
  Cu1      1.0000 0.04800  0.25030  0.63470  Biso   1.000  Cu
  Cu2      1.0000 0.95200  0.75030  0.86530  Biso   1.000  Cu
  Cu3      1.0000 0.95200  0.74970  0.36530  Biso   1.000  Cu
  Cu4      1.0000 0.04800  0.24970  0.13470  Biso   1.000  Cu
  Cl1      1.0000 0.80020  0.27490  0.38630  Biso   1.000  Cl
  Cl2      1.0000 0.19980  0.77490  0.11370  Biso   1.000  Cl
  Cl3      1.0000 0.19980  0.72510  0.61370  Biso   1.000  Cl
  Cl4      1.0000 0.80020  0.22510  0.88630  Biso   1.000  Cl
  S1       1.0000 0.26450  0.19110  0.25030  Biso   1.000  S
  S2       1.0000 0.73550  0.69110  0.24970  Biso   1.000  S
  S3       1.0000 0.73550  0.80890  0.74970  Biso   1.000  S
  S4       1.0000 0.26450  0.30890  0.75030  Biso   1.000  S
  S5       1.0000 0.34660  0.20000  0.53390  Biso   1.000  S
  S6       1.0000 0.65340  0.70000  0.96610  Biso   1.000  S
  S7       1.0000 0.65340  0.80000  0.46610  Biso   1.000  S
  S8       1.0000 0.34660  0.30000  0.03390  Biso   1.000  S
  C1       1.0000 0.99050  0.15530  0.29600  Biso   1.000  C
  C2       1.0000 0.00950  0.65530  0.20400  Biso   1.000  C
  C3       1.0000 0.00950  0.84470  0.70400  Biso   1.000  C
  C4       1.0000 0.99050  0.34470  0.79600  Biso   1.000  C
  C5       1.0000 0.08810  0.12680  0.44990  Biso   1.000  C
  C6       1.0000 0.91190  0.62680  0.05010  Biso   1.000  C
  C7       1.0000 0.91190  0.87320  0.55010  Biso   1.000  C
  C8       1.0000 0.08810  0.37320  0.94990  Biso   1.000  C
  C9       1.0000 0.17970  0.15160  0.61440  Biso   1.000  C
  C10      1.0000 0.82030  0.65160  0.88560  Biso   1.000  C
  C11      1.0000 0.82030  0.84840  0.38560  Biso   1.000  C
  C12      1.0000 0.17970  0.34840  0.11440  Biso   1.000  C
  C13      1.0000 0.36200  0.13030  0.75270  Biso   1.000  C
  C14      1.0000 0.63800  0.63030  0.74730  Biso   1.000  C
  C15      1.0000 0.63800  0.86970  0.24730  Biso   1.000  C
  C16      1.0000 0.36200  0.36970  0.25270  Biso   1.000  C
  C17      1.0000 0.22940  0.09300  0.84280  Biso   1.000  C
  C18      1.0000 0.77060  0.59300  0.65720  Biso   1.000  C
  C19      1.0000 0.77060  0.90700  0.15720  Biso   1.000  C
  C20      1.0000 0.22940  0.40700  0.34280  Biso   1.000  C
  C21      1.0000 0.38680  0.07550  0.00720  Biso   1.000  C
  C22      1.0000 0.61320  0.57550  0.49280  Biso   1.000  C
  C23      1.0000 0.61320  0.92450  0.99280  Biso   1.000  C
  C24      1.0000 0.38680  0.42450  0.50720  Biso   1.000  C
  C25      1.0000 0.23720  0.04070  0.09960  Biso   1.000  C
  C26      1.0000 0.76280  0.54070  0.40040  Biso   1.000  C
  C27      1.0000 0.76280  0.95930  0.90040  Biso   1.000  C
  C28      1.0000 0.23720  0.45930  0.59960  Biso   1.000  C
  C29      1.0000 0.36260  0.02350  0.27220  Biso   1.000  C
  C30      1.0000 0.63740  0.52350  0.22780  Biso   1.000  C
  C31      1.0000 0.63740  0.97650  0.72780  Biso   1.000  C
  C32      1.0000 0.36260  0.47650  0.77220  Biso   1.000  C
  O1       1.0000 0.22710  0.99290  0.33990  Biso   1.000  O
  O2       1.0000 0.77290  0.49290  0.16010  Biso   1.000  O
  O3       1.0000 0.77290  0.00710  0.66010  Biso   1.000  O
  O4       1.0000 0.22710  0.50710  0.83990  Biso   1.000  O
  O5       1.0000 0.56980  0.03620  0.34220  Biso   1.000  O
  O6       1.0000 0.43020  0.53620  0.15780  Biso   1.000  O
  O7       1.0000 0.43020  0.96380  0.65780  Biso   1.000  O
  O8       1.0000 0.56980  0.46380  0.84220  Biso   1.000  O
  H1       1.0000 0.82980  0.17030  0.33440  Biso   1.000  H
  H2       1.0000 0.17020  0.67030  0.16560  Biso   1.000  H
  H3       1.0000 0.17020  0.82970  0.66560  Biso   1.000  H
  H4       1.0000 0.82980  0.32970  0.83440  Biso   1.000  H
  H5       1.0000 0.94690  0.13940  0.18540  Biso   1.000  H
  H6       1.0000 0.05310  0.63940  0.31460  Biso   1.000  H
  H7       1.0000 0.05310  0.86060  0.81460  Biso   1.000  H
  H8       1.0000 0.94690  0.36060  0.68540  Biso   1.000  H
  H9       1.0000 0.94250  0.10830  0.48610  Biso   1.000  H
  H10      1.0000 0.05750  0.60830  0.01390  Biso   1.000  H
  H11      1.0000 0.05750  0.89170  0.51390  Biso   1.000  H
  H12      1.0000 0.94250  0.39170  0.98610  Biso   1.000  H
  H13      1.0000 0.23700  0.11000  0.40530  Biso   1.000  H
  H14      1.0000 0.76300  0.61000  0.09470  Biso   1.000  H
  H15      1.0000 0.76300  0.89000  0.59470  Biso   1.000  H
  H16      1.0000 0.23700  0.39000  0.90530  Biso   1.000  H
  H17      1.0000 0.01640  0.16000  0.68130  Biso   1.000  H
  H18      1.0000 0.98360  0.66000  0.81870  Biso   1.000  H
  H19      1.0000 0.98360  0.84000  0.31870  Biso   1.000  H
  H20      1.0000 0.01640  0.34000  0.18130  Biso   1.000  H
  H21      1.0000 0.41360  0.15010  0.84850  Biso   1.000  H
  H22      1.0000 0.58640  0.65010  0.65150  Biso   1.000  H
  H23      1.0000 0.58640  0.84990  0.15150  Biso   1.000  H
  H24      1.0000 0.41360  0.34990  0.34850  Biso   1.000  H
  H25      1.0000 0.52580  0.12140  0.69060  Biso   1.000  H
  H26      1.0000 0.47420  0.62140  0.80940  Biso   1.000  H
  H27      1.0000 0.47420  0.87860  0.30940  Biso   1.000  H
  H28      1.0000 0.52580  0.37860  0.19060  Biso   1.000  H
  H29      1.0000 0.05000  0.10090  0.88410  Biso   1.000  H
  H30      1.0000 0.95000  0.60090  0.61590  Biso   1.000  H
  H31      1.0000 0.95000  0.89910  0.11590  Biso   1.000  H
  H32      1.0000 0.05000  0.39910  0.38410  Biso   1.000  H
  H33      1.0000 0.20790  0.07130  0.75030  Biso   1.000  H
  H34      1.0000 0.79210  0.57130  0.74970  Biso   1.000  H
  H35      1.0000 0.79210  0.92870  0.24970  Biso   1.000  H
  H36      1.0000 0.20790  0.42870  0.25030  Biso   1.000  H
  H37      1.0000 0.56090  0.06530  0.96500  Biso   1.000  H
  H38      1.0000 0.43910  0.56530  0.53500  Biso   1.000  H
  H39      1.0000 0.43910  0.93470  0.03500  Biso   1.000  H
  H40      1.0000 0.56090  0.43470  0.46500  Biso   1.000  H
  H41      1.0000 0.41970  0.09750  0.09680  Biso   1.000  H
  H42      1.0000 0.58030  0.59750  0.40320  Biso   1.000  H
  H43      1.0000 0.58030  0.90250  0.90320  Biso   1.000  H
  H44      1.0000 0.41970  0.40250  0.59680  Biso   1.000  H
  H45      1.0000 0.05690  0.05060  0.12960  Biso   1.000  H
  H46      1.0000 0.94310  0.55060  0.37040  Biso   1.000  H
  H47      1.0000 0.94310  0.94940  0.87040  Biso   1.000  H
  H48      1.0000 0.05690  0.44940  0.62960  Biso   1.000  H
  H49      1.0000 0.21690  0.01830  0.01080  Biso   1.000  H
  H50      1.0000 0.78310  0.51830  0.48920  Biso   1.000  H
  H51      1.0000 0.78310  0.98170  0.98920  Biso   1.000  H
  H52      1.0000 0.21690  0.48170  0.51080  Biso   1.000  H
  H53      1.0000 0.27500  0.98140  0.41960  Biso   1.000  H
  H54      1.0000 0.72500  0.48140  0.08040  Biso   1.000  H
  H55      1.0000 0.72500  0.01860  0.58040  Biso   1.000  H
  H56      1.0000 0.27500  0.51860  0.91960  Biso   1.000  H
