data_image0
_cell_length_a       16.534
_cell_length_b       7.504
_cell_length_c       15.705
_cell_angle_alpha    90
_cell_angle_beta     90.27
_cell_angle_gamma    90

_symmetry_space_group_name_H-M    "P 1"
_symmetry_int_tables_number       1

loop_
  _symmetry_equiv_pos_as_xyz
  'x, y, z'

loop_
  _atom_site_label
  _atom_site_occupancy
  _atom_site_fract_x
  _atom_site_fract_y
  _atom_site_fract_z
  _atom_site_thermal_displace_type
  _atom_site_B_iso_or_equiv
  _atom_site_type_symbol
  I1       1.0000 0.05155  0.08483  0.88479  Biso   1.000  I
  I2       1.0000 0.94845  0.08483  0.61521  Biso   1.000  I
  I3       1.0000 0.55155  0.58483  0.88479  Biso   1.000  I
  I4       1.0000 0.44845  0.58483  0.61521  Biso   1.000  I
  I5       1.0000 0.94845  0.91517  0.11521  Biso   1.000  I
  I6       1.0000 0.05155  0.91517  0.38479  Biso   1.000  I
  I7       1.0000 0.44845  0.41517  0.11521  Biso   1.000  I
  I8       1.0000 0.55155  0.41517  0.38479  Biso   1.000  I
  I9       1.0000 0.87880  0.50361  0.81990  Biso   1.000  I
  I10      1.0000 0.12120  0.50361  0.68010  Biso   1.000  I
  I11      1.0000 0.37880  0.00361  0.81990  Biso   1.000  I
  I12      1.0000 0.62120  0.00361  0.68010  Biso   1.000  I
  I13      1.0000 0.12120  0.49639  0.18010  Biso   1.000  I
  I14      1.0000 0.87880  0.49639  0.31990  Biso   1.000  I
  I15      1.0000 0.62120  0.99639  0.18010  Biso   1.000  I
  I16      1.0000 0.37880  0.99639  0.31990  Biso   1.000  I
  Cu1      1.0000 0.03808  0.42179  0.82601  Biso   1.000  Cu
  Cu2      1.0000 0.96192  0.42179  0.67399  Biso   1.000  Cu
  Cu3      1.0000 0.53808  0.92179  0.82601  Biso   1.000  Cu
  Cu4      1.0000 0.46192  0.92179  0.67399  Biso   1.000  Cu
  Cu5      1.0000 0.96192  0.57821  0.17399  Biso   1.000  Cu
  Cu6      1.0000 0.03808  0.57821  0.32601  Biso   1.000  Cu
  Cu7      1.0000 0.46192  0.07821  0.17399  Biso   1.000  Cu
  Cu8      1.0000 0.53808  0.07821  0.32601  Biso   1.000  Cu
  Cu9      1.0000 0.92864  0.15930  0.78055  Biso   1.000  Cu
  Cu10     1.0000 0.07136  0.15930  0.71945  Biso   1.000  Cu
  Cu11     1.0000 0.42864  0.65930  0.78055  Biso   1.000  Cu
  Cu12     1.0000 0.57136  0.65930  0.71945  Biso   1.000  Cu
  Cu13     1.0000 0.07136  0.84070  0.21945  Biso   1.000  Cu
  Cu14     1.0000 0.92864  0.84070  0.28055  Biso   1.000  Cu
  Cu15     1.0000 0.57136  0.34070  0.21945  Biso   1.000  Cu
  Cu16     1.0000 0.42864  0.34070  0.28055  Biso   1.000  Cu
  N1       1.0000 0.08650  0.58180  0.91820  Biso   1.000  N
  N2       1.0000 0.91350  0.58180  0.58180  Biso   1.000  N
  N3       1.0000 0.58650  0.08180  0.91820  Biso   1.000  N
  N4       1.0000 0.41350  0.08180  0.58180  Biso   1.000  N
  N5       1.0000 0.91350  0.41820  0.08180  Biso   1.000  N
  N6       1.0000 0.08650  0.41820  0.41820  Biso   1.000  N
  N7       1.0000 0.41350  0.91820  0.08180  Biso   1.000  N
  N8       1.0000 0.58650  0.91820  0.41820  Biso   1.000  N
  H1       1.0000 0.05760  0.68650  0.91900  Biso   1.000  H
  H2       1.0000 0.94240  0.68650  0.58100  Biso   1.000  H
  H3       1.0000 0.55760  0.18650  0.91900  Biso   1.000  H
  H4       1.0000 0.44240  0.18650  0.58100  Biso   1.000  H
  H5       1.0000 0.94240  0.31350  0.08100  Biso   1.000  H
  H6       1.0000 0.05760  0.31350  0.41900  Biso   1.000  H
  H7       1.0000 0.44240  0.81350  0.08100  Biso   1.000  H
  H8       1.0000 0.55760  0.81350  0.41900  Biso   1.000  H
  H9       1.0000 0.07890  0.52710  0.97000  Biso   1.000  H
  H10      1.0000 0.92110  0.52710  0.53000  Biso   1.000  H
  H11      1.0000 0.57890  0.02710  0.97000  Biso   1.000  H
  H12      1.0000 0.42110  0.02710  0.53000  Biso   1.000  H
  H13      1.0000 0.92110  0.47290  0.03000  Biso   1.000  H
  H14      1.0000 0.07890  0.47290  0.47000  Biso   1.000  H
  H15      1.0000 0.42110  0.97290  0.03000  Biso   1.000  H
  H16      1.0000 0.57890  0.97290  0.47000  Biso   1.000  H
  N9       1.0000 0.33080  0.51310  0.81340  Biso   1.000  N
  N10      1.0000 0.66920  0.51310  0.68660  Biso   1.000  N
  N11      1.0000 0.83080  0.01310  0.81340  Biso   1.000  N
  N12      1.0000 0.16920  0.01310  0.68660  Biso   1.000  N
  N13      1.0000 0.66920  0.48690  0.18660  Biso   1.000  N
  N14      1.0000 0.33080  0.48690  0.31340  Biso   1.000  N
  N15      1.0000 0.16920  0.98690  0.18660  Biso   1.000  N
  N16      1.0000 0.83080  0.98690  0.31340  Biso   1.000  N
  H17      1.0000 0.28600  0.56140  0.78720  Biso   1.000  H
  H18      1.0000 0.71400  0.56140  0.71280  Biso   1.000  H
  H19      1.0000 0.78600  0.06140  0.78720  Biso   1.000  H
  H20      1.0000 0.21400  0.06140  0.71280  Biso   1.000  H
  H21      1.0000 0.71400  0.43860  0.21280  Biso   1.000  H
  H22      1.0000 0.28600  0.43860  0.28720  Biso   1.000  H
  H23      1.0000 0.21400  0.93860  0.21280  Biso   1.000  H
  H24      1.0000 0.78600  0.93860  0.28720  Biso   1.000  H
  H25      1.0000 0.33730  0.39960  0.79240  Biso   1.000  H
  H26      1.0000 0.66270  0.39960  0.70760  Biso   1.000  H
  H27      1.0000 0.83730  0.89960  0.79240  Biso   1.000  H
  H28      1.0000 0.16270  0.89960  0.70760  Biso   1.000  H
  H29      1.0000 0.66270  0.60040  0.20760  Biso   1.000  H
  H30      1.0000 0.33730  0.60040  0.29240  Biso   1.000  H
  H31      1.0000 0.16270  0.10040  0.20760  Biso   1.000  H
  H32      1.0000 0.83730  0.10040  0.29240  Biso   1.000  H
  C1       1.0000 0.17370  0.62690  0.91050  Biso   1.000  C
  C2       1.0000 0.82630  0.62690  0.58950  Biso   1.000  C
  C3       1.0000 0.67370  0.12690  0.91050  Biso   1.000  C
  C4       1.0000 0.32630  0.12690  0.58950  Biso   1.000  C
  C5       1.0000 0.82630  0.37310  0.08950  Biso   1.000  C
  C6       1.0000 0.17370  0.37310  0.41050  Biso   1.000  C
  C7       1.0000 0.32630  0.87310  0.08950  Biso   1.000  C
  C8       1.0000 0.67370  0.87310  0.41050  Biso   1.000  C
  H33      1.0000 0.18800  0.72060  0.95240  Biso   1.000  H
  H34      1.0000 0.81200  0.72060  0.54760  Biso   1.000  H
  H35      1.0000 0.68800  0.22060  0.95240  Biso   1.000  H
  H36      1.0000 0.31200  0.22060  0.54760  Biso   1.000  H
  H37      1.0000 0.81200  0.27940  0.04760  Biso   1.000  H
  H38      1.0000 0.18800  0.27940  0.45240  Biso   1.000  H
  H39      1.0000 0.31200  0.77940  0.04760  Biso   1.000  H
  H40      1.0000 0.68800  0.77940  0.45240  Biso   1.000  H
  H41      1.0000 0.18460  0.67380  0.85280  Biso   1.000  H
  H42      1.0000 0.81540  0.67380  0.64720  Biso   1.000  H
  H43      1.0000 0.68460  0.17380  0.85280  Biso   1.000  H
  H44      1.0000 0.31540  0.17380  0.64720  Biso   1.000  H
  H45      1.0000 0.81540  0.32620  0.14720  Biso   1.000  H
  H46      1.0000 0.18460  0.32620  0.35280  Biso   1.000  H
  H47      1.0000 0.31540  0.82620  0.14720  Biso   1.000  H
  H48      1.0000 0.68460  0.82620  0.35280  Biso   1.000  H
  C9       1.0000 0.22440  0.46380  0.92640  Biso   1.000  C
  C10      1.0000 0.77560  0.46380  0.57360  Biso   1.000  C
  C11      1.0000 0.72440  0.96380  0.92640  Biso   1.000  C
  C12      1.0000 0.27560  0.96380  0.57360  Biso   1.000  C
  C13      1.0000 0.77560  0.53620  0.07360  Biso   1.000  C
  C14      1.0000 0.22440  0.53620  0.42640  Biso   1.000  C
  C15      1.0000 0.27560  0.03620  0.07360  Biso   1.000  C
  C16      1.0000 0.72440  0.03620  0.42640  Biso   1.000  C
  H49      1.0000 0.20410  0.36430  0.89080  Biso   1.000  H
  H50      1.0000 0.79590  0.36430  0.60920  Biso   1.000  H
  H51      1.0000 0.70410  0.86430  0.89080  Biso   1.000  H
  H52      1.0000 0.29590  0.86430  0.60920  Biso   1.000  H
  H53      1.0000 0.79590  0.63570  0.10920  Biso   1.000  H
  H54      1.0000 0.20410  0.63570  0.39080  Biso   1.000  H
  H55      1.0000 0.29590  0.13570  0.10920  Biso   1.000  H
  H56      1.0000 0.70410  0.13570  0.39080  Biso   1.000  H
  H57      1.0000 0.21980  0.42820  0.98690  Biso   1.000  H
  H58      1.0000 0.78020  0.42820  0.51310  Biso   1.000  H
  H59      1.0000 0.71980  0.92820  0.98690  Biso   1.000  H
  H60      1.0000 0.28020  0.92820  0.51310  Biso   1.000  H
  H61      1.0000 0.78020  0.57180  0.01310  Biso   1.000  H
  H62      1.0000 0.21980  0.57180  0.48690  Biso   1.000  H
  H63      1.0000 0.28020  0.07180  0.01310  Biso   1.000  H
  H64      1.0000 0.71980  0.07180  0.48690  Biso   1.000  H
  C17      1.0000 0.31490  0.50070  0.90480  Biso   1.000  C
  C18      1.0000 0.68510  0.50070  0.59520  Biso   1.000  C
  C19      1.0000 0.81490  0.00070  0.90480  Biso   1.000  C
  C20      1.0000 0.18510  0.00070  0.59520  Biso   1.000  C
  C21      1.0000 0.68510  0.49930  0.09520  Biso   1.000  C
  C22      1.0000 0.31490  0.49930  0.40480  Biso   1.000  C
  C23      1.0000 0.18510  0.99930  0.09520  Biso   1.000  C
  C24      1.0000 0.81490  0.99930  0.40480  Biso   1.000  C
  H65      1.0000 0.33160  0.61360  0.93230  Biso   1.000  H
  H66      1.0000 0.66840  0.61360  0.56770  Biso   1.000  H
  H67      1.0000 0.83160  0.11360  0.93230  Biso   1.000  H
  H68      1.0000 0.16840  0.11360  0.56770  Biso   1.000  H
  H69      1.0000 0.66840  0.38640  0.06770  Biso   1.000  H
  H70      1.0000 0.33160  0.38640  0.43230  Biso   1.000  H
  H71      1.0000 0.16840  0.88640  0.06770  Biso   1.000  H
  H72      1.0000 0.83160  0.88640  0.43230  Biso   1.000  H
  H73      1.0000 0.34850  0.40390  0.92920  Biso   1.000  H
  H74      1.0000 0.65150  0.40390  0.57080  Biso   1.000  H
  H75      1.0000 0.84850  0.90390  0.92920  Biso   1.000  H
  H76      1.0000 0.15150  0.90390  0.57080  Biso   1.000  H
  H77      1.0000 0.65150  0.59610  0.07080  Biso   1.000  H
  H78      1.0000 0.34850  0.59610  0.42920  Biso   1.000  H
  H79      1.0000 0.15150  0.09610  0.07080  Biso   1.000  H
  H80      1.0000 0.84850  0.09610  0.42920  Biso   1.000  H
