data_image0
_cell_length_a       7.5175
_cell_length_b       7.5175
_cell_length_c       15.432
_cell_angle_alpha    90
_cell_angle_beta     90
_cell_angle_gamma    90

_symmetry_space_group_name_H-M    "P 1"
_symmetry_int_tables_number       1

loop_
  _symmetry_equiv_pos_as_xyz
  'x, y, z'

loop_
  _atom_site_label
  _atom_site_occupancy
  _atom_site_fract_x
  _atom_site_fract_y
  _atom_site_fract_z
  _atom_site_thermal_displace_type
  _atom_site_B_iso_or_equiv
  _atom_site_type_symbol
  I1       1.0000 0.96424  0.46424  0.14799  Biso   1.000  I
  I2       1.0000 0.03576  0.96424  0.64799  Biso   1.000  I
  I3       1.0000 0.53576  0.03576  0.14799  Biso   1.000  I
  I4       1.0000 0.46424  0.53576  0.64799  Biso   1.000  I
  I5       1.0000 0.96424  0.03576  0.35201  Biso   1.000  I
  I6       1.0000 0.53576  0.46424  0.35201  Biso   1.000  I
  I7       1.0000 0.46424  0.96424  0.85201  Biso   1.000  I
  I8       1.0000 0.03576  0.53576  0.85201  Biso   1.000  I
  Cu1      1.0000 0.87292  0.37292  0.31288  Biso   1.000  Cu
  Cu2      1.0000 0.12708  0.87292  0.81288  Biso   1.000  Cu
  Cu3      1.0000 0.62708  0.12708  0.31288  Biso   1.000  Cu
  Cu4      1.0000 0.37292  0.62708  0.81288  Biso   1.000  Cu
  Cu5      1.0000 0.87292  0.12708  0.18712  Biso   1.000  Cu
  Cu6      1.0000 0.62708  0.37292  0.18712  Biso   1.000  Cu
  Cu7      1.0000 0.37292  0.87292  0.68712  Biso   1.000  Cu
  Cu8      1.0000 0.12708  0.62708  0.68712  Biso   1.000  Cu
  N1       1.0000 0.03800  0.53800  0.38120  Biso   1.000  N
  N2       1.0000 0.96200  0.03800  0.88120  Biso   1.000  N
  N3       1.0000 0.46200  0.96200  0.38120  Biso   1.000  N
  N4       1.0000 0.53800  0.46200  0.88120  Biso   1.000  N
  N5       1.0000 0.03800  0.96200  0.11880  Biso   1.000  N
  N6       1.0000 0.46200  0.53800  0.11880  Biso   1.000  N
  N7       1.0000 0.53800  0.03800  0.61880  Biso   1.000  N
  N8       1.0000 0.96200  0.46200  0.61880  Biso   1.000  N
  H1       1.0000 0.96270  0.46270  0.35190  Biso   1.000  H
  H2       1.0000 0.03730  0.96270  0.85190  Biso   1.000  H
  H3       1.0000 0.53730  0.03730  0.35190  Biso   1.000  H
  H4       1.0000 0.46270  0.53730  0.85190  Biso   1.000  H
  H5       1.0000 0.96270  0.03730  0.14810  Biso   1.000  H
  H6       1.0000 0.53730  0.46270  0.14810  Biso   1.000  H
  H7       1.0000 0.46270  0.96270  0.64810  Biso   1.000  H
  H8       1.0000 0.03730  0.53730  0.64810  Biso   1.000  H
  H9       1.0000 0.11060  0.61060  0.34870  Biso   1.000  H
  H10      1.0000 0.88940  0.11060  0.84870  Biso   1.000  H
  H11      1.0000 0.38940  0.88940  0.34870  Biso   1.000  H
  H12      1.0000 0.61060  0.38940  0.84870  Biso   1.000  H
  H13      1.0000 0.11060  0.88940  0.15130  Biso   1.000  H
  H14      1.0000 0.38940  0.61060  0.15130  Biso   1.000  H
  H15      1.0000 0.61060  0.11060  0.65130  Biso   1.000  H
  H16      1.0000 0.88940  0.38940  0.65130  Biso   1.000  H
  C1       1.0000 0.08270  0.50180  0.47430  Biso   1.000  C
  C2       1.0000 0.99820  0.08270  0.97430  Biso   1.000  C
  C3       1.0000 0.41730  0.99820  0.47430  Biso   1.000  C
  C4       1.0000 0.50180  0.41730  0.97430  Biso   1.000  C
  C5       1.0000 0.08270  0.99820  0.02570  Biso   1.000  C
  C6       1.0000 0.41730  0.50180  0.02570  Biso   1.000  C
  C7       1.0000 0.50180  0.08270  0.52570  Biso   1.000  C
  C8       1.0000 0.99820  0.41730  0.52570  Biso   1.000  C
  C9       1.0000 0.91730  0.49820  0.52570  Biso   1.000  C
  C10      1.0000 0.00180  0.91730  0.02570  Biso   1.000  C
  C11      1.0000 0.58270  0.00180  0.52570  Biso   1.000  C
  C12      1.0000 0.49820  0.58270  0.02570  Biso   1.000  C
  C13      1.0000 0.91730  0.00180  0.97430  Biso   1.000  C
  C14      1.0000 0.58270  0.49820  0.97430  Biso   1.000  C
  C15      1.0000 0.49820  0.91730  0.47430  Biso   1.000  C
  C16      1.0000 0.00180  0.58270  0.47430  Biso   1.000  C
