data_image0
_cell_length_a       9.564
_cell_length_b       17.689
_cell_length_c       8.0729
_cell_angle_alpha    90
_cell_angle_beta     108.47
_cell_angle_gamma    90

_symmetry_space_group_name_H-M    "P 1"
_symmetry_int_tables_number       1

loop_
  _symmetry_equiv_pos_as_xyz
  'x, y, z'

loop_
  _atom_site_label
  _atom_site_occupancy
  _atom_site_fract_x
  _atom_site_fract_y
  _atom_site_fract_z
  _atom_site_thermal_displace_type
  _atom_site_B_iso_or_equiv
  _atom_site_type_symbol
  Cu1      1.0000 0.92041  0.55402  0.54202  Biso   1.000  Cu
  Cu2      1.0000 0.92041  0.94598  0.04202  Biso   1.000  Cu
  Cu3      1.0000 0.07959  0.44598  0.45798  Biso   1.000  Cu
  Cu4      1.0000 0.07959  0.05402  0.95798  Biso   1.000  Cu
  Cu5      1.0000 0.64964  0.30125  0.77949  Biso   1.000  Cu
  Cu6      1.0000 0.64964  0.19875  0.27949  Biso   1.000  Cu
  Cu7      1.0000 0.35036  0.69875  0.22051  Biso   1.000  Cu
  Cu8      1.0000 0.35036  0.80125  0.72051  Biso   1.000  Cu
  I1       1.0000 0.85263  0.50823  0.21301  Biso   1.000  I
  I2       1.0000 0.85263  0.99177  0.71301  Biso   1.000  I
  I3       1.0000 0.14737  0.49177  0.78699  Biso   1.000  I
  I4       1.0000 0.14737  0.00823  0.28699  Biso   1.000  I
  I5       1.0000 0.50949  0.27752  0.00504  Biso   1.000  I
  I6       1.0000 0.50949  0.22248  0.50504  Biso   1.000  I
  I7       1.0000 0.49051  0.72248  0.99496  Biso   1.000  I
  I8       1.0000 0.49051  0.77752  0.49496  Biso   1.000  I
  N1       1.0000 0.74610  0.52130  0.62750  Biso   1.000  N
  N2       1.0000 0.74610  0.97870  0.12750  Biso   1.000  N
  N3       1.0000 0.25390  0.47870  0.37250  Biso   1.000  N
  N4       1.0000 0.25390  0.02130  0.87250  Biso   1.000  N
  C1       1.0000 0.74150  0.44820  0.66860  Biso   1.000  C
  C2       1.0000 0.74150  0.05180  0.16860  Biso   1.000  C
  C3       1.0000 0.25850  0.55180  0.33140  Biso   1.000  C
  C4       1.0000 0.25850  0.94820  0.83140  Biso   1.000  C
  H1       1.0000 0.81160  0.41670  0.64720  Biso   1.000  H
  H2       1.0000 0.81160  0.08330  0.14720  Biso   1.000  H
  H3       1.0000 0.18840  0.58330  0.35280  Biso   1.000  H
  H4       1.0000 0.18840  0.91670  0.85280  Biso   1.000  H
  N5       1.0000 0.64640  0.41610  0.73720  Biso   1.000  N
  N6       1.0000 0.64640  0.08390  0.23720  Biso   1.000  N
  N7       1.0000 0.35360  0.58390  0.26280  Biso   1.000  N
  N8       1.0000 0.35360  0.91610  0.76280  Biso   1.000  N
  C5       1.0000 0.54870  0.46230  0.77240  Biso   1.000  C
  C6       1.0000 0.54870  0.03770  0.27240  Biso   1.000  C
  C7       1.0000 0.45130  0.53770  0.22760  Biso   1.000  C
  C8       1.0000 0.45130  0.96230  0.72760  Biso   1.000  C
  H5       1.0000 0.48290  0.44280  0.82510  Biso   1.000  H
  H6       1.0000 0.48290  0.05720  0.32510  Biso   1.000  H
  H7       1.0000 0.51710  0.55720  0.17490  Biso   1.000  H
  H8       1.0000 0.51710  0.94280  0.67490  Biso   1.000  H
  C9       1.0000 0.54360  0.53860  0.73170  Biso   1.000  C
  C10      1.0000 0.54360  0.96140  0.23170  Biso   1.000  C
  C11      1.0000 0.45640  0.46140  0.26830  Biso   1.000  C
  C12      1.0000 0.45640  0.03860  0.76830  Biso   1.000  C
  H9       1.0000 0.47420  0.57040  0.75390  Biso   1.000  H
  H10      1.0000 0.47420  0.92960  0.25390  Biso   1.000  H
  H11      1.0000 0.52580  0.42960  0.24610  Biso   1.000  H
  H12      1.0000 0.52580  0.07040  0.74610  Biso   1.000  H
  C13      1.0000 0.64430  0.56530  0.65790  Biso   1.000  C
  C14      1.0000 0.64430  0.93470  0.15790  Biso   1.000  C
  C15      1.0000 0.35570  0.43470  0.34210  Biso   1.000  C
  C16      1.0000 0.35570  0.06530  0.84210  Biso   1.000  C
  H13      1.0000 0.64150  0.61620  0.62800  Biso   1.000  H
  H14      1.0000 0.64150  0.88380  0.12800  Biso   1.000  H
  H15      1.0000 0.35850  0.38380  0.37200  Biso   1.000  H
  H16      1.0000 0.35850  0.11620  0.87200  Biso   1.000  H
  N9       1.0000 0.96290  0.66720  0.53570  Biso   1.000  N
  N10      1.0000 0.96290  0.83280  0.03570  Biso   1.000  N
  N11      1.0000 0.03710  0.33280  0.46430  Biso   1.000  N
  N12      1.0000 0.03710  0.16720  0.96430  Biso   1.000  N
  C17      1.0000 0.09380  0.69700  0.62090  Biso   1.000  C
  C18      1.0000 0.09380  0.80300  0.12090  Biso   1.000  C
  C19      1.0000 0.90620  0.30300  0.37910  Biso   1.000  C
  C20      1.0000 0.90620  0.19700  0.87910  Biso   1.000  C
  H17      1.0000 0.16510  0.66420  0.68870  Biso   1.000  H
  H18      1.0000 0.16510  0.83580  0.18870  Biso   1.000  H
  H19      1.0000 0.83490  0.33580  0.31130  Biso   1.000  H
  H20      1.0000 0.83490  0.16420  0.81130  Biso   1.000  H
  N13      1.0000 0.13250  0.76910  0.61850  Biso   1.000  N
  N14      1.0000 0.13250  0.73090  0.11850  Biso   1.000  N
  N15      1.0000 0.86750  0.23090  0.38150  Biso   1.000  N
  N16      1.0000 0.86750  0.26910  0.88150  Biso   1.000  N
  C21      1.0000 0.02700  0.81600  0.52370  Biso   1.000  C
  C22      1.0000 0.02700  0.68400  0.02370  Biso   1.000  C
  C23      1.0000 0.97300  0.18400  0.47630  Biso   1.000  C
  C24      1.0000 0.97300  0.31600  0.97630  Biso   1.000  C
  H21      1.0000 0.04880  0.86700  0.51800  Biso   1.000  H
  H22      1.0000 0.04880  0.63300  0.01800  Biso   1.000  H
  H23      1.0000 0.95120  0.13300  0.48200  Biso   1.000  H
  H24      1.0000 0.95120  0.36700  0.98200  Biso   1.000  H
  C25      1.0000 0.88770  0.79050  0.43490  Biso   1.000  C
  C26      1.0000 0.88770  0.70950  0.93490  Biso   1.000  C
  C27      1.0000 0.11230  0.20950  0.56510  Biso   1.000  C
  C28      1.0000 0.11230  0.29050  0.06510  Biso   1.000  C
  H25      1.0000 0.81430  0.82370  0.37310  Biso   1.000  H
  H26      1.0000 0.81430  0.67630  0.87310  Biso   1.000  H
  H27      1.0000 0.18570  0.17630  0.62690  Biso   1.000  H
  H28      1.0000 0.18570  0.32370  0.12690  Biso   1.000  H
  C29      1.0000 0.85990  0.71500  0.44000  Biso   1.000  C
  C30      1.0000 0.85990  0.78500  0.94000  Biso   1.000  C
  C31      1.0000 0.14010  0.28500  0.56000  Biso   1.000  C
  C32      1.0000 0.14010  0.21500  0.06000  Biso   1.000  C
  H29      1.0000 0.76780  0.69630  0.37580  Biso   1.000  H
  H30      1.0000 0.76780  0.80370  0.87580  Biso   1.000  H
  H31      1.0000 0.23220  0.30370  0.62420  Biso   1.000  H
  H32      1.0000 0.23220  0.19630  0.12420  Biso   1.000  H
