data_image0
_cell_length_a       14.7372
_cell_length_b       13.3786
_cell_length_c       3.7772
_cell_angle_alpha    90
_cell_angle_beta     90
_cell_angle_gamma    90

_symmetry_space_group_name_H-M    "P 1"
_symmetry_int_tables_number       1

loop_
  _symmetry_equiv_pos_as_xyz
  'x, y, z'

loop_
  _atom_site_label
  _atom_site_occupancy
  _atom_site_fract_x
  _atom_site_fract_y
  _atom_site_fract_z
  _atom_site_thermal_displace_type
  _atom_site_B_iso_or_equiv
  _atom_site_type_symbol
  Cu1      1.0000 0.31846  0.46879  0.65150  Biso   1.000  Cu
  Cu2      1.0000 0.81846  0.46879  0.84850  Biso   1.000  Cu
  Cu3      1.0000 0.31846  0.03121  0.65150  Biso   1.000  Cu
  Cu4      1.0000 0.18154  0.96879  0.15150  Biso   1.000  Cu
  Cu5      1.0000 0.68154  0.53121  0.34850  Biso   1.000  Cu
  Cu6      1.0000 0.18154  0.53121  0.15150  Biso   1.000  Cu
  Cu7      1.0000 0.68154  0.96879  0.34850  Biso   1.000  Cu
  Cu8      1.0000 0.81846  0.03121  0.84850  Biso   1.000  Cu
  Cl1      1.0000 0.15459  0.42847  0.62600  Biso   1.000  Cl
  Cl2      1.0000 0.65459  0.42847  0.87400  Biso   1.000  Cl
  Cl3      1.0000 0.15459  0.07153  0.62600  Biso   1.000  Cl
  Cl4      1.0000 0.34541  0.92847  0.12600  Biso   1.000  Cl
  Cl5      1.0000 0.84541  0.57153  0.37400  Biso   1.000  Cl
  Cl6      1.0000 0.34541  0.57153  0.12600  Biso   1.000  Cl
  Cl7      1.0000 0.84541  0.92847  0.37400  Biso   1.000  Cl
  Cl8      1.0000 0.65459  0.07153  0.87400  Biso   1.000  Cl
  N1       1.0000 0.38195  0.33893  0.54870  Biso   1.000  N
  N2       1.0000 0.88195  0.33893  0.95130  Biso   1.000  N
  N3       1.0000 0.38195  0.16107  0.54870  Biso   1.000  N
  N4       1.0000 0.11805  0.83893  0.04870  Biso   1.000  N
  N5       1.0000 0.61805  0.66107  0.45130  Biso   1.000  N
  N6       1.0000 0.11805  0.66107  0.04870  Biso   1.000  N
  N7       1.0000 0.61805  0.83893  0.45130  Biso   1.000  N
  N8       1.0000 0.88195  0.16107  0.95130  Biso   1.000  N
  C1       1.0000 0.34410  0.25000  0.61480  Biso   1.000  C
  C2       1.0000 0.84410  0.25000  0.88520  Biso   1.000  C
  C3       1.0000 0.15590  0.75000  0.11480  Biso   1.000  C
  C4       1.0000 0.65590  0.75000  0.38520  Biso   1.000  C
  H1       1.0000 0.28650  0.25000  0.71540  Biso   1.000  H
  H2       1.0000 0.78650  0.25000  0.78460  Biso   1.000  H
  H3       1.0000 0.21350  0.75000  0.21540  Biso   1.000  H
  H4       1.0000 0.71350  0.75000  0.28460  Biso   1.000  H
  C5       1.0000 0.46560  0.33790  0.40260  Biso   1.000  C
  C6       1.0000 0.96560  0.33790  0.09740  Biso   1.000  C
  C7       1.0000 0.46560  0.16210  0.40260  Biso   1.000  C
  C8       1.0000 0.03440  0.83790  0.90260  Biso   1.000  C
  C9       1.0000 0.53440  0.66210  0.59740  Biso   1.000  C
  C10      1.0000 0.03440  0.66210  0.90260  Biso   1.000  C
  C11      1.0000 0.53440  0.83790  0.59740  Biso   1.000  C
  C12      1.0000 0.96560  0.16210  0.09740  Biso   1.000  C
  H5       1.0000 0.49410  0.39830  0.35180  Biso   1.000  H
  H6       1.0000 0.99410  0.39830  0.14820  Biso   1.000  H
  H7       1.0000 0.49410  0.10170  0.35180  Biso   1.000  H
  H8       1.0000 0.00590  0.89830  0.85180  Biso   1.000  H
  H9       1.0000 0.50590  0.60170  0.64820  Biso   1.000  H
  H10      1.0000 0.00590  0.60170  0.85180  Biso   1.000  H
  H11      1.0000 0.50590  0.89830  0.64820  Biso   1.000  H
  H12      1.0000 0.99410  0.10170  0.14820  Biso   1.000  H
  C13      1.0000 0.50960  0.25000  0.32720  Biso   1.000  C
  C14      1.0000 0.00960  0.25000  0.17280  Biso   1.000  C
  C15      1.0000 0.99040  0.75000  0.82720  Biso   1.000  C
  C16      1.0000 0.49040  0.75000  0.67280  Biso   1.000  C
  H13      1.0000 0.56740  0.25000  0.22830  Biso   1.000  H
  H14      1.0000 0.06740  0.25000  0.27170  Biso   1.000  H
  H15      1.0000 0.93260  0.75000  0.72830  Biso   1.000  H
  H16      1.0000 0.43260  0.75000  0.77170  Biso   1.000  H
