data_image0
_cell_length_a       11.61
_cell_length_b       3.8
_cell_length_c       6.49
_cell_angle_alpha    90
_cell_angle_beta     90
_cell_angle_gamma    90

_symmetry_space_group_name_H-M    "P 1"
_symmetry_int_tables_number       1

loop_
  _symmetry_equiv_pos_as_xyz
  'x, y, z'

loop_
  _atom_site_label
  _atom_site_occupancy
  _atom_site_fract_x
  _atom_site_fract_y
  _atom_site_fract_z
  _atom_site_thermal_displace_type
  _atom_site_B_iso_or_equiv
  _atom_site_type_symbol
  Cu1      1.0000 0.50000  0.50000  0.32733  Biso   1.000  Cu
  Cu2      1.0000 0.00000  0.50000  0.32733  Biso   1.000  Cu
  Cl1      1.0000 0.50000  0.00000  0.11771  Biso   1.000  Cl
  Cl2      1.0000 0.00000  0.00000  0.11771  Biso   1.000  Cl
  N1       1.0000 0.35242  0.47130  0.50270  Biso   1.000  N
  N2       1.0000 0.64758  0.52870  0.50270  Biso   1.000  N
  N3       1.0000 0.85242  0.52870  0.50270  Biso   1.000  N
  N4       1.0000 0.14758  0.47130  0.50270  Biso   1.000  N
  C1       1.0000 0.25000  0.54070  0.41800  Biso   1.000  C
  C2       1.0000 0.75000  0.45930  0.41800  Biso   1.000  C
  H1       1.0000 0.25000  0.64670  0.28880  Biso   1.000  H
  H2       1.0000 0.75000  0.35330  0.28880  Biso   1.000  H
  C3       1.0000 0.35128  0.33230  0.69380  Biso   1.000  C
  C4       1.0000 0.64872  0.66770  0.69380  Biso   1.000  C
  C5       1.0000 0.85128  0.66770  0.69380  Biso   1.000  C
  C6       1.0000 0.14872  0.33230  0.69380  Biso   1.000  C
  H3       1.0000 0.42080  0.28190  0.75850  Biso   1.000  H
  H4       1.0000 0.57920  0.71810  0.75850  Biso   1.000  H
  H5       1.0000 0.92080  0.71810  0.75850  Biso   1.000  H
  H6       1.0000 0.07920  0.28190  0.75850  Biso   1.000  H
  C7       1.0000 0.25000  0.26330  0.79540  Biso   1.000  C
  C8       1.0000 0.75000  0.73670  0.79540  Biso   1.000  C
  H7       1.0000 0.25000  0.17290  0.92850  Biso   1.000  H
  H8       1.0000 0.75000  0.82710  0.92850  Biso   1.000  H
