data_image0
_cell_length_a       8.74
_cell_length_b       9.254
_cell_length_c       11.732
_cell_angle_alpha    101.84
_cell_angle_beta     101.24
_cell_angle_gamma    105.54

_symmetry_space_group_name_H-M    "P 1"
_symmetry_int_tables_number       1

loop_
  _symmetry_equiv_pos_as_xyz
  'x, y, z'

loop_
  _atom_site_label
  _atom_site_occupancy
  _atom_site_fract_x
  _atom_site_fract_y
  _atom_site_fract_z
  _atom_site_thermal_displace_type
  _atom_site_B_iso_or_equiv
  _atom_site_type_symbol
  O1       1.0000 0.19170  0.46900  0.92430  Biso   1.000  O
  O2       1.0000 0.80830  0.53100  0.07570  Biso   1.000  O
  O3       1.0000 0.13550  0.65510  0.11640  Biso   1.000  O
  O4       1.0000 0.86450  0.34490  0.88360  Biso   1.000  O
  C1       1.0000 0.43980  0.61050  0.14820  Biso   1.000  C
  C2       1.0000 0.56020  0.38950  0.85180  Biso   1.000  C
  H1       1.0000 0.47220  0.68960  0.22350  Biso   1.000  H
  H2       1.0000 0.52780  0.31040  0.77650  Biso   1.000  H
  H3       1.0000 0.53500  0.60900  0.11920  Biso   1.000  H
  H4       1.0000 0.46500  0.39100  0.88080  Biso   1.000  H
  H5       1.0000 0.39020  0.51070  0.16000  Biso   1.000  H
  H6       1.0000 0.60980  0.48930  0.84000  Biso   1.000  H
  C3       1.0000 0.04930  0.16380  0.80650  Biso   1.000  C
  C4       1.0000 0.95070  0.83620  0.19350  Biso   1.000  C
  H7       1.0000 0.96880  0.06440  0.79420  Biso   1.000  H
  H8       1.0000 0.03120  0.93560  0.20580  Biso   1.000  H
  H9       1.0000 0.15630  0.15190  0.81410  Biso   1.000  H
  H10      1.0000 0.84370  0.84810  0.18590  Biso   1.000  H
  H11      1.0000 0.02300  0.20430  0.73870  Biso   1.000  H
  H12      1.0000 0.97700  0.79570  0.26130  Biso   1.000  H
  N1       1.0000 0.18390  0.80360  0.78820  Biso   1.000  N
  N2       1.0000 0.81610  0.19640  0.21180  Biso   1.000  N
  C5       1.0000 0.07150  0.73190  0.70830  Biso   1.000  C
  C6       1.0000 0.92850  0.26810  0.29170  Biso   1.000  C
  C7       1.0000 0.92870  0.63250  0.61440  Biso   1.000  C
  C8       1.0000 0.07130  0.36750  0.38560  Biso   1.000  C
  C9       1.0000 0.90320  0.65530  0.49970  Biso   1.000  C
  C10      1.0000 0.09680  0.34470  0.50030  Biso   1.000  C
  H13      1.0000 0.97770  0.73540  0.48270  Biso   1.000  H
  H14      1.0000 0.02230  0.26460  0.51730  Biso   1.000  H
  C11      1.0000 0.76580  0.55690  0.41200  Biso   1.000  C
  C12      1.0000 0.23420  0.44310  0.58800  Biso   1.000  C
  H15      1.0000 0.74490  0.57220  0.33530  Biso   1.000  H
  H16      1.0000 0.25510  0.42780  0.66470  Biso   1.000  H
  C13      1.0000 0.66030  0.43800  0.43580  Biso   1.000  C
  C14      1.0000 0.33970  0.56200  0.56420  Biso   1.000  C
  H17      1.0000 0.56950  0.37010  0.37460  Biso   1.000  H
  H18      1.0000 0.43050  0.62990  0.62540  Biso   1.000  H
  C15      1.0000 0.68550  0.41630  0.54900  Biso   1.000  C
  C16      1.0000 0.31450  0.58370  0.45100  Biso   1.000  C
  H19      1.0000 0.61070  0.33600  0.56540  Biso   1.000  H
  H20      1.0000 0.38930  0.66400  0.43460  Biso   1.000  H
  C17      1.0000 0.82050  0.51280  0.63680  Biso   1.000  C
  C18      1.0000 0.17950  0.48720  0.36320  Biso   1.000  C
  H21      1.0000 0.83930  0.49690  0.71340  Biso   1.000  H
  H22      1.0000 0.16070  0.50310  0.28660  Biso   1.000  H
  I1       1.0000 0.34883  0.11789  0.08923  Biso   1.000  I
  I2       1.0000 0.65117  0.88211  0.91077  Biso   1.000  I
  As1      1.0000 0.28385  0.65461  0.03166  Biso   1.000  As
  As2      1.0000 0.71615  0.34539  0.96834  Biso   1.000  As
  As3      1.0000 0.04980  0.30529  0.95081  Biso   1.000  As
  As4      1.0000 0.95020  0.69471  0.04919  Biso   1.000  As
  Cu1      1.0000 0.35840  0.86601  0.94291  Biso   1.000  Cu
  Cu2      1.0000 0.64160  0.13399  0.05709  Biso   1.000  Cu
  N3       1.0000 0.14010  0.02340  0.54860  Biso   1.000  N
  N4       1.0000 0.85990  0.97660  0.45140  Biso   1.000  N
  C19      1.0000 0.26560  0.01400  0.53240  Biso   1.000  C
  C20      1.0000 0.73440  0.98600  0.46760  Biso   1.000  C
  C21      1.0000 0.40810  0.99730  0.50540  Biso   1.000  C
  C22      1.0000 0.59190  0.00270  0.49460  Biso   1.000  C
  C23      1.0000 0.52760  0.97760  0.59260  Biso   1.000  C
  C24      1.0000 0.47240  0.02240  0.40740  Biso   1.000  C
  H23      1.0000 0.51100  0.97490  0.66820  Biso   1.000  H
  H24      1.0000 0.48900  0.02510  0.33180  Biso   1.000  H
  C25      1.0000 0.32820  0.03810  0.43320  Biso   1.000  C
  C26      1.0000 0.67180  0.96190  0.56680  Biso   1.000  C
  H25      1.0000 0.24820  0.05130  0.37480  Biso   1.000  H
  H26      1.0000 0.75180  0.94870  0.62520  Biso   1.000  H
  C27      1.0000 0.30340  0.03400  0.54620  Biso   1.000  C
  C28      1.0000 0.69660  0.96600  0.45380  Biso   1.000  C
  H27      1.0000 0.20690  0.04450  0.56340  Biso   1.000  H
  H28      1.0000 0.79310  0.95550  0.43660  Biso   1.000  H
  C29      1.0000 0.42290  0.01430  0.63340  Biso   1.000  C
  C30      1.0000 0.57710  0.98570  0.36660  Biso   1.000  C
  H29      1.0000 0.40630  0.01160  0.70900  Biso   1.000  H
  H30      1.0000 0.59370  0.98840  0.29100  Biso   1.000  H
  C31      1.0000 0.43280  0.00140  0.39240  Biso   1.000  C
  C32      1.0000 0.56720  0.99860  0.60760  Biso   1.000  C
  H31      1.0000 0.64710  0.98540  0.66600  Biso   1.000  H
  H32      1.0000 0.35290  0.01460  0.33400  Biso   1.000  H
