data_image0
_cell_length_a       7.861
_cell_length_b       9.021
_cell_length_c       9.199
_cell_angle_alpha    63.19
_cell_angle_beta     84.64
_cell_angle_gamma    69.99

_symmetry_space_group_name_H-M    "P 1"
_symmetry_int_tables_number       1

loop_
  _symmetry_equiv_pos_as_xyz
  'x, y, z'

loop_
  _atom_site_label
  _atom_site_occupancy
  _atom_site_fract_x
  _atom_site_fract_y
  _atom_site_fract_z
  _atom_site_thermal_displace_type
  _atom_site_B_iso_or_equiv
  _atom_site_type_symbol
  O1       1.0000 0.61650  0.31120  0.43010  Biso   1.000  O
  O2       1.0000 0.38350  0.68880  0.56990  Biso   1.000  O
  O3       1.0000 0.71930  0.43250  0.61130  Biso   1.000  O
  O4       1.0000 0.28070  0.56750  0.38870  Biso   1.000  O
  C1       1.0000 0.89050  0.08320  0.67160  Biso   1.000  C
  C2       1.0000 0.10950  0.91680  0.32840  Biso   1.000  C
  H1       1.0000 0.94250  0.04130  0.77910  Biso   1.000  H
  H2       1.0000 0.05750  0.95870  0.22090  Biso   1.000  H
  H3       1.0000 0.96480  0.13910  0.59180  Biso   1.000  H
  H4       1.0000 0.03520  0.86090  0.40820  Biso   1.000  H
  H5       1.0000 0.88400  0.98570  0.65800  Biso   1.000  H
  H6       1.0000 0.11600  0.01430  0.34200  Biso   1.000  H
  C3       1.0000 0.28560  0.25500  0.41390  Biso   1.000  C
  C4       1.0000 0.71440  0.74500  0.58610  Biso   1.000  C
  H7       1.0000 0.16350  0.30430  0.36640  Biso   1.000  H
  H8       1.0000 0.83650  0.69570  0.63360  Biso   1.000  H
  H9       1.0000 0.34730  0.14750  0.40540  Biso   1.000  H
  H10      1.0000 0.65270  0.85250  0.59460  Biso   1.000  H
  H11      1.0000 0.28400  0.23060  0.52690  Biso   1.000  H
  H12      1.0000 0.71600  0.76940  0.47310  Biso   1.000  H
  N1       1.0000 0.18580  0.39060  0.76730  Biso   1.000  N
  N2       1.0000 0.81420  0.60940  0.23270  Biso   1.000  N
  H13      1.0000 0.20380  0.48510  0.68360  Biso   1.000  H
  H14      1.0000 0.79620  0.51490  0.31640  Biso   1.000  H
  H15      1.0000 0.11150  0.35820  0.72790  Biso   1.000  H
  H16      1.0000 0.88850  0.64180  0.27210  Biso   1.000  H
  C5       1.0000 0.09150  0.44650  0.88480  Biso   1.000  C
  C6       1.0000 0.90850  0.55350  0.11520  Biso   1.000  C
  C7       1.0000 0.11750  0.57990  0.90610  Biso   1.000  C
  C8       1.0000 0.88250  0.42010  0.09390  Biso   1.000  C
  H17      1.0000 0.19760  0.63470  0.84290  Biso   1.000  H
  H18      1.0000 0.80240  0.36530  0.15710  Biso   1.000  H
  C9       1.0000 0.97360  0.36690  0.98020  Biso   1.000  C
  C10      1.0000 0.02640  0.63310  0.01980  Biso   1.000  C
  H19      1.0000 0.95470  0.27650  0.96840  Biso   1.000  H
  H20      1.0000 0.04530  0.72350  0.03160  Biso   1.000  H
  I1       1.0000 0.38993  0.88970  0.89044  Biso   1.000  I
  I2       1.0000 0.61007  0.11030  0.10956  Biso   1.000  I
  As1      1.0000 0.65000  0.25095  0.64269  Biso   1.000  As
  As2      1.0000 0.35000  0.74905  0.35731  Biso   1.000  As
  As3      1.0000 0.41090  0.42040  0.30003  Biso   1.000  As
  As4      1.0000 0.58910  0.57960  0.69997  Biso   1.000  As
  Cu1      1.0000 0.43770  0.18350  0.84240  Biso   1.000  Cu
  Cu2      1.0000 0.56230  0.81650  0.15760  Biso   1.000  Cu
