data_image0
_cell_length_a       18.4873
_cell_length_b       18.4873
_cell_length_c       25.7549
_cell_angle_alpha    90
_cell_angle_beta     90
_cell_angle_gamma    120

_symmetry_space_group_name_H-M    "P 1"
_symmetry_int_tables_number       1

loop_
  _symmetry_equiv_pos_as_xyz
  'x, y, z'

loop_
  _atom_site_label
  _atom_site_occupancy
  _atom_site_fract_x
  _atom_site_fract_y
  _atom_site_fract_z
  _atom_site_thermal_displace_type
  _atom_site_B_iso_or_equiv
  _atom_site_type_symbol
  Cu1      1.0000 0.88646  0.92363  0.06095  Biso   1.000  Cu
  Cu2      1.0000 0.07637  0.96283  0.06095  Biso   1.000  Cu
  Cu3      1.0000 0.03717  0.11354  0.06095  Biso   1.000  Cu
  Cu4      1.0000 0.55313  0.25696  0.39428  Biso   1.000  Cu
  Cu5      1.0000 0.74304  0.29616  0.39428  Biso   1.000  Cu
  Cu6      1.0000 0.70384  0.44687  0.39428  Biso   1.000  Cu
  Cu7      1.0000 0.21979  0.59030  0.72762  Biso   1.000  Cu
  Cu8      1.0000 0.40970  0.62950  0.72762  Biso   1.000  Cu
  Cu9      1.0000 0.37050  0.78021  0.72762  Biso   1.000  Cu
  Cu10     1.0000 0.11354  0.07637  0.93905  Biso   1.000  Cu
  Cu11     1.0000 0.92363  0.03717  0.93905  Biso   1.000  Cu
  Cu12     1.0000 0.96283  0.88646  0.93905  Biso   1.000  Cu
  Cu13     1.0000 0.78021  0.40970  0.27238  Biso   1.000  Cu
  Cu14     1.0000 0.59030  0.37050  0.27238  Biso   1.000  Cu
  Cu15     1.0000 0.62950  0.21979  0.27238  Biso   1.000  Cu
  Cu16     1.0000 0.44687  0.74304  0.60572  Biso   1.000  Cu
  Cu17     1.0000 0.25696  0.70384  0.60572  Biso   1.000  Cu
  Cu18     1.0000 0.29616  0.55313  0.60572  Biso   1.000  Cu
  Cu19     1.0000 0.27045  0.69905  0.00541  Biso   1.000  Cu
  Cu20     1.0000 0.30095  0.57140  0.00541  Biso   1.000  Cu
  Cu21     1.0000 0.42860  0.72955  0.00541  Biso   1.000  Cu
  Cu22     1.0000 0.93712  0.03238  0.33874  Biso   1.000  Cu
  Cu23     1.0000 0.96762  0.90473  0.33874  Biso   1.000  Cu
  Cu24     1.0000 0.09527  0.06288  0.33874  Biso   1.000  Cu
  Cu25     1.0000 0.60378  0.36572  0.67208  Biso   1.000  Cu
  Cu26     1.0000 0.63428  0.23807  0.67208  Biso   1.000  Cu
  Cu27     1.0000 0.76193  0.39622  0.67208  Biso   1.000  Cu
  Cu28     1.0000 0.72955  0.30095  0.99459  Biso   1.000  Cu
  Cu29     1.0000 0.69905  0.42860  0.99459  Biso   1.000  Cu
  Cu30     1.0000 0.57140  0.27045  0.99459  Biso   1.000  Cu
  Cu31     1.0000 0.39622  0.63428  0.32792  Biso   1.000  Cu
  Cu32     1.0000 0.36572  0.76193  0.32792  Biso   1.000  Cu
  Cu33     1.0000 0.23807  0.60378  0.32792  Biso   1.000  Cu
  Cu34     1.0000 0.06288  0.96762  0.66126  Biso   1.000  Cu
  Cu35     1.0000 0.03238  0.09527  0.66126  Biso   1.000  Cu
  Cu36     1.0000 0.90473  0.93712  0.66126  Biso   1.000  Cu
  Cu37     1.0000 0.33330  0.66670  0.92210  Biso   1.000  Cu
  Cu38     1.0000 0.99997  0.00003  0.25543  Biso   1.000  Cu
  Cu39     1.0000 0.66663  0.33337  0.58877  Biso   1.000  Cu
  Cu40     1.0000 0.66670  0.33330  0.07790  Biso   1.000  Cu
  Cu41     1.0000 0.33337  0.66663  0.41123  Biso   1.000  Cu
  Cu42     1.0000 0.00003  0.99997  0.74457  Biso   1.000  Cu
  I1       1.0000 0.33330  0.66670  0.08880  Biso   1.000  I
  I2       1.0000 0.99997  0.00003  0.42213  Biso   1.000  I
  I3       1.0000 0.66663  0.33337  0.75547  Biso   1.000  I
  I4       1.0000 0.66670  0.33330  0.91120  Biso   1.000  I
  I5       1.0000 0.33337  0.66663  0.24453  Biso   1.000  I
  I6       1.0000 0.00003  0.99997  0.57787  Biso   1.000  I
  I7       1.0000 0.38004  0.82615  0.94696  Biso   1.000  I
  I8       1.0000 0.17385  0.55389  0.94696  Biso   1.000  I
  I9       1.0000 0.44611  0.61996  0.94696  Biso   1.000  I
  I10      1.0000 0.04671  0.15948  0.28029  Biso   1.000  I
  I11      1.0000 0.84052  0.88722  0.28029  Biso   1.000  I
  I12      1.0000 0.11278  0.95329  0.28029  Biso   1.000  I
  I13      1.0000 0.71337  0.49282  0.61363  Biso   1.000  I
  I14      1.0000 0.50718  0.22056  0.61363  Biso   1.000  I
  I15      1.0000 0.77944  0.28663  0.61363  Biso   1.000  I
  I16      1.0000 0.61996  0.17385  0.05304  Biso   1.000  I
  I17      1.0000 0.82615  0.44611  0.05304  Biso   1.000  I
  I18      1.0000 0.55389  0.38004  0.05304  Biso   1.000  I
  I19      1.0000 0.28663  0.50718  0.38637  Biso   1.000  I
  I20      1.0000 0.49282  0.77944  0.38637  Biso   1.000  I
  I21      1.0000 0.22056  0.71337  0.38637  Biso   1.000  I
  I22      1.0000 0.95329  0.84052  0.71971  Biso   1.000  I
  I23      1.0000 0.15948  0.11278  0.71971  Biso   1.000  I
  I24      1.0000 0.88722  0.04671  0.71971  Biso   1.000  I
  N1       1.0000 0.91340  0.84060  0.07378  Biso   1.000  N
  N2       1.0000 0.15940  0.07280  0.07378  Biso   1.000  N
  N3       1.0000 0.92720  0.08660  0.07378  Biso   1.000  N
  N4       1.0000 0.58007  0.17393  0.40711  Biso   1.000  N
  N5       1.0000 0.82607  0.40613  0.40711  Biso   1.000  N
  N6       1.0000 0.59387  0.41993  0.40711  Biso   1.000  N
  N7       1.0000 0.24673  0.50727  0.74045  Biso   1.000  N
  N8       1.0000 0.49273  0.73947  0.74045  Biso   1.000  N
  N9       1.0000 0.26053  0.75327  0.74045  Biso   1.000  N
  N10      1.0000 0.08660  0.15940  0.92622  Biso   1.000  N
  N11      1.0000 0.84060  0.92720  0.92622  Biso   1.000  N
  N12      1.0000 0.07280  0.91340  0.92622  Biso   1.000  N
  N13      1.0000 0.75327  0.49273  0.25955  Biso   1.000  N
  N14      1.0000 0.50727  0.26053  0.25955  Biso   1.000  N
  N15      1.0000 0.73947  0.24673  0.25955  Biso   1.000  N
  N16      1.0000 0.41993  0.82607  0.59289  Biso   1.000  N
  N17      1.0000 0.17393  0.59387  0.59289  Biso   1.000  N
  N18      1.0000 0.40613  0.58007  0.59289  Biso   1.000  N
  N19      1.0000 0.98990  0.85150  0.06007  Biso   1.000  N
  N20      1.0000 0.14850  0.13840  0.06007  Biso   1.000  N
  N21      1.0000 0.86160  0.01010  0.06007  Biso   1.000  N
  N22      1.0000 0.65657  0.18483  0.39340  Biso   1.000  N
  N23      1.0000 0.81517  0.47173  0.39340  Biso   1.000  N
  N24      1.0000 0.52827  0.34343  0.39340  Biso   1.000  N
  N25      1.0000 0.32323  0.51817  0.72674  Biso   1.000  N
  N26      1.0000 0.48183  0.80507  0.72674  Biso   1.000  N
  N27      1.0000 0.19493  0.67677  0.72674  Biso   1.000  N
  N28      1.0000 0.01010  0.14850  0.93993  Biso   1.000  N
  N29      1.0000 0.85150  0.86160  0.93993  Biso   1.000  N
  N30      1.0000 0.13840  0.98990  0.93993  Biso   1.000  N
  N31      1.0000 0.67677  0.48183  0.27326  Biso   1.000  N
  N32      1.0000 0.51817  0.19493  0.27326  Biso   1.000  N
  N33      1.0000 0.80507  0.32323  0.27326  Biso   1.000  N
  N34      1.0000 0.34343  0.81517  0.60660  Biso   1.000  N
  N35      1.0000 0.18483  0.52827  0.60660  Biso   1.000  N
  N36      1.0000 0.47173  0.65657  0.60660  Biso   1.000  N
  N37      1.0000 0.18310  0.72800  0.02801  Biso   1.000  N
  N38      1.0000 0.27200  0.45510  0.02801  Biso   1.000  N
  N39      1.0000 0.54490  0.81690  0.02801  Biso   1.000  N
  N40      1.0000 0.84977  0.06133  0.36134  Biso   1.000  N
  N41      1.0000 0.93867  0.78843  0.36134  Biso   1.000  N
  N42      1.0000 0.21157  0.15023  0.36134  Biso   1.000  N
  N43      1.0000 0.51643  0.39467  0.69468  Biso   1.000  N
  N44      1.0000 0.60533  0.12177  0.69468  Biso   1.000  N
  N45      1.0000 0.87823  0.48357  0.69468  Biso   1.000  N
  N46      1.0000 0.81690  0.27200  0.97199  Biso   1.000  N
  N47      1.0000 0.72800  0.54490  0.97199  Biso   1.000  N
  N48      1.0000 0.45510  0.18310  0.97199  Biso   1.000  N
  N49      1.0000 0.48357  0.60533  0.30532  Biso   1.000  N
  N50      1.0000 0.39467  0.87823  0.30532  Biso   1.000  N
  N51      1.0000 0.12177  0.51643  0.30532  Biso   1.000  N
  N52      1.0000 0.15023  0.93867  0.63866  Biso   1.000  N
  N53      1.0000 0.06133  0.21157  0.63866  Biso   1.000  N
  N54      1.0000 0.78843  0.84977  0.63866  Biso   1.000  N
  N55      1.0000 0.33330  0.66670  0.84280  Biso   1.000  N
  N56      1.0000 0.99997  0.00003  0.17613  Biso   1.000  N
  N57      1.0000 0.66663  0.33337  0.50947  Biso   1.000  N
  N58      1.0000 0.66670  0.33330  0.15720  Biso   1.000  N
  N59      1.0000 0.33337  0.66663  0.49053  Biso   1.000  N
  N60      1.0000 0.00003  0.99997  0.82387  Biso   1.000  N
  H1       1.0000 0.28890  0.66850  0.83130  Biso   1.000  H
  H2       1.0000 0.33150  0.62040  0.83130  Biso   1.000  H
  H3       1.0000 0.37960  0.71110  0.83130  Biso   1.000  H
  H4       1.0000 0.95557  0.00183  0.16463  Biso   1.000  H
  H5       1.0000 0.99817  0.95373  0.16463  Biso   1.000  H
  H6       1.0000 0.04627  0.04443  0.16463  Biso   1.000  H
  H7       1.0000 0.62223  0.33517  0.49797  Biso   1.000  H
  H8       1.0000 0.66483  0.28707  0.49797  Biso   1.000  H
  H9       1.0000 0.71293  0.37777  0.49797  Biso   1.000  H
  H10      1.0000 0.71110  0.33150  0.16870  Biso   1.000  H
  H11      1.0000 0.66850  0.37960  0.16870  Biso   1.000  H
  H12      1.0000 0.62040  0.28890  0.16870  Biso   1.000  H
  H13      1.0000 0.37777  0.66483  0.50203  Biso   1.000  H
  H14      1.0000 0.33517  0.71293  0.50203  Biso   1.000  H
  H15      1.0000 0.28707  0.62223  0.50203  Biso   1.000  H
  H16      1.0000 0.04443  0.99817  0.83537  Biso   1.000  H
  H17      1.0000 0.00183  0.04627  0.83537  Biso   1.000  H
  H18      1.0000 0.95373  0.95557  0.83537  Biso   1.000  H
  C1       1.0000 0.13520  0.82500  0.04066  Biso   1.000  C
  C2       1.0000 0.17500  0.31020  0.04066  Biso   1.000  C
  C3       1.0000 0.68980  0.86480  0.04066  Biso   1.000  C
  C4       1.0000 0.80187  0.15833  0.37399  Biso   1.000  C
  C5       1.0000 0.84167  0.64353  0.37399  Biso   1.000  C
  C6       1.0000 0.35647  0.19813  0.37399  Biso   1.000  C
  C7       1.0000 0.46853  0.49167  0.70733  Biso   1.000  C
  C8       1.0000 0.50833  0.97687  0.70733  Biso   1.000  C
  C9       1.0000 0.02313  0.53147  0.70733  Biso   1.000  C
  C10      1.0000 0.86480  0.17500  0.95934  Biso   1.000  C
  C11      1.0000 0.82500  0.68980  0.95934  Biso   1.000  C
  C12      1.0000 0.31020  0.13520  0.95934  Biso   1.000  C
  C13      1.0000 0.53147  0.50833  0.29267  Biso   1.000  C
  C14      1.0000 0.49167  0.02313  0.29267  Biso   1.000  C
  C15      1.0000 0.97687  0.46853  0.29267  Biso   1.000  C
  C16      1.0000 0.19813  0.84167  0.62601  Biso   1.000  C
  C17      1.0000 0.15833  0.35647  0.62601  Biso   1.000  C
  C18      1.0000 0.64353  0.80187  0.62601  Biso   1.000  C
  H19      1.0000 0.14760  0.88030  0.03950  Biso   1.000  H
  H20      1.0000 0.11970  0.26730  0.03950  Biso   1.000  H
  H21      1.0000 0.73270  0.85240  0.03950  Biso   1.000  H
  H22      1.0000 0.81427  0.21363  0.37283  Biso   1.000  H
  H23      1.0000 0.78637  0.60063  0.37283  Biso   1.000  H
  H24      1.0000 0.39937  0.18573  0.37283  Biso   1.000  H
  H25      1.0000 0.48093  0.54697  0.70617  Biso   1.000  H
  H26      1.0000 0.45303  0.93397  0.70617  Biso   1.000  H
  H27      1.0000 0.06603  0.51907  0.70617  Biso   1.000  H
  H28      1.0000 0.85240  0.11970  0.96050  Biso   1.000  H
  H29      1.0000 0.88030  0.73270  0.96050  Biso   1.000  H
  H30      1.0000 0.26730  0.14760  0.96050  Biso   1.000  H
  H31      1.0000 0.51907  0.45303  0.29383  Biso   1.000  H
  H32      1.0000 0.54697  0.06603  0.29383  Biso   1.000  H
  H33      1.0000 0.93397  0.48093  0.29383  Biso   1.000  H
  H34      1.0000 0.18573  0.78637  0.62717  Biso   1.000  H
  H35      1.0000 0.21363  0.39937  0.62717  Biso   1.000  H
  H36      1.0000 0.60063  0.81427  0.62717  Biso   1.000  H
  C19      1.0000 0.19580  0.80560  0.02871  Biso   1.000  C
  C20      1.0000 0.19440  0.39020  0.02871  Biso   1.000  C
  C21      1.0000 0.60980  0.80420  0.02871  Biso   1.000  C
  C22      1.0000 0.86247  0.13893  0.36204  Biso   1.000  C
  C23      1.0000 0.86107  0.72353  0.36204  Biso   1.000  C
  C24      1.0000 0.27647  0.13753  0.36204  Biso   1.000  C
  C25      1.0000 0.52913  0.47227  0.69538  Biso   1.000  C
  C26      1.0000 0.52773  0.05687  0.69538  Biso   1.000  C
  C27      1.0000 0.94313  0.47087  0.69538  Biso   1.000  C
  C28      1.0000 0.80420  0.19440  0.97129  Biso   1.000  C
  C29      1.0000 0.80560  0.60980  0.97129  Biso   1.000  C
  C30      1.0000 0.39020  0.19580  0.97129  Biso   1.000  C
  C31      1.0000 0.47087  0.52773  0.30462  Biso   1.000  C
  C32      1.0000 0.47227  0.94313  0.30462  Biso   1.000  C
  C33      1.0000 0.05687  0.52913  0.30462  Biso   1.000  C
  C34      1.0000 0.13753  0.86107  0.63796  Biso   1.000  C
  C35      1.0000 0.13893  0.27647  0.63796  Biso   1.000  C
  C36      1.0000 0.72353  0.86247  0.63796  Biso   1.000  C
  H37      1.0000 0.24890  0.84910  0.02060  Biso   1.000  H
  H38      1.0000 0.15090  0.39980  0.02060  Biso   1.000  H
  H39      1.0000 0.60020  0.75110  0.02060  Biso   1.000  H
  H40      1.0000 0.91557  0.18243  0.35393  Biso   1.000  H
  H41      1.0000 0.81757  0.73313  0.35393  Biso   1.000  H
  H42      1.0000 0.26687  0.08443  0.35393  Biso   1.000  H
  H43      1.0000 0.58223  0.51577  0.68727  Biso   1.000  H
  H44      1.0000 0.48423  0.06647  0.68727  Biso   1.000  H
  H45      1.0000 0.93353  0.41777  0.68727  Biso   1.000  H
  H46      1.0000 0.75110  0.15090  0.97940  Biso   1.000  H
  H47      1.0000 0.84910  0.60020  0.97940  Biso   1.000  H
  H48      1.0000 0.39980  0.24890  0.97940  Biso   1.000  H
  H49      1.0000 0.41777  0.48423  0.31273  Biso   1.000  H
  H50      1.0000 0.51577  0.93353  0.31273  Biso   1.000  H
  H51      1.0000 0.06647  0.58223  0.31273  Biso   1.000  H
  H52      1.0000 0.08443  0.81757  0.64607  Biso   1.000  H
  H53      1.0000 0.18243  0.26687  0.64607  Biso   1.000  H
  H54      1.0000 0.73313  0.91557  0.64607  Biso   1.000  H
  C37      1.0000 0.10630  0.66780  0.04120  Biso   1.000  C
  C38      1.0000 0.33220  0.43850  0.04120  Biso   1.000  C
  C39      1.0000 0.56150  0.89370  0.04120  Biso   1.000  C
  C40      1.0000 0.77297  0.00113  0.37453  Biso   1.000  C
  C41      1.0000 0.99887  0.77183  0.37453  Biso   1.000  C
  C42      1.0000 0.22817  0.22703  0.37453  Biso   1.000  C
  C43      1.0000 0.43963  0.33447  0.70787  Biso   1.000  C
  C44      1.0000 0.66553  0.10517  0.70787  Biso   1.000  C
  C45      1.0000 0.89483  0.56037  0.70787  Biso   1.000  C
  C46      1.0000 0.89370  0.33220  0.95880  Biso   1.000  C
  C47      1.0000 0.66780  0.56150  0.95880  Biso   1.000  C
  C48      1.0000 0.43850  0.10630  0.95880  Biso   1.000  C
  C49      1.0000 0.56037  0.66553  0.29213  Biso   1.000  C
  C50      1.0000 0.33447  0.89483  0.29213  Biso   1.000  C
  C51      1.0000 0.10517  0.43963  0.29213  Biso   1.000  C
  C52      1.0000 0.22703  0.99887  0.62547  Biso   1.000  C
  C53      1.0000 0.00113  0.22817  0.62547  Biso   1.000  C
  C54      1.0000 0.77183  0.77297  0.62547  Biso   1.000  C
  H55      1.0000 0.09550  0.61300  0.04170  Biso   1.000  H
  H56      1.0000 0.38700  0.48250  0.04170  Biso   1.000  H
  H57      1.0000 0.51750  0.90450  0.04170  Biso   1.000  H
  H58      1.0000 0.76217  0.94633  0.37503  Biso   1.000  H
  H59      1.0000 0.05367  0.81583  0.37503  Biso   1.000  H
  H60      1.0000 0.18417  0.23783  0.37503  Biso   1.000  H
  H61      1.0000 0.42883  0.27967  0.70837  Biso   1.000  H
  H62      1.0000 0.72033  0.14917  0.70837  Biso   1.000  H
  H63      1.0000 0.85083  0.57117  0.70837  Biso   1.000  H
  H64      1.0000 0.90450  0.38700  0.95830  Biso   1.000  H
  H65      1.0000 0.61300  0.51750  0.95830  Biso   1.000  H
  H66      1.0000 0.48250  0.09550  0.95830  Biso   1.000  H
  H67      1.0000 0.57117  0.72033  0.29163  Biso   1.000  H
  H68      1.0000 0.27967  0.85083  0.29163  Biso   1.000  H
  H69      1.0000 0.14917  0.42883  0.29163  Biso   1.000  H
  H70      1.0000 0.23783  0.05367  0.62497  Biso   1.000  H
  H71      1.0000 0.94633  0.18417  0.62497  Biso   1.000  H
  H72      1.0000 0.81583  0.76217  0.62497  Biso   1.000  H
  C55      1.0000 0.04310  0.68220  0.05410  Biso   1.000  C
  C56      1.0000 0.31780  0.36090  0.05410  Biso   1.000  C
  C57      1.0000 0.63910  0.95690  0.05410  Biso   1.000  C
  C58      1.0000 0.70977  0.01553  0.38743  Biso   1.000  C
  C59      1.0000 0.98447  0.69423  0.38743  Biso   1.000  C
  C60      1.0000 0.30577  0.29023  0.38743  Biso   1.000  C
  C61      1.0000 0.37643  0.34887  0.72077  Biso   1.000  C
  C62      1.0000 0.65113  0.02757  0.72077  Biso   1.000  C
  C63      1.0000 0.97243  0.62357  0.72077  Biso   1.000  C
  C64      1.0000 0.95690  0.31780  0.94590  Biso   1.000  C
  C65      1.0000 0.68220  0.63910  0.94590  Biso   1.000  C
  C66      1.0000 0.36090  0.04310  0.94590  Biso   1.000  C
  C67      1.0000 0.62357  0.65113  0.27923  Biso   1.000  C
  C68      1.0000 0.34887  0.97243  0.27923  Biso   1.000  C
  C69      1.0000 0.02757  0.37643  0.27923  Biso   1.000  C
  C70      1.0000 0.29023  0.98447  0.61257  Biso   1.000  C
  C71      1.0000 0.01553  0.30577  0.61257  Biso   1.000  C
  C72      1.0000 0.69423  0.70977  0.61257  Biso   1.000  C
  H73      1.0000 0.99090  0.63770  0.06270  Biso   1.000  H
  H74      1.0000 0.36230  0.35320  0.06270  Biso   1.000  H
  H75      1.0000 0.64680  0.00910  0.06270  Biso   1.000  H
  H76      1.0000 0.65757  0.97103  0.39603  Biso   1.000  H
  H77      1.0000 0.02897  0.68653  0.39603  Biso   1.000  H
  H78      1.0000 0.31347  0.34243  0.39603  Biso   1.000  H
  H79      1.0000 0.32423  0.30437  0.72937  Biso   1.000  H
  H80      1.0000 0.69563  0.01987  0.72937  Biso   1.000  H
  H81      1.0000 0.98013  0.67577  0.72937  Biso   1.000  H
  H82      1.0000 0.00910  0.36230  0.93730  Biso   1.000  H
  H83      1.0000 0.63770  0.64680  0.93730  Biso   1.000  H
  H84      1.0000 0.35320  0.99090  0.93730  Biso   1.000  H
  H85      1.0000 0.67577  0.69563  0.27063  Biso   1.000  H
  H86      1.0000 0.30437  0.98013  0.27063  Biso   1.000  H
  H87      1.0000 0.01987  0.32423  0.27063  Biso   1.000  H
  H88      1.0000 0.34243  0.02897  0.60397  Biso   1.000  H
  H89      1.0000 0.97103  0.31347  0.60397  Biso   1.000  H
  H90      1.0000 0.68653  0.65757  0.60397  Biso   1.000  H
  C73      1.0000 0.05620  0.76330  0.05430  Biso   1.000  C
  C74      1.0000 0.23670  0.29290  0.05430  Biso   1.000  C
  C75      1.0000 0.70710  0.94380  0.05430  Biso   1.000  C
  C76      1.0000 0.72287  0.09663  0.38763  Biso   1.000  C
  C77      1.0000 0.90337  0.62623  0.38763  Biso   1.000  C
  C78      1.0000 0.37377  0.27713  0.38763  Biso   1.000  C
  C79      1.0000 0.38953  0.42997  0.72097  Biso   1.000  C
  C80      1.0000 0.57003  0.95957  0.72097  Biso   1.000  C
  C81      1.0000 0.04043  0.61047  0.72097  Biso   1.000  C
  C82      1.0000 0.94380  0.23670  0.94570  Biso   1.000  C
  C83      1.0000 0.76330  0.70710  0.94570  Biso   1.000  C
  C84      1.0000 0.29290  0.05620  0.94570  Biso   1.000  C
  C85      1.0000 0.61047  0.57003  0.27903  Biso   1.000  C
  C86      1.0000 0.42997  0.04043  0.27903  Biso   1.000  C
  C87      1.0000 0.95957  0.38953  0.27903  Biso   1.000  C
  C88      1.0000 0.27713  0.90337  0.61237  Biso   1.000  C
  C89      1.0000 0.09663  0.37377  0.61237  Biso   1.000  C
  C90      1.0000 0.62623  0.72287  0.61237  Biso   1.000  C
  C91      1.0000 0.98680  0.77720  0.06690  Biso   1.000  C
  C92      1.0000 0.22280  0.20960  0.06690  Biso   1.000  C
  C93      1.0000 0.79040  0.01320  0.06690  Biso   1.000  C
  C94      1.0000 0.65347  0.11053  0.40023  Biso   1.000  C
  C95      1.0000 0.88947  0.54293  0.40023  Biso   1.000  C
  C96      1.0000 0.45707  0.34653  0.40023  Biso   1.000  C
  C97      1.0000 0.32013  0.44387  0.73357  Biso   1.000  C
  C98      1.0000 0.55613  0.87627  0.73357  Biso   1.000  C
  C99      1.0000 0.12373  0.67987  0.73357  Biso   1.000  C
  C100     1.0000 0.01320  0.22280  0.93310  Biso   1.000  C
  C101     1.0000 0.77720  0.79040  0.93310  Biso   1.000  C
  C102     1.0000 0.20960  0.98680  0.93310  Biso   1.000  C
  C103     1.0000 0.67987  0.55613  0.26643  Biso   1.000  C
  C104     1.0000 0.44387  0.12373  0.26643  Biso   1.000  C
  C105     1.0000 0.87627  0.32013  0.26643  Biso   1.000  C
  C106     1.0000 0.34653  0.88947  0.59977  Biso   1.000  C
  C107     1.0000 0.11053  0.45707  0.59977  Biso   1.000  C
  C108     1.0000 0.54293  0.65347  0.59977  Biso   1.000  C
  C109     1.0000 0.90910  0.71950  0.08528  Biso   1.000  C
  C110     1.0000 0.28050  0.18960  0.08528  Biso   1.000  C
  C111     1.0000 0.81040  0.09090  0.08528  Biso   1.000  C
  C112     1.0000 0.57577  0.05283  0.41861  Biso   1.000  C
  C113     1.0000 0.94717  0.52293  0.41861  Biso   1.000  C
  C114     1.0000 0.47707  0.42423  0.41861  Biso   1.000  C
  C115     1.0000 0.24243  0.38617  0.75195  Biso   1.000  C
  C116     1.0000 0.61383  0.85627  0.75195  Biso   1.000  C
  C117     1.0000 0.14373  0.75757  0.75195  Biso   1.000  C
  C118     1.0000 0.09090  0.28050  0.91472  Biso   1.000  C
  C119     1.0000 0.71950  0.81040  0.91472  Biso   1.000  C
  C120     1.0000 0.18960  0.90910  0.91472  Biso   1.000  C
  C121     1.0000 0.75757  0.61383  0.24805  Biso   1.000  C
  C122     1.0000 0.38617  0.14373  0.24805  Biso   1.000  C
  C123     1.0000 0.85627  0.24243  0.24805  Biso   1.000  C
  C124     1.0000 0.42423  0.94717  0.58139  Biso   1.000  C
  C125     1.0000 0.05283  0.47707  0.58139  Biso   1.000  C
  C126     1.0000 0.52293  0.57577  0.58139  Biso   1.000  C
  H91      1.0000 0.89040  0.66380  0.09320  Biso   1.000  H
  H92      1.0000 0.33620  0.22660  0.09320  Biso   1.000  H
  H93      1.0000 0.77340  0.10960  0.09320  Biso   1.000  H
  H94      1.0000 0.55707  0.99713  0.42653  Biso   1.000  H
  H95      1.0000 0.00287  0.55993  0.42653  Biso   1.000  H
  H96      1.0000 0.44007  0.44293  0.42653  Biso   1.000  H
  H97      1.0000 0.22373  0.33047  0.75987  Biso   1.000  H
  H98      1.0000 0.66953  0.89327  0.75987  Biso   1.000  H
  H99      1.0000 0.10673  0.77627  0.75987  Biso   1.000  H
  H100     1.0000 0.10960  0.33620  0.90680  Biso   1.000  H
  H101     1.0000 0.66380  0.77340  0.90680  Biso   1.000  H
  H102     1.0000 0.22660  0.89040  0.90680  Biso   1.000  H
  H103     1.0000 0.77627  0.66953  0.24013  Biso   1.000  H
  H104     1.0000 0.33047  0.10673  0.24013  Biso   1.000  H
  H105     1.0000 0.89327  0.22373  0.24013  Biso   1.000  H
  H106     1.0000 0.44293  0.00287  0.57347  Biso   1.000  H
  H107     1.0000 0.99713  0.44007  0.57347  Biso   1.000  H
  H108     1.0000 0.55993  0.55707  0.57347  Biso   1.000  H
  C127     1.0000 0.86420  0.76080  0.08960  Biso   1.000  C
  C128     1.0000 0.23920  0.10340  0.08960  Biso   1.000  C
  C129     1.0000 0.89660  0.13580  0.08960  Biso   1.000  C
  C130     1.0000 0.53087  0.09413  0.42293  Biso   1.000  C
  C131     1.0000 0.90587  0.43673  0.42293  Biso   1.000  C
  C132     1.0000 0.56327  0.46913  0.42293  Biso   1.000  C
  C133     1.0000 0.19753  0.42747  0.75627  Biso   1.000  C
  C134     1.0000 0.57253  0.77007  0.75627  Biso   1.000  C
  C135     1.0000 0.22993  0.80247  0.75627  Biso   1.000  C
  C136     1.0000 0.13580  0.23920  0.91040  Biso   1.000  C
  C137     1.0000 0.76080  0.89660  0.91040  Biso   1.000  C
  C138     1.0000 0.10340  0.86420  0.91040  Biso   1.000  C
  C139     1.0000 0.80247  0.57253  0.24373  Biso   1.000  C
  C140     1.0000 0.42747  0.22993  0.24373  Biso   1.000  C
  C141     1.0000 0.77007  0.19753  0.24373  Biso   1.000  C
  C142     1.0000 0.46913  0.90587  0.57707  Biso   1.000  C
  C143     1.0000 0.09413  0.56327  0.57707  Biso   1.000  C
  C144     1.0000 0.43673  0.53087  0.57707  Biso   1.000  C
  C145     1.0000 0.77820  0.73010  0.10696  Biso   1.000  C
  C146     1.0000 0.26990  0.04810  0.10696  Biso   1.000  C
  C147     1.0000 0.95190  0.22180  0.10696  Biso   1.000  C
  C148     1.0000 0.44487  0.06343  0.44029  Biso   1.000  C
  C149     1.0000 0.93657  0.38143  0.44029  Biso   1.000  C
  C150     1.0000 0.61857  0.55513  0.44029  Biso   1.000  C
  C151     1.0000 0.11153  0.39677  0.77363  Biso   1.000  C
  C152     1.0000 0.60323  0.71477  0.77363  Biso   1.000  C
  C153     1.0000 0.28523  0.88847  0.77363  Biso   1.000  C
  C154     1.0000 0.22180  0.26990  0.89304  Biso   1.000  C
  C155     1.0000 0.73010  0.95190  0.89304  Biso   1.000  C
  C156     1.0000 0.04810  0.77820  0.89304  Biso   1.000  C
  C157     1.0000 0.88847  0.60323  0.22637  Biso   1.000  C
  C158     1.0000 0.39677  0.28523  0.22637  Biso   1.000  C
  C159     1.0000 0.71477  0.11153  0.22637  Biso   1.000  C
  C160     1.0000 0.55513  0.93657  0.55971  Biso   1.000  C
  C161     1.0000 0.06343  0.61857  0.55971  Biso   1.000  C
  C162     1.0000 0.38143  0.44487  0.55971  Biso   1.000  C
  C163     1.0000 0.71470  0.65230  0.09240  Biso   1.000  C
  C164     1.0000 0.34770  0.06240  0.09240  Biso   1.000  C
  C165     1.0000 0.93760  0.28530  0.09240  Biso   1.000  C
  C166     1.0000 0.38137  0.98563  0.42573  Biso   1.000  C
  C167     1.0000 0.01437  0.39573  0.42573  Biso   1.000  C
  C168     1.0000 0.60427  0.61863  0.42573  Biso   1.000  C
  C169     1.0000 0.04803  0.31897  0.75907  Biso   1.000  C
  C170     1.0000 0.68103  0.72907  0.75907  Biso   1.000  C
  C171     1.0000 0.27093  0.95197  0.75907  Biso   1.000  C
  C172     1.0000 0.28530  0.34770  0.90760  Biso   1.000  C
  C173     1.0000 0.65230  0.93760  0.90760  Biso   1.000  C
  C174     1.0000 0.06240  0.71470  0.90760  Biso   1.000  C
  C175     1.0000 0.95197  0.68103  0.24093  Biso   1.000  C
  C176     1.0000 0.31897  0.27093  0.24093  Biso   1.000  C
  C177     1.0000 0.72907  0.04803  0.24093  Biso   1.000  C
  C178     1.0000 0.61863  0.01437  0.57427  Biso   1.000  C
  C179     1.0000 0.98563  0.60427  0.57427  Biso   1.000  C
  C180     1.0000 0.39573  0.38137  0.57427  Biso   1.000  C
  H109     1.0000 0.72690  0.61770  0.07260  Biso   1.000  H
  H110     1.0000 0.38230  0.10920  0.07260  Biso   1.000  H
  H111     1.0000 0.89080  0.27310  0.07260  Biso   1.000  H
  H112     1.0000 0.39357  0.95103  0.40593  Biso   1.000  H
  H113     1.0000 0.04897  0.44253  0.40593  Biso   1.000  H
  H114     1.0000 0.55747  0.60643  0.40593  Biso   1.000  H
  H115     1.0000 0.06023  0.28437  0.73927  Biso   1.000  H
  H116     1.0000 0.71563  0.77587  0.73927  Biso   1.000  H
  H117     1.0000 0.22413  0.93977  0.73927  Biso   1.000  H
  H118     1.0000 0.27310  0.38230  0.92740  Biso   1.000  H
  H119     1.0000 0.61770  0.89080  0.92740  Biso   1.000  H
  H120     1.0000 0.10920  0.72690  0.92740  Biso   1.000  H
  H121     1.0000 0.93977  0.71563  0.26073  Biso   1.000  H
  H122     1.0000 0.28437  0.22413  0.26073  Biso   1.000  H
  H123     1.0000 0.77587  0.06023  0.26073  Biso   1.000  H
  H124     1.0000 0.60643  0.04897  0.59407  Biso   1.000  H
  H125     1.0000 0.95103  0.55747  0.59407  Biso   1.000  H
  H126     1.0000 0.44253  0.39357  0.59407  Biso   1.000  H
  C181     1.0000 0.63280  0.62500  0.10680  Biso   1.000  C
  C182     1.0000 0.37500  0.00780  0.10680  Biso   1.000  C
  C183     1.0000 0.99220  0.36720  0.10680  Biso   1.000  C
  C184     1.0000 0.29947  0.95833  0.44013  Biso   1.000  C
  C185     1.0000 0.04167  0.34113  0.44013  Biso   1.000  C
  C186     1.0000 0.65887  0.70053  0.44013  Biso   1.000  C
  C187     1.0000 0.96613  0.29167  0.77347  Biso   1.000  C
  C188     1.0000 0.70833  0.67447  0.77347  Biso   1.000  C
  C189     1.0000 0.32553  0.03387  0.77347  Biso   1.000  C
  C190     1.0000 0.36720  0.37500  0.89320  Biso   1.000  C
  C191     1.0000 0.62500  0.99220  0.89320  Biso   1.000  C
  C192     1.0000 0.00780  0.63280  0.89320  Biso   1.000  C
  C193     1.0000 0.03387  0.70833  0.22653  Biso   1.000  C
  C194     1.0000 0.29167  0.32553  0.22653  Biso   1.000  C
  C195     1.0000 0.67447  0.96613  0.22653  Biso   1.000  C
  C196     1.0000 0.70053  0.04167  0.55987  Biso   1.000  C
  C197     1.0000 0.95833  0.65887  0.55987  Biso   1.000  C
  C198     1.0000 0.34113  0.29947  0.55987  Biso   1.000  C
  H127     1.0000 0.59090  0.57280  0.09580  Biso   1.000  H
  H128     1.0000 0.42720  0.01810  0.09580  Biso   1.000  H
  H129     1.0000 0.98190  0.40910  0.09580  Biso   1.000  H
  H130     1.0000 0.25757  0.90613  0.42913  Biso   1.000  H
  H131     1.0000 0.09387  0.35143  0.42913  Biso   1.000  H
  H132     1.0000 0.64857  0.74243  0.42913  Biso   1.000  H
  H133     1.0000 0.92423  0.23947  0.76247  Biso   1.000  H
  H134     1.0000 0.76053  0.68477  0.76247  Biso   1.000  H
  H135     1.0000 0.31523  0.07577  0.76247  Biso   1.000  H
  H136     1.0000 0.40910  0.42720  0.90420  Biso   1.000  H
  H137     1.0000 0.57280  0.98190  0.90420  Biso   1.000  H
  H138     1.0000 0.01810  0.59090  0.90420  Biso   1.000  H
  H139     1.0000 0.07577  0.76053  0.23753  Biso   1.000  H
  H140     1.0000 0.23947  0.31523  0.23753  Biso   1.000  H
  H141     1.0000 0.68477  0.92423  0.23753  Biso   1.000  H
  H142     1.0000 0.74243  0.09387  0.57087  Biso   1.000  H
  H143     1.0000 0.90613  0.64857  0.57087  Biso   1.000  H
  H144     1.0000 0.35143  0.25757  0.57087  Biso   1.000  H
  C199     1.0000 0.61190  0.67280  0.13690  Biso   1.000  C
  C200     1.0000 0.32720  0.93910  0.13690  Biso   1.000  C
  C201     1.0000 0.06090  0.38810  0.13690  Biso   1.000  C
  C202     1.0000 0.27857  0.00613  0.47023  Biso   1.000  C
  C203     1.0000 0.99387  0.27243  0.47023  Biso   1.000  C
  C204     1.0000 0.72757  0.72143  0.47023  Biso   1.000  C
  C205     1.0000 0.94523  0.33947  0.80357  Biso   1.000  C
  C206     1.0000 0.66053  0.60577  0.80357  Biso   1.000  C
  C207     1.0000 0.39423  0.05477  0.80357  Biso   1.000  C
  C208     1.0000 0.38810  0.32720  0.86310  Biso   1.000  C
  C209     1.0000 0.67280  0.06090  0.86310  Biso   1.000  C
  C210     1.0000 0.93910  0.61190  0.86310  Biso   1.000  C
  C211     1.0000 0.05477  0.66053  0.19643  Biso   1.000  C
  C212     1.0000 0.33947  0.39423  0.19643  Biso   1.000  C
  C213     1.0000 0.60577  0.94523  0.19643  Biso   1.000  C
  C214     1.0000 0.72143  0.99387  0.52977  Biso   1.000  C
  C215     1.0000 0.00613  0.72757  0.52977  Biso   1.000  C
  C216     1.0000 0.27243  0.27857  0.52977  Biso   1.000  C
  C217     1.0000 0.67600  0.74890  0.15330  Biso   1.000  C
  C218     1.0000 0.25110  0.92710  0.15330  Biso   1.000  C
  C219     1.0000 0.07290  0.32400  0.15330  Biso   1.000  C
  C220     1.0000 0.34267  0.08223  0.48663  Biso   1.000  C
  C221     1.0000 0.91777  0.26043  0.48663  Biso   1.000  C
  C222     1.0000 0.73957  0.65733  0.48663  Biso   1.000  C
  C223     1.0000 0.00933  0.41557  0.81997  Biso   1.000  C
  C224     1.0000 0.58443  0.59377  0.81997  Biso   1.000  C
  C225     1.0000 0.40623  0.99067  0.81997  Biso   1.000  C
  C226     1.0000 0.32400  0.25110  0.84670  Biso   1.000  C
  C227     1.0000 0.74890  0.07290  0.84670  Biso   1.000  C
  C228     1.0000 0.92710  0.67600  0.84670  Biso   1.000  C
  C229     1.0000 0.99067  0.58443  0.18003  Biso   1.000  C
  C230     1.0000 0.41557  0.40623  0.18003  Biso   1.000  C
  C231     1.0000 0.59377  0.00933  0.18003  Biso   1.000  C
  C232     1.0000 0.65733  0.91777  0.51337  Biso   1.000  C
  C233     1.0000 0.08223  0.73957  0.51337  Biso   1.000  C
  C234     1.0000 0.26043  0.34267  0.51337  Biso   1.000  C
  H145     1.0000 0.66380  0.78180  0.17480  Biso   1.000  H
  H146     1.0000 0.21820  0.88200  0.17480  Biso   1.000  H
  H147     1.0000 0.11800  0.33620  0.17480  Biso   1.000  H
  H148     1.0000 0.33047  0.11513  0.50813  Biso   1.000  H
  H149     1.0000 0.88487  0.21533  0.50813  Biso   1.000  H
  H150     1.0000 0.78467  0.66953  0.50813  Biso   1.000  H
  H151     1.0000 0.99713  0.44847  0.84147  Biso   1.000  H
  H152     1.0000 0.55153  0.54867  0.84147  Biso   1.000  H
  H153     1.0000 0.45133  0.00287  0.84147  Biso   1.000  H
  H154     1.0000 0.33620  0.21820  0.82520  Biso   1.000  H
  H155     1.0000 0.78180  0.11800  0.82520  Biso   1.000  H
  H156     1.0000 0.88200  0.66380  0.82520  Biso   1.000  H
  H157     1.0000 0.00287  0.55153  0.15853  Biso   1.000  H
  H158     1.0000 0.44847  0.45133  0.15853  Biso   1.000  H
  H159     1.0000 0.54867  0.99713  0.15853  Biso   1.000  H
  H160     1.0000 0.66953  0.88487  0.49187  Biso   1.000  H
  H161     1.0000 0.11513  0.78467  0.49187  Biso   1.000  H
  H162     1.0000 0.21533  0.33047  0.49187  Biso   1.000  H
  C235     1.0000 0.75810  0.77780  0.13872  Biso   1.000  C
  C236     1.0000 0.22220  0.98030  0.13872  Biso   1.000  C
  C237     1.0000 0.01970  0.24190  0.13872  Biso   1.000  C
  C238     1.0000 0.42477  0.11113  0.47205  Biso   1.000  C
  C239     1.0000 0.88887  0.31363  0.47205  Biso   1.000  C
  C240     1.0000 0.68637  0.57523  0.47205  Biso   1.000  C
  C241     1.0000 0.09143  0.44447  0.80539  Biso   1.000  C
  C242     1.0000 0.55553  0.64697  0.80539  Biso   1.000  C
  C243     1.0000 0.35303  0.90857  0.80539  Biso   1.000  C
  C244     1.0000 0.24190  0.22220  0.86128  Biso   1.000  C
  C245     1.0000 0.77780  0.01970  0.86128  Biso   1.000  C
  C246     1.0000 0.98030  0.75810  0.86128  Biso   1.000  C
  C247     1.0000 0.90857  0.55553  0.19461  Biso   1.000  C
  C248     1.0000 0.44447  0.35303  0.19461  Biso   1.000  C
  C249     1.0000 0.64697  0.09143  0.19461  Biso   1.000  C
  C250     1.0000 0.57523  0.88887  0.52795  Biso   1.000  C
  C251     1.0000 0.11113  0.68637  0.52795  Biso   1.000  C
  C252     1.0000 0.31363  0.42477  0.52795  Biso   1.000  C
  H163     1.0000 0.79990  0.82960  0.15040  Biso   1.000  H
  H164     1.0000 0.17040  0.97030  0.15040  Biso   1.000  H
  H165     1.0000 0.02970  0.20010  0.15040  Biso   1.000  H
  H166     1.0000 0.46657  0.16293  0.48373  Biso   1.000  H
  H167     1.0000 0.83707  0.30363  0.48373  Biso   1.000  H
  H168     1.0000 0.69637  0.53343  0.48373  Biso   1.000  H
  H169     1.0000 0.13323  0.49627  0.81707  Biso   1.000  H
  H170     1.0000 0.50373  0.63697  0.81707  Biso   1.000  H
  H171     1.0000 0.36303  0.86677  0.81707  Biso   1.000  H
  H172     1.0000 0.20010  0.17040  0.84960  Biso   1.000  H
  H173     1.0000 0.82960  0.02970  0.84960  Biso   1.000  H
  H174     1.0000 0.97030  0.79990  0.84960  Biso   1.000  H
  H175     1.0000 0.86677  0.50373  0.18293  Biso   1.000  H
  H176     1.0000 0.49627  0.36303  0.18293  Biso   1.000  H
  H177     1.0000 0.63697  0.13323  0.18293  Biso   1.000  H
  H178     1.0000 0.53343  0.83707  0.51627  Biso   1.000  H
  H179     1.0000 0.16293  0.69637  0.51627  Biso   1.000  H
  H180     1.0000 0.30363  0.46657  0.51627  Biso   1.000  H
  C253     1.0000 0.52280  0.64330  0.15080  Biso   1.000  C
  C254     1.0000 0.35670  0.87950  0.15080  Biso   1.000  C
  C255     1.0000 0.12050  0.47720  0.15080  Biso   1.000  C
  C256     1.0000 0.18947  0.97663  0.48413  Biso   1.000  C
  C257     1.0000 0.02337  0.21283  0.48413  Biso   1.000  C
  C258     1.0000 0.78717  0.81053  0.48413  Biso   1.000  C
  C259     1.0000 0.85613  0.30997  0.81747  Biso   1.000  C
  C260     1.0000 0.69003  0.54617  0.81747  Biso   1.000  C
  C261     1.0000 0.45383  0.14387  0.81747  Biso   1.000  C
  C262     1.0000 0.47720  0.35670  0.84920  Biso   1.000  C
  C263     1.0000 0.64330  0.12050  0.84920  Biso   1.000  C
  C264     1.0000 0.87950  0.52280  0.84920  Biso   1.000  C
  C265     1.0000 0.14387  0.69003  0.18253  Biso   1.000  C
  C266     1.0000 0.30997  0.45383  0.18253  Biso   1.000  C
  C267     1.0000 0.54617  0.85613  0.18253  Biso   1.000  C
  C268     1.0000 0.81053  0.02337  0.51587  Biso   1.000  C
  C269     1.0000 0.97663  0.78717  0.51587  Biso   1.000  C
  C270     1.0000 0.21283  0.18947  0.51587  Biso   1.000  C
  H181     1.0000 0.48710  0.61070  0.12280  Biso   1.000  H
  H182     1.0000 0.38930  0.87640  0.12280  Biso   1.000  H
  H183     1.0000 0.12360  0.51290  0.12280  Biso   1.000  H
  H184     1.0000 0.15377  0.94403  0.45613  Biso   1.000  H
  H185     1.0000 0.05597  0.20973  0.45613  Biso   1.000  H
  H186     1.0000 0.79027  0.84623  0.45613  Biso   1.000  H
  H187     1.0000 0.82043  0.27737  0.78947  Biso   1.000  H
  H188     1.0000 0.72263  0.54307  0.78947  Biso   1.000  H
  H189     1.0000 0.45693  0.17957  0.78947  Biso   1.000  H
  H190     1.0000 0.51290  0.38930  0.87720  Biso   1.000  H
  H191     1.0000 0.61070  0.12360  0.87720  Biso   1.000  H
  H192     1.0000 0.87640  0.48710  0.87720  Biso   1.000  H
  H193     1.0000 0.17957  0.72263  0.21053  Biso   1.000  H
  H194     1.0000 0.27737  0.45693  0.21053  Biso   1.000  H
  H195     1.0000 0.54307  0.82043  0.21053  Biso   1.000  H
  H196     1.0000 0.84623  0.05597  0.54387  Biso   1.000  H
  H197     1.0000 0.94403  0.79027  0.54387  Biso   1.000  H
  H198     1.0000 0.20973  0.15377  0.54387  Biso   1.000  H
  H199     1.0000 0.51570  0.69060  0.15700  Biso   1.000  H
  H200     1.0000 0.30940  0.82510  0.15700  Biso   1.000  H
  H201     1.0000 0.17490  0.48430  0.15700  Biso   1.000  H
  H202     1.0000 0.18237  0.02393  0.49033  Biso   1.000  H
  H203     1.0000 0.97607  0.15843  0.49033  Biso   1.000  H
  H204     1.0000 0.84157  0.81763  0.49033  Biso   1.000  H
  H205     1.0000 0.84903  0.35727  0.82367  Biso   1.000  H
  H206     1.0000 0.64273  0.49177  0.82367  Biso   1.000  H
  H207     1.0000 0.50823  0.15097  0.82367  Biso   1.000  H
  H208     1.0000 0.48430  0.30940  0.84300  Biso   1.000  H
  H209     1.0000 0.69060  0.17490  0.84300  Biso   1.000  H
  H210     1.0000 0.82510  0.51570  0.84300  Biso   1.000  H
  H211     1.0000 0.15097  0.64273  0.17633  Biso   1.000  H
  H212     1.0000 0.35727  0.50823  0.17633  Biso   1.000  H
  H213     1.0000 0.49177  0.84903  0.17633  Biso   1.000  H
  H214     1.0000 0.81763  0.97607  0.50967  Biso   1.000  H
  H215     1.0000 0.02393  0.84157  0.50967  Biso   1.000  H
  H216     1.0000 0.15843  0.18237  0.50967  Biso   1.000  H
  H217     1.0000 0.50830  0.60960  0.18160  Biso   1.000  H
  H218     1.0000 0.39040  0.89870  0.18160  Biso   1.000  H
  H219     1.0000 0.10130  0.49170  0.18160  Biso   1.000  H
  H220     1.0000 0.17497  0.94293  0.51493  Biso   1.000  H
  H221     1.0000 0.05707  0.23203  0.51493  Biso   1.000  H
  H222     1.0000 0.76797  0.82503  0.51493  Biso   1.000  H
  H223     1.0000 0.84163  0.27627  0.84827  Biso   1.000  H
  H224     1.0000 0.72373  0.56537  0.84827  Biso   1.000  H
  H225     1.0000 0.43463  0.15837  0.84827  Biso   1.000  H
  H226     1.0000 0.49170  0.39040  0.81840  Biso   1.000  H
  H227     1.0000 0.60960  0.10130  0.81840  Biso   1.000  H
  H228     1.0000 0.89870  0.50830  0.81840  Biso   1.000  H
  H229     1.0000 0.15837  0.72373  0.15173  Biso   1.000  H
  H230     1.0000 0.27627  0.43463  0.15173  Biso   1.000  H
  H231     1.0000 0.56537  0.84163  0.15173  Biso   1.000  H
  H232     1.0000 0.82503  0.05707  0.48507  Biso   1.000  H
  H233     1.0000 0.94293  0.76797  0.48507  Biso   1.000  H
  H234     1.0000 0.23203  0.17497  0.48507  Biso   1.000  H
