data_image0
_cell_length_a       18.469
_cell_length_b       18.469
_cell_length_c       25.3532
_cell_angle_alpha    90
_cell_angle_beta     90
_cell_angle_gamma    120

_symmetry_space_group_name_H-M    "P 1"
_symmetry_int_tables_number       1

loop_
  _symmetry_equiv_pos_as_xyz
  'x, y, z'

loop_
  _atom_site_label
  _atom_site_occupancy
  _atom_site_fract_x
  _atom_site_fract_y
  _atom_site_fract_z
  _atom_site_thermal_displace_type
  _atom_site_B_iso_or_equiv
  _atom_site_type_symbol
  I1       1.0000 0.66670  0.33330  0.90984  Biso   1.000  I
  I2       1.0000 0.33337  0.66663  0.24317  Biso   1.000  I
  I3       1.0000 0.00003  0.99997  0.57651  Biso   1.000  I
  I4       1.0000 0.33330  0.66670  0.09016  Biso   1.000  I
  I5       1.0000 0.99997  0.00003  0.42349  Biso   1.000  I
  I6       1.0000 0.66663  0.33337  0.75683  Biso   1.000  I
  I7       1.0000 0.55375  0.17440  0.05414  Biso   1.000  I
  I8       1.0000 0.82560  0.37935  0.05414  Biso   1.000  I
  I9       1.0000 0.62065  0.44625  0.05414  Biso   1.000  I
  I10      1.0000 0.22042  0.50773  0.38747  Biso   1.000  I
  I11      1.0000 0.49227  0.71268  0.38747  Biso   1.000  I
  I12      1.0000 0.28732  0.77958  0.38747  Biso   1.000  I
  I13      1.0000 0.88708  0.84107  0.72081  Biso   1.000  I
  I14      1.0000 0.15893  0.04602  0.72081  Biso   1.000  I
  I15      1.0000 0.95398  0.11292  0.72081  Biso   1.000  I
  I16      1.0000 0.44625  0.82560  0.94586  Biso   1.000  I
  I17      1.0000 0.17440  0.62065  0.94586  Biso   1.000  I
  I18      1.0000 0.37935  0.55375  0.94586  Biso   1.000  I
  I19      1.0000 0.11292  0.15893  0.27919  Biso   1.000  I
  I20      1.0000 0.84107  0.95398  0.27919  Biso   1.000  I
  I21      1.0000 0.04602  0.88708  0.27919  Biso   1.000  I
  I22      1.0000 0.77958  0.49227  0.61253  Biso   1.000  I
  I23      1.0000 0.50773  0.28732  0.61253  Biso   1.000  I
  I24      1.0000 0.71268  0.22042  0.61253  Biso   1.000  I
  Cu1      1.0000 0.92351  0.88580  0.93934  Biso   1.000  Cu
  Cu2      1.0000 0.11420  0.03771  0.93934  Biso   1.000  Cu
  Cu3      1.0000 0.96229  0.07649  0.93934  Biso   1.000  Cu
  Cu4      1.0000 0.59018  0.21913  0.27267  Biso   1.000  Cu
  Cu5      1.0000 0.78087  0.37104  0.27267  Biso   1.000  Cu
  Cu6      1.0000 0.62896  0.40982  0.27267  Biso   1.000  Cu
  Cu7      1.0000 0.25684  0.55247  0.60601  Biso   1.000  Cu
  Cu8      1.0000 0.44753  0.70438  0.60601  Biso   1.000  Cu
  Cu9      1.0000 0.29562  0.74316  0.60601  Biso   1.000  Cu
  Cu10     1.0000 0.07649  0.11420  0.06066  Biso   1.000  Cu
  Cu11     1.0000 0.88580  0.96229  0.06066  Biso   1.000  Cu
  Cu12     1.0000 0.03771  0.92351  0.06066  Biso   1.000  Cu
  Cu13     1.0000 0.74316  0.44753  0.39399  Biso   1.000  Cu
  Cu14     1.0000 0.55247  0.29562  0.39399  Biso   1.000  Cu
  Cu15     1.0000 0.70438  0.25684  0.39399  Biso   1.000  Cu
  Cu16     1.0000 0.40982  0.78087  0.72733  Biso   1.000  Cu
  Cu17     1.0000 0.21913  0.62896  0.72733  Biso   1.000  Cu
  Cu18     1.0000 0.37104  0.59018  0.72733  Biso   1.000  Cu
  Cu19     1.0000 0.69760  0.27027  0.99486  Biso   1.000  Cu
  Cu20     1.0000 0.72973  0.42733  0.99486  Biso   1.000  Cu
  Cu21     1.0000 0.57267  0.30240  0.99486  Biso   1.000  Cu
  Cu22     1.0000 0.36427  0.60360  0.32819  Biso   1.000  Cu
  Cu23     1.0000 0.39640  0.76066  0.32819  Biso   1.000  Cu
  Cu24     1.0000 0.23934  0.63573  0.32819  Biso   1.000  Cu
  Cu25     1.0000 0.03093  0.93694  0.66153  Biso   1.000  Cu
  Cu26     1.0000 0.06306  0.09400  0.66153  Biso   1.000  Cu
  Cu27     1.0000 0.90600  0.96907  0.66153  Biso   1.000  Cu
  Cu28     1.0000 0.30240  0.72973  0.00514  Biso   1.000  Cu
  Cu29     1.0000 0.27027  0.57267  0.00514  Biso   1.000  Cu
  Cu30     1.0000 0.42733  0.69760  0.00514  Biso   1.000  Cu
  Cu31     1.0000 0.96907  0.06306  0.33847  Biso   1.000  Cu
  Cu32     1.0000 0.93694  0.90600  0.33847  Biso   1.000  Cu
  Cu33     1.0000 0.09400  0.03093  0.33847  Biso   1.000  Cu
  Cu34     1.0000 0.63573  0.39640  0.67181  Biso   1.000  Cu
  Cu35     1.0000 0.60360  0.23934  0.67181  Biso   1.000  Cu
  Cu36     1.0000 0.76066  0.36427  0.67181  Biso   1.000  Cu
  Cu37     1.0000 0.66670  0.33330  0.07857  Biso   1.000  Cu
  Cu38     1.0000 0.33337  0.66663  0.41190  Biso   1.000  Cu
  Cu39     1.0000 0.00003  0.99997  0.74524  Biso   1.000  Cu
  Cu40     1.0000 0.33330  0.66670  0.92143  Biso   1.000  Cu
  Cu41     1.0000 0.99997  0.00003  0.25476  Biso   1.000  Cu
  Cu42     1.0000 0.66663  0.33337  0.58810  Biso   1.000  Cu
  C1       1.0000 0.71770  0.90770  0.91500  Biso   1.000  C
  C2       1.0000 0.09230  0.81000  0.91500  Biso   1.000  C
  C3       1.0000 0.19000  0.28230  0.91500  Biso   1.000  C
  C4       1.0000 0.38437  0.24103  0.24833  Biso   1.000  C
  C5       1.0000 0.75897  0.14333  0.24833  Biso   1.000  C
  C6       1.0000 0.85667  0.61563  0.24833  Biso   1.000  C
  C7       1.0000 0.05103  0.57437  0.58167  Biso   1.000  C
  C8       1.0000 0.42563  0.47667  0.58167  Biso   1.000  C
  C9       1.0000 0.52333  0.94897  0.58167  Biso   1.000  C
  C10      1.0000 0.28230  0.09230  0.08500  Biso   1.000  C
  C11      1.0000 0.90770  0.19000  0.08500  Biso   1.000  C
  C12      1.0000 0.81000  0.71770  0.08500  Biso   1.000  C
  C13      1.0000 0.94897  0.42563  0.41833  Biso   1.000  C
  C14      1.0000 0.57437  0.52333  0.41833  Biso   1.000  C
  C15      1.0000 0.47667  0.05103  0.41833  Biso   1.000  C
  C16      1.0000 0.61563  0.75897  0.75167  Biso   1.000  C
  C17      1.0000 0.24103  0.85667  0.75167  Biso   1.000  C
  C18      1.0000 0.14333  0.38437  0.75167  Biso   1.000  C
  H1       1.0000 0.66050  0.88800  0.90730  Biso   1.000  H
  H2       1.0000 0.11200  0.77250  0.90730  Biso   1.000  H
  H3       1.0000 0.22750  0.33950  0.90730  Biso   1.000  H
  H4       1.0000 0.32717  0.22133  0.24063  Biso   1.000  H
  H5       1.0000 0.77867  0.10583  0.24063  Biso   1.000  H
  H6       1.0000 0.89417  0.67283  0.24063  Biso   1.000  H
  H7       1.0000 0.99383  0.55467  0.57397  Biso   1.000  H
  H8       1.0000 0.44533  0.43917  0.57397  Biso   1.000  H
  H9       1.0000 0.56083  0.00617  0.57397  Biso   1.000  H
  H10      1.0000 0.33950  0.11200  0.09270  Biso   1.000  H
  H11      1.0000 0.88800  0.22750  0.09270  Biso   1.000  H
  H12      1.0000 0.77250  0.66050  0.09270  Biso   1.000  H
  H13      1.0000 0.00617  0.44533  0.42603  Biso   1.000  H
  H14      1.0000 0.55467  0.56083  0.42603  Biso   1.000  H
  H15      1.0000 0.43917  0.99383  0.42603  Biso   1.000  H
  H16      1.0000 0.67283  0.77867  0.75937  Biso   1.000  H
  H17      1.0000 0.22133  0.89417  0.75937  Biso   1.000  H
  H18      1.0000 0.10583  0.32717  0.75937  Biso   1.000  H
  N1       1.0000 0.85100  0.98970  0.94027  Biso   1.000  N
  N2       1.0000 0.01030  0.86130  0.94027  Biso   1.000  N
  N3       1.0000 0.13870  0.14900  0.94027  Biso   1.000  N
  N4       1.0000 0.51767  0.32303  0.27360  Biso   1.000  N
  N5       1.0000 0.67697  0.19463  0.27360  Biso   1.000  N
  N6       1.0000 0.80537  0.48233  0.27360  Biso   1.000  N
  N7       1.0000 0.18433  0.65637  0.60694  Biso   1.000  N
  N8       1.0000 0.34363  0.52797  0.60694  Biso   1.000  N
  N9       1.0000 0.47203  0.81567  0.60694  Biso   1.000  N
  N10      1.0000 0.14900  0.01030  0.05973  Biso   1.000  N
  N11      1.0000 0.98970  0.13870  0.05973  Biso   1.000  N
  N12      1.0000 0.86130  0.85100  0.05973  Biso   1.000  N
  N13      1.0000 0.81567  0.34363  0.39306  Biso   1.000  N
  N14      1.0000 0.65637  0.47203  0.39306  Biso   1.000  N
  N15      1.0000 0.52797  0.18433  0.39306  Biso   1.000  N
  N16      1.0000 0.48233  0.67697  0.72640  Biso   1.000  N
  N17      1.0000 0.32303  0.80537  0.72640  Biso   1.000  N
  N18      1.0000 0.19463  0.51767  0.72640  Biso   1.000  N
  C19      1.0000 0.76160  0.05570  0.94610  Biso   1.000  C
  C20      1.0000 0.94430  0.70590  0.94610  Biso   1.000  C
  C21      1.0000 0.29410  0.23840  0.94610  Biso   1.000  C
  C22      1.0000 0.42827  0.38903  0.27943  Biso   1.000  C
  C23      1.0000 0.61097  0.03923  0.27943  Biso   1.000  C
  C24      1.0000 0.96077  0.57173  0.27943  Biso   1.000  C
  C25      1.0000 0.09493  0.72237  0.61277  Biso   1.000  C
  C26      1.0000 0.27763  0.37257  0.61277  Biso   1.000  C
  C27      1.0000 0.62743  0.90507  0.61277  Biso   1.000  C
  C28      1.0000 0.23840  0.94430  0.05390  Biso   1.000  C
  C29      1.0000 0.05570  0.29410  0.05390  Biso   1.000  C
  C30      1.0000 0.70590  0.76160  0.05390  Biso   1.000  C
  C31      1.0000 0.90507  0.27763  0.38723  Biso   1.000  C
  C32      1.0000 0.72237  0.62743  0.38723  Biso   1.000  C
  C33      1.0000 0.37257  0.09493  0.38723  Biso   1.000  C
  C34      1.0000 0.57173  0.61097  0.72057  Biso   1.000  C
  C35      1.0000 0.38903  0.96077  0.72057  Biso   1.000  C
  C36      1.0000 0.03923  0.42827  0.72057  Biso   1.000  C
  C37      1.0000 0.77630  0.98650  0.93318  Biso   1.000  C
  C38      1.0000 0.01350  0.78980  0.93318  Biso   1.000  C
  C39      1.0000 0.21020  0.22370  0.93318  Biso   1.000  C
  C40      1.0000 0.44297  0.31983  0.26651  Biso   1.000  C
  C41      1.0000 0.68017  0.12313  0.26651  Biso   1.000  C
  C42      1.0000 0.87687  0.55703  0.26651  Biso   1.000  C
  C43      1.0000 0.10963  0.65317  0.59985  Biso   1.000  C
  C44      1.0000 0.34683  0.45647  0.59985  Biso   1.000  C
  C45      1.0000 0.54353  0.89037  0.59985  Biso   1.000  C
  C46      1.0000 0.22370  0.01350  0.06682  Biso   1.000  C
  C47      1.0000 0.98650  0.21020  0.06682  Biso   1.000  C
  C48      1.0000 0.78980  0.77630  0.06682  Biso   1.000  C
  C49      1.0000 0.89037  0.34683  0.40015  Biso   1.000  C
  C50      1.0000 0.65317  0.54353  0.40015  Biso   1.000  C
  C51      1.0000 0.45647  0.10963  0.40015  Biso   1.000  C
  C52      1.0000 0.55703  0.68017  0.73349  Biso   1.000  C
  C53      1.0000 0.31983  0.87687  0.73349  Biso   1.000  C
  C54      1.0000 0.12313  0.44297  0.73349  Biso   1.000  C
  C55      1.0000 0.75980  0.86370  0.91040  Biso   1.000  C
  C56      1.0000 0.13630  0.89610  0.91040  Biso   1.000  C
  C57      1.0000 0.10390  0.24020  0.91040  Biso   1.000  C
  C58      1.0000 0.42647  0.19703  0.24373  Biso   1.000  C
  C59      1.0000 0.80297  0.22943  0.24373  Biso   1.000  C
  C60      1.0000 0.77057  0.57353  0.24373  Biso   1.000  C
  C61      1.0000 0.09313  0.53037  0.57707  Biso   1.000  C
  C62      1.0000 0.46963  0.56277  0.57707  Biso   1.000  C
  C63      1.0000 0.43723  0.90687  0.57707  Biso   1.000  C
  C64      1.0000 0.24020  0.13630  0.08960  Biso   1.000  C
  C65      1.0000 0.86370  0.10390  0.08960  Biso   1.000  C
  C66      1.0000 0.89610  0.75980  0.08960  Biso   1.000  C
  C67      1.0000 0.90687  0.46963  0.42293  Biso   1.000  C
  C68      1.0000 0.53037  0.43723  0.42293  Biso   1.000  C
  C69      1.0000 0.56277  0.09313  0.42293  Biso   1.000  C
  C70      1.0000 0.57353  0.80297  0.75627  Biso   1.000  C
  C71      1.0000 0.19703  0.77057  0.75627  Biso   1.000  C
  C72      1.0000 0.22943  0.42647  0.75627  Biso   1.000  C
  C73      1.0000 0.82540  0.13620  0.95850  Biso   1.000  C
  C74      1.0000 0.86380  0.68920  0.95850  Biso   1.000  C
  C75      1.0000 0.31080  0.17460  0.95850  Biso   1.000  C
  C76      1.0000 0.49207  0.46953  0.29183  Biso   1.000  C
  C77      1.0000 0.53047  0.02253  0.29183  Biso   1.000  C
  C78      1.0000 0.97747  0.50793  0.29183  Biso   1.000  C
  C79      1.0000 0.15873  0.80287  0.62517  Biso   1.000  C
  C80      1.0000 0.19713  0.35587  0.62517  Biso   1.000  C
  C81      1.0000 0.64413  0.84127  0.62517  Biso   1.000  C
  C82      1.0000 0.17460  0.86380  0.04150  Biso   1.000  C
  C83      1.0000 0.13620  0.31080  0.04150  Biso   1.000  C
  C84      1.0000 0.68920  0.82540  0.04150  Biso   1.000  C
  C85      1.0000 0.84127  0.19713  0.37483  Biso   1.000  C
  C86      1.0000 0.80287  0.64413  0.37483  Biso   1.000  C
  C87      1.0000 0.35587  0.15873  0.37483  Biso   1.000  C
  C88      1.0000 0.50793  0.53047  0.70817  Biso   1.000  C
  C89      1.0000 0.46953  0.97747  0.70817  Biso   1.000  C
  C90      1.0000 0.02253  0.49207  0.70817  Biso   1.000  C
  H19      1.0000 0.88210  0.14930  0.95850  Biso   1.000  H
  H20      1.0000 0.85070  0.73280  0.95850  Biso   1.000  H
  H21      1.0000 0.26720  0.11790  0.95850  Biso   1.000  H
  H22      1.0000 0.54877  0.48263  0.29183  Biso   1.000  H
  H23      1.0000 0.51737  0.06613  0.29183  Biso   1.000  H
  H24      1.0000 0.93387  0.45123  0.29183  Biso   1.000  H
  H25      1.0000 0.21543  0.81597  0.62517  Biso   1.000  H
  H26      1.0000 0.18403  0.39947  0.62517  Biso   1.000  H
  H27      1.0000 0.60053  0.78457  0.62517  Biso   1.000  H
  H28      1.0000 0.11790  0.85070  0.04150  Biso   1.000  H
  H29      1.0000 0.14930  0.26720  0.04150  Biso   1.000  H
  H30      1.0000 0.73280  0.88210  0.04150  Biso   1.000  H
  H31      1.0000 0.78457  0.18403  0.37483  Biso   1.000  H
  H32      1.0000 0.81597  0.60053  0.37483  Biso   1.000  H
  H33      1.0000 0.39947  0.21543  0.37483  Biso   1.000  H
  H34      1.0000 0.45123  0.51737  0.70817  Biso   1.000  H
  H35      1.0000 0.48263  0.93387  0.70817  Biso   1.000  H
  H36      1.0000 0.06613  0.54877  0.70817  Biso   1.000  H
  N19      1.0000 0.72630  0.18230  0.97191  Biso   1.000  N
  N20      1.0000 0.81770  0.54400  0.97191  Biso   1.000  N
  N21      1.0000 0.45600  0.27370  0.97191  Biso   1.000  N
  N22      1.0000 0.39297  0.51563  0.30524  Biso   1.000  N
  N23      1.0000 0.48437  0.87733  0.30524  Biso   1.000  N
  N24      1.0000 0.12267  0.60703  0.30524  Biso   1.000  N
  N25      1.0000 0.05963  0.84897  0.63858  Biso   1.000  N
  N26      1.0000 0.15103  0.21067  0.63858  Biso   1.000  N
  N27      1.0000 0.78933  0.94037  0.63858  Biso   1.000  N
  N28      1.0000 0.27370  0.81770  0.02809  Biso   1.000  N
  N29      1.0000 0.18230  0.45600  0.02809  Biso   1.000  N
  N30      1.0000 0.54400  0.72630  0.02809  Biso   1.000  N
  N31      1.0000 0.94037  0.15103  0.36142  Biso   1.000  N
  N32      1.0000 0.84897  0.78933  0.36142  Biso   1.000  N
  N33      1.0000 0.21067  0.05963  0.36142  Biso   1.000  N
  N34      1.0000 0.60703  0.48437  0.69476  Biso   1.000  N
  N35      1.0000 0.51563  0.12267  0.69476  Biso   1.000  N
  N36      1.0000 0.87733  0.39297  0.69476  Biso   1.000  N
  C91      1.0000 0.77730  0.75670  0.86021  Biso   1.000  C
  C92      1.0000 0.24330  0.02060  0.86021  Biso   1.000  C
  C93      1.0000 0.97940  0.22270  0.86021  Biso   1.000  C
  C94      1.0000 0.44397  0.09003  0.19354  Biso   1.000  C
  C95      1.0000 0.90997  0.35393  0.19354  Biso   1.000  C
  C96      1.0000 0.64607  0.55603  0.19354  Biso   1.000  C
  C97      1.0000 0.11063  0.42337  0.52688  Biso   1.000  C
  C98      1.0000 0.57663  0.68727  0.52688  Biso   1.000  C
  C99      1.0000 0.31273  0.88937  0.52688  Biso   1.000  C
  C100     1.0000 0.22270  0.24330  0.13979  Biso   1.000  C
  C101     1.0000 0.75670  0.97940  0.13979  Biso   1.000  C
  C102     1.0000 0.02060  0.77730  0.13979  Biso   1.000  C
  C103     1.0000 0.88937  0.57663  0.47312  Biso   1.000  C
  C104     1.0000 0.42337  0.31273  0.47312  Biso   1.000  C
  C105     1.0000 0.68727  0.11063  0.47312  Biso   1.000  C
  C106     1.0000 0.55603  0.90997  0.80646  Biso   1.000  C
  C107     1.0000 0.09003  0.64607  0.80646  Biso   1.000  C
  C108     1.0000 0.35393  0.44397  0.80646  Biso   1.000  C
  H37      1.0000 0.83020  0.79970  0.84820  Biso   1.000  H
  H38      1.0000 0.20030  0.03050  0.84820  Biso   1.000  H
  H39      1.0000 0.96950  0.16980  0.84820  Biso   1.000  H
  H40      1.0000 0.49687  0.13303  0.18153  Biso   1.000  H
  H41      1.0000 0.86697  0.36383  0.18153  Biso   1.000  H
  H42      1.0000 0.63617  0.50313  0.18153  Biso   1.000  H
  H43      1.0000 0.16353  0.46637  0.51487  Biso   1.000  H
  H44      1.0000 0.53363  0.69717  0.51487  Biso   1.000  H
  H45      1.0000 0.30283  0.83647  0.51487  Biso   1.000  H
  H46      1.0000 0.16980  0.20030  0.15180  Biso   1.000  H
  H47      1.0000 0.79970  0.96950  0.15180  Biso   1.000  H
  H48      1.0000 0.03050  0.83020  0.15180  Biso   1.000  H
  H49      1.0000 0.83647  0.53363  0.48513  Biso   1.000  H
  H50      1.0000 0.46637  0.30283  0.48513  Biso   1.000  H
  H51      1.0000 0.69717  0.16353  0.48513  Biso   1.000  H
  H52      1.0000 0.50313  0.86697  0.81847  Biso   1.000  H
  H53      1.0000 0.13303  0.63617  0.81847  Biso   1.000  H
  H54      1.0000 0.36383  0.49687  0.81847  Biso   1.000  H
  C109     1.0000 0.80490  0.19660  0.97072  Biso   1.000  C
  C110     1.0000 0.80340  0.60830  0.97072  Biso   1.000  C
  C111     1.0000 0.39170  0.19510  0.97072  Biso   1.000  C
  C112     1.0000 0.47157  0.52993  0.30405  Biso   1.000  C
  C113     1.0000 0.47007  0.94163  0.30405  Biso   1.000  C
  C114     1.0000 0.05837  0.52843  0.30405  Biso   1.000  C
  C115     1.0000 0.13823  0.86327  0.63739  Biso   1.000  C
  C116     1.0000 0.13673  0.27497  0.63739  Biso   1.000  C
  C117     1.0000 0.72503  0.86177  0.63739  Biso   1.000  C
  C118     1.0000 0.19510  0.80340  0.02928  Biso   1.000  C
  C119     1.0000 0.19660  0.39170  0.02928  Biso   1.000  C
  C120     1.0000 0.60830  0.80490  0.02928  Biso   1.000  C
  C121     1.0000 0.86177  0.13673  0.36261  Biso   1.000  C
  C122     1.0000 0.86327  0.72503  0.36261  Biso   1.000  C
  C123     1.0000 0.27497  0.13823  0.36261  Biso   1.000  C
  C124     1.0000 0.52843  0.47007  0.69595  Biso   1.000  C
  C125     1.0000 0.52993  0.05837  0.69595  Biso   1.000  C
  C126     1.0000 0.94163  0.47157  0.69595  Biso   1.000  C
  H55      1.0000 0.84890  0.25130  0.97870  Biso   1.000  H
  H56      1.0000 0.74870  0.59760  0.97870  Biso   1.000  H
  H57      1.0000 0.40240  0.15110  0.97870  Biso   1.000  H
  H58      1.0000 0.51557  0.58463  0.31203  Biso   1.000  H
  H59      1.0000 0.41537  0.93093  0.31203  Biso   1.000  H
  H60      1.0000 0.06907  0.48443  0.31203  Biso   1.000  H
  H61      1.0000 0.18223  0.91797  0.64537  Biso   1.000  H
  H62      1.0000 0.08203  0.26427  0.64537  Biso   1.000  H
  H63      1.0000 0.73573  0.81777  0.64537  Biso   1.000  H
  H64      1.0000 0.15110  0.74870  0.02130  Biso   1.000  H
  H65      1.0000 0.25130  0.40240  0.02130  Biso   1.000  H
  H66      1.0000 0.59760  0.84890  0.02130  Biso   1.000  H
  H67      1.0000 0.81777  0.08203  0.35463  Biso   1.000  H
  H68      1.0000 0.91797  0.73573  0.35463  Biso   1.000  H
  H69      1.0000 0.26427  0.18223  0.35463  Biso   1.000  H
  H70      1.0000 0.48443  0.41537  0.68797  Biso   1.000  H
  H71      1.0000 0.58463  0.06907  0.68797  Biso   1.000  H
  H72      1.0000 0.93093  0.51557  0.68797  Biso   1.000  H
  C127     1.0000 0.72930  0.77630  0.89277  Biso   1.000  C
  C128     1.0000 0.22370  0.95300  0.89277  Biso   1.000  C
  C129     1.0000 0.04700  0.27070  0.89277  Biso   1.000  C
  C130     1.0000 0.39597  0.10963  0.22610  Biso   1.000  C
  C131     1.0000 0.89037  0.28633  0.22610  Biso   1.000  C
  C132     1.0000 0.71367  0.60403  0.22610  Biso   1.000  C
  C133     1.0000 0.06263  0.44297  0.55944  Biso   1.000  C
  C134     1.0000 0.55703  0.61967  0.55944  Biso   1.000  C
  C135     1.0000 0.38033  0.93737  0.55944  Biso   1.000  C
  C136     1.0000 0.27070  0.22370  0.10723  Biso   1.000  C
  C137     1.0000 0.77630  0.04700  0.10723  Biso   1.000  C
  C138     1.0000 0.95300  0.72930  0.10723  Biso   1.000  C
  C139     1.0000 0.93737  0.55703  0.44056  Biso   1.000  C
  C140     1.0000 0.44297  0.38033  0.44056  Biso   1.000  C
  C141     1.0000 0.61967  0.06263  0.44056  Biso   1.000  C
  C142     1.0000 0.60403  0.89037  0.77390  Biso   1.000  C
  C143     1.0000 0.10963  0.71367  0.77390  Biso   1.000  C
  C144     1.0000 0.28633  0.39597  0.77390  Biso   1.000  C
  C145     1.0000 0.62320  0.63180  0.89200  Biso   1.000  C
  C146     1.0000 0.36820  0.99140  0.89200  Biso   1.000  C
  C147     1.0000 0.00860  0.37680  0.89200  Biso   1.000  C
  C148     1.0000 0.28987  0.96513  0.22533  Biso   1.000  C
  C149     1.0000 0.03487  0.32473  0.22533  Biso   1.000  C
  C150     1.0000 0.67527  0.71013  0.22533  Biso   1.000  C
  C151     1.0000 0.95653  0.29847  0.55867  Biso   1.000  C
  C152     1.0000 0.70153  0.65807  0.55867  Biso   1.000  C
  C153     1.0000 0.34193  0.04347  0.55867  Biso   1.000  C
  C154     1.0000 0.37680  0.36820  0.10800  Biso   1.000  C
  C155     1.0000 0.63180  0.00860  0.10800  Biso   1.000  C
  C156     1.0000 0.99140  0.62320  0.10800  Biso   1.000  C
  C157     1.0000 0.04347  0.70153  0.44133  Biso   1.000  C
  C158     1.0000 0.29847  0.34193  0.44133  Biso   1.000  C
  C159     1.0000 0.65807  0.95653  0.44133  Biso   1.000  C
  C160     1.0000 0.71013  0.03487  0.77467  Biso   1.000  C
  C161     1.0000 0.96513  0.67527  0.77467  Biso   1.000  C
  C162     1.0000 0.32473  0.28987  0.77467  Biso   1.000  C
  H73      1.0000 0.56960  0.58900  0.90320  Biso   1.000  H
  H74      1.0000 0.41100  0.98060  0.90320  Biso   1.000  H
  H75      1.0000 0.01940  0.43040  0.90320  Biso   1.000  H
  H76      1.0000 0.23627  0.92233  0.23653  Biso   1.000  H
  H77      1.0000 0.07767  0.31393  0.23653  Biso   1.000  H
  H78      1.0000 0.68607  0.76373  0.23653  Biso   1.000  H
  H79      1.0000 0.90293  0.25567  0.56987  Biso   1.000  H
  H80      1.0000 0.74433  0.64727  0.56987  Biso   1.000  H
  H81      1.0000 0.35273  0.09707  0.56987  Biso   1.000  H
  H82      1.0000 0.43040  0.41100  0.09680  Biso   1.000  H
  H83      1.0000 0.58900  0.01940  0.09680  Biso   1.000  H
  H84      1.0000 0.98060  0.56960  0.09680  Biso   1.000  H
  H85      1.0000 0.09707  0.74433  0.43013  Biso   1.000  H
  H86      1.0000 0.25567  0.35273  0.43013  Biso   1.000  H
  H87      1.0000 0.64727  0.90293  0.43013  Biso   1.000  H
  H88      1.0000 0.76373  0.07767  0.76347  Biso   1.000  H
  H89      1.0000 0.92233  0.68607  0.76347  Biso   1.000  H
  H90      1.0000 0.31393  0.23627  0.76347  Biso   1.000  H
  C163     1.0000 0.68030  0.04100  0.94720  Biso   1.000  C
  C164     1.0000 0.95900  0.63930  0.94720  Biso   1.000  C
  C165     1.0000 0.36070  0.31970  0.94720  Biso   1.000  C
  C166     1.0000 0.34697  0.37433  0.28053  Biso   1.000  C
  C167     1.0000 0.62567  0.97263  0.28053  Biso   1.000  C
  C168     1.0000 0.02737  0.65303  0.28053  Biso   1.000  C
  C169     1.0000 0.01363  0.70767  0.61387  Biso   1.000  C
  C170     1.0000 0.29233  0.30597  0.61387  Biso   1.000  C
  C171     1.0000 0.69403  0.98637  0.61387  Biso   1.000  C
  C172     1.0000 0.31970  0.95900  0.05280  Biso   1.000  C
  C173     1.0000 0.04100  0.36070  0.05280  Biso   1.000  C
  C174     1.0000 0.63930  0.68030  0.05280  Biso   1.000  C
  C175     1.0000 0.98637  0.29233  0.38613  Biso   1.000  C
  C176     1.0000 0.70767  0.69403  0.38613  Biso   1.000  C
  C177     1.0000 0.30597  0.01363  0.38613  Biso   1.000  C
  C178     1.0000 0.65303  0.62567  0.71947  Biso   1.000  C
  C179     1.0000 0.37433  0.02737  0.71947  Biso   1.000  C
  C180     1.0000 0.97263  0.34697  0.71947  Biso   1.000  C
  H91      1.0000 0.63500  0.98710  0.93890  Biso   1.000  H
  H92      1.0000 0.01290  0.64790  0.93890  Biso   1.000  H
  H93      1.0000 0.35210  0.36500  0.93890  Biso   1.000  H
  H94      1.0000 0.30167  0.32043  0.27223  Biso   1.000  H
  H95      1.0000 0.67957  0.98123  0.27223  Biso   1.000  H
  H96      1.0000 0.01877  0.69833  0.27223  Biso   1.000  H
  H97      1.0000 0.96833  0.65377  0.60557  Biso   1.000  H
  H98      1.0000 0.34623  0.31457  0.60557  Biso   1.000  H
  H99      1.0000 0.68543  0.03167  0.60557  Biso   1.000  H
  H100     1.0000 0.36500  0.01290  0.06110  Biso   1.000  H
  H101     1.0000 0.98710  0.35210  0.06110  Biso   1.000  H
  H102     1.0000 0.64790  0.63500  0.06110  Biso   1.000  H
  H103     1.0000 0.03167  0.34623  0.39443  Biso   1.000  H
  H104     1.0000 0.65377  0.68543  0.39443  Biso   1.000  H
  H105     1.0000 0.31457  0.96833  0.39443  Biso   1.000  H
  H106     1.0000 0.69833  0.67957  0.72777  Biso   1.000  H
  H107     1.0000 0.32043  0.01877  0.72777  Biso   1.000  H
  H108     1.0000 0.98123  0.30167  0.72777  Biso   1.000  H
  C181     1.0000 0.66540  0.10480  0.96040  Biso   1.000  C
  C182     1.0000 0.89520  0.56060  0.96040  Biso   1.000  C
  C183     1.0000 0.43940  0.33460  0.96040  Biso   1.000  C
  C184     1.0000 0.33207  0.43813  0.29373  Biso   1.000  C
  C185     1.0000 0.56187  0.89393  0.29373  Biso   1.000  C
  C186     1.0000 0.10607  0.66793  0.29373  Biso   1.000  C
  C187     1.0000 0.99873  0.77147  0.62707  Biso   1.000  C
  C188     1.0000 0.22853  0.22727  0.62707  Biso   1.000  C
  C189     1.0000 0.77273  0.00127  0.62707  Biso   1.000  C
  C190     1.0000 0.33460  0.89520  0.03960  Biso   1.000  C
  C191     1.0000 0.10480  0.43940  0.03960  Biso   1.000  C
  C192     1.0000 0.56060  0.66540  0.03960  Biso   1.000  C
  C193     1.0000 0.00127  0.22853  0.37293  Biso   1.000  C
  C194     1.0000 0.77147  0.77273  0.37293  Biso   1.000  C
  C195     1.0000 0.22727  0.99873  0.37293  Biso   1.000  C
  C196     1.0000 0.66793  0.56187  0.70627  Biso   1.000  C
  C197     1.0000 0.43813  0.10607  0.70627  Biso   1.000  C
  C198     1.0000 0.89393  0.33207  0.70627  Biso   1.000  C
  H109     1.0000 0.60910  0.09310  0.96130  Biso   1.000  H
  H110     1.0000 0.90690  0.51600  0.96130  Biso   1.000  H
  H111     1.0000 0.48400  0.39090  0.96130  Biso   1.000  H
  H112     1.0000 0.27577  0.42643  0.29463  Biso   1.000  H
  H113     1.0000 0.57357  0.84933  0.29463  Biso   1.000  H
  H114     1.0000 0.15067  0.72423  0.29463  Biso   1.000  H
  H115     1.0000 0.94243  0.75977  0.62797  Biso   1.000  H
  H116     1.0000 0.24023  0.18267  0.62797  Biso   1.000  H
  H117     1.0000 0.81733  0.05757  0.62797  Biso   1.000  H
  H118     1.0000 0.39090  0.90690  0.03870  Biso   1.000  H
  H119     1.0000 0.09310  0.48400  0.03870  Biso   1.000  H
  H120     1.0000 0.51600  0.60910  0.03870  Biso   1.000  H
  H121     1.0000 0.05757  0.24023  0.37203  Biso   1.000  H
  H122     1.0000 0.75977  0.81733  0.37203  Biso   1.000  H
  H123     1.0000 0.18267  0.94243  0.37203  Biso   1.000  H
  H124     1.0000 0.72423  0.57357  0.70537  Biso   1.000  H
  H125     1.0000 0.42643  0.15067  0.70537  Biso   1.000  H
  H126     1.0000 0.84933  0.27577  0.70537  Biso   1.000  H
  C199     1.0000 0.65060  0.71270  0.90700  Biso   1.000  C
  C200     1.0000 0.28730  0.93790  0.90700  Biso   1.000  C
  C201     1.0000 0.06210  0.34940  0.90700  Biso   1.000  C
  C202     1.0000 0.31727  0.04603  0.24033  Biso   1.000  C
  C203     1.0000 0.95397  0.27123  0.24033  Biso   1.000  C
  C204     1.0000 0.72877  0.68273  0.24033  Biso   1.000  C
  C205     1.0000 0.98393  0.37937  0.57367  Biso   1.000  C
  C206     1.0000 0.62063  0.60457  0.57367  Biso   1.000  C
  C207     1.0000 0.39543  0.01607  0.57367  Biso   1.000  C
  C208     1.0000 0.34940  0.28730  0.09300  Biso   1.000  C
  C209     1.0000 0.71270  0.06210  0.09300  Biso   1.000  C
  C210     1.0000 0.93790  0.65060  0.09300  Biso   1.000  C
  C211     1.0000 0.01607  0.62063  0.42633  Biso   1.000  C
  C212     1.0000 0.37937  0.39543  0.42633  Biso   1.000  C
  C213     1.0000 0.60457  0.98393  0.42633  Biso   1.000  C
  C214     1.0000 0.68273  0.95397  0.75967  Biso   1.000  C
  C215     1.0000 0.04603  0.72877  0.75967  Biso   1.000  C
  C216     1.0000 0.27123  0.31727  0.75967  Biso   1.000  C
  H127     1.0000 0.61510  0.72530  0.92730  Biso   1.000  H
  H128     1.0000 0.27470  0.88980  0.92730  Biso   1.000  H
  H129     1.0000 0.11020  0.38490  0.92730  Biso   1.000  H
  H130     1.0000 0.28177  0.05863  0.26063  Biso   1.000  H
  H131     1.0000 0.94137  0.22313  0.26063  Biso   1.000  H
  H132     1.0000 0.77687  0.71823  0.26063  Biso   1.000  H
  H133     1.0000 0.94843  0.39197  0.59397  Biso   1.000  H
  H134     1.0000 0.60803  0.55647  0.59397  Biso   1.000  H
  H135     1.0000 0.44353  0.05157  0.59397  Biso   1.000  H
  H136     1.0000 0.38490  0.27470  0.07270  Biso   1.000  H
  H137     1.0000 0.72530  0.11020  0.07270  Biso   1.000  H
  H138     1.0000 0.88980  0.61510  0.07270  Biso   1.000  H
  H139     1.0000 0.05157  0.60803  0.40603  Biso   1.000  H
  H140     1.0000 0.39197  0.44353  0.40603  Biso   1.000  H
  H141     1.0000 0.55647  0.94843  0.40603  Biso   1.000  H
  H142     1.0000 0.71823  0.94137  0.73937  Biso   1.000  H
  H143     1.0000 0.05863  0.77687  0.73937  Biso   1.000  H
  H144     1.0000 0.22313  0.28177  0.73937  Biso   1.000  H
  N37      1.0000 0.66670  0.33330  0.15950  Biso   1.000  N
  N38      1.0000 0.33337  0.66663  0.49283  Biso   1.000  N
  N39      1.0000 0.00003  0.99997  0.82617  Biso   1.000  N
  N40      1.0000 0.33330  0.66670  0.84050  Biso   1.000  N
  N41      1.0000 0.99997  0.00003  0.17383  Biso   1.000  N
  N42      1.0000 0.66663  0.33337  0.50717  Biso   1.000  N
  H145     1.0000 0.67790  0.29360  0.17150  Biso   1.000  H
  H146     1.0000 0.70640  0.38430  0.17150  Biso   1.000  H
  H147     1.0000 0.61570  0.32210  0.17150  Biso   1.000  H
  H148     1.0000 0.34457  0.62693  0.50483  Biso   1.000  H
  H149     1.0000 0.37307  0.71763  0.50483  Biso   1.000  H
  H150     1.0000 0.28237  0.65543  0.50483  Biso   1.000  H
  H151     1.0000 0.01123  0.96027  0.83817  Biso   1.000  H
  H152     1.0000 0.03973  0.05097  0.83817  Biso   1.000  H
  H153     1.0000 0.94903  0.98877  0.83817  Biso   1.000  H
  H154     1.0000 0.32210  0.70640  0.82850  Biso   1.000  H
  H155     1.0000 0.29360  0.61570  0.82850  Biso   1.000  H
  H156     1.0000 0.38430  0.67790  0.82850  Biso   1.000  H
  H157     1.0000 0.98877  0.03973  0.16183  Biso   1.000  H
  H158     1.0000 0.96027  0.94903  0.16183  Biso   1.000  H
  H159     1.0000 0.05097  0.01123  0.16183  Biso   1.000  H
  H160     1.0000 0.65543  0.37307  0.49517  Biso   1.000  H
  H161     1.0000 0.62693  0.28237  0.49517  Biso   1.000  H
  H162     1.0000 0.71763  0.34457  0.49517  Biso   1.000  H
  C217     1.0000 0.74860  0.67450  0.84500  Biso   1.000  C
  C218     1.0000 0.32550  0.07410  0.84500  Biso   1.000  C
  C219     1.0000 0.92590  0.25140  0.84500  Biso   1.000  C
  C220     1.0000 0.41527  0.00783  0.17833  Biso   1.000  C
  C221     1.0000 0.99217  0.40743  0.17833  Biso   1.000  C
  C222     1.0000 0.59257  0.58473  0.17833  Biso   1.000  C
  C223     1.0000 0.08193  0.34117  0.51167  Biso   1.000  C
  C224     1.0000 0.65883  0.74077  0.51167  Biso   1.000  C
  C225     1.0000 0.25923  0.91807  0.51167  Biso   1.000  C
  C226     1.0000 0.25140  0.32550  0.15500  Biso   1.000  C
  C227     1.0000 0.67450  0.92590  0.15500  Biso   1.000  C
  C228     1.0000 0.07410  0.74860  0.15500  Biso   1.000  C
  C229     1.0000 0.91807  0.65883  0.48833  Biso   1.000  C
  C230     1.0000 0.34117  0.25923  0.48833  Biso   1.000  C
  C231     1.0000 0.74077  0.08193  0.48833  Biso   1.000  C
  C232     1.0000 0.58473  0.99217  0.82167  Biso   1.000  C
  C233     1.0000 0.00783  0.59257  0.82167  Biso   1.000  C
  C234     1.0000 0.40743  0.41527  0.82167  Biso   1.000  C
  H163     1.0000 0.78260  0.66190  0.82320  Biso   1.000  H
  H164     1.0000 0.33810  0.12070  0.82320  Biso   1.000  H
  H165     1.0000 0.87930  0.21740  0.82320  Biso   1.000  H
  H166     1.0000 0.44927  0.99523  0.15653  Biso   1.000  H
  H167     1.0000 0.00477  0.45403  0.15653  Biso   1.000  H
  H168     1.0000 0.54597  0.55073  0.15653  Biso   1.000  H
  H169     1.0000 0.11593  0.32857  0.48987  Biso   1.000  H
  H170     1.0000 0.67143  0.78737  0.48987  Biso   1.000  H
  H171     1.0000 0.21263  0.88407  0.48987  Biso   1.000  H
  H172     1.0000 0.21740  0.33810  0.17680  Biso   1.000  H
  H173     1.0000 0.66190  0.87930  0.17680  Biso   1.000  H
  H174     1.0000 0.12070  0.78260  0.17680  Biso   1.000  H
  H175     1.0000 0.88407  0.67143  0.51013  Biso   1.000  H
  H176     1.0000 0.32857  0.21263  0.51013  Biso   1.000  H
  H177     1.0000 0.78737  0.11593  0.51013  Biso   1.000  H
  H178     1.0000 0.55073  0.00477  0.84347  Biso   1.000  H
  H179     1.0000 0.99523  0.54597  0.84347  Biso   1.000  H
  H180     1.0000 0.45403  0.44927  0.84347  Biso   1.000  H
  C235     1.0000 0.67120  0.61070  0.86120  Biso   1.000  C
  C236     1.0000 0.38930  0.06050  0.86120  Biso   1.000  C
  C237     1.0000 0.93950  0.32880  0.86120  Biso   1.000  C
  C238     1.0000 0.33787  0.94403  0.19453  Biso   1.000  C
  C239     1.0000 0.05597  0.39383  0.19453  Biso   1.000  C
  C240     1.0000 0.60617  0.66213  0.19453  Biso   1.000  C
  C241     1.0000 0.00453  0.27737  0.52787  Biso   1.000  C
  C242     1.0000 0.72263  0.72717  0.52787  Biso   1.000  C
  C243     1.0000 0.27283  0.99547  0.52787  Biso   1.000  C
  C244     1.0000 0.32880  0.38930  0.13880  Biso   1.000  C
  C245     1.0000 0.61070  0.93950  0.13880  Biso   1.000  C
  C246     1.0000 0.06050  0.67120  0.13880  Biso   1.000  C
  C247     1.0000 0.99547  0.72263  0.47213  Biso   1.000  C
  C248     1.0000 0.27737  0.27283  0.47213  Biso   1.000  C
  C249     1.0000 0.72717  0.00453  0.47213  Biso   1.000  C
  C250     1.0000 0.66213  0.05597  0.80547  Biso   1.000  C
  C251     1.0000 0.94403  0.60617  0.80547  Biso   1.000  C
  C252     1.0000 0.39383  0.33787  0.80547  Biso   1.000  C
  C253     1.0000 0.64100  0.52120  0.84580  Biso   1.000  C
  C254     1.0000 0.47880  0.11980  0.84580  Biso   1.000  C
  C255     1.0000 0.88020  0.35900  0.84580  Biso   1.000  C
  C256     1.0000 0.30767  0.85453  0.17913  Biso   1.000  C
  C257     1.0000 0.14547  0.45313  0.17913  Biso   1.000  C
  C258     1.0000 0.54687  0.69233  0.17913  Biso   1.000  C
  C259     1.0000 0.97433  0.18787  0.51247  Biso   1.000  C
  C260     1.0000 0.81213  0.78647  0.51247  Biso   1.000  C
  C261     1.0000 0.21353  0.02567  0.51247  Biso   1.000  C
  C262     1.0000 0.35900  0.47880  0.15420  Biso   1.000  C
  C263     1.0000 0.52120  0.88020  0.15420  Biso   1.000  C
  C264     1.0000 0.11980  0.64100  0.15420  Biso   1.000  C
  C265     1.0000 0.02567  0.81213  0.48753  Biso   1.000  C
  C266     1.0000 0.18787  0.21353  0.48753  Biso   1.000  C
  C267     1.0000 0.78647  0.97433  0.48753  Biso   1.000  C
  C268     1.0000 0.69233  0.14547  0.82087  Biso   1.000  C
  C269     1.0000 0.85453  0.54687  0.82087  Biso   1.000  C
  C270     1.0000 0.45313  0.30767  0.82087  Biso   1.000  C
  H181     1.0000 0.61150  0.48440  0.87560  Biso   1.000  H
  H182     1.0000 0.51560  0.12710  0.87560  Biso   1.000  H
  H183     1.0000 0.87290  0.38850  0.87560  Biso   1.000  H
  H184     1.0000 0.27817  0.81773  0.20893  Biso   1.000  H
  H185     1.0000 0.18227  0.46043  0.20893  Biso   1.000  H
  H186     1.0000 0.53957  0.72183  0.20893  Biso   1.000  H
  H187     1.0000 0.94483  0.15107  0.54227  Biso   1.000  H
  H188     1.0000 0.84893  0.79377  0.54227  Biso   1.000  H
  H189     1.0000 0.20623  0.05517  0.54227  Biso   1.000  H
  H190     1.0000 0.38850  0.51560  0.12440  Biso   1.000  H
  H191     1.0000 0.48440  0.87290  0.12440  Biso   1.000  H
  H192     1.0000 0.12710  0.61150  0.12440  Biso   1.000  H
  H193     1.0000 0.05517  0.84893  0.45773  Biso   1.000  H
  H194     1.0000 0.15107  0.20623  0.45773  Biso   1.000  H
  H195     1.0000 0.79377  0.94483  0.45773  Biso   1.000  H
  H196     1.0000 0.72183  0.18227  0.79107  Biso   1.000  H
  H197     1.0000 0.81773  0.53957  0.79107  Biso   1.000  H
  H198     1.0000 0.46043  0.27817  0.79107  Biso   1.000  H
  H199     1.0000 0.68890  0.51500  0.83600  Biso   1.000  H
  H200     1.0000 0.48500  0.17390  0.83600  Biso   1.000  H
  H201     1.0000 0.82610  0.31110  0.83600  Biso   1.000  H
  H202     1.0000 0.35557  0.84833  0.16933  Biso   1.000  H
  H203     1.0000 0.15167  0.50723  0.16933  Biso   1.000  H
  H204     1.0000 0.49277  0.64443  0.16933  Biso   1.000  H
  H205     1.0000 0.02223  0.18167  0.50267  Biso   1.000  H
  H206     1.0000 0.81833  0.84057  0.50267  Biso   1.000  H
  H207     1.0000 0.15943  0.97777  0.50267  Biso   1.000  H
  H208     1.0000 0.31110  0.48500  0.16400  Biso   1.000  H
  H209     1.0000 0.51500  0.82610  0.16400  Biso   1.000  H
  H210     1.0000 0.17390  0.68890  0.16400  Biso   1.000  H
  H211     1.0000 0.97777  0.81833  0.49733  Biso   1.000  H
  H212     1.0000 0.18167  0.15943  0.49733  Biso   1.000  H
  H213     1.0000 0.84057  0.02223  0.49733  Biso   1.000  H
  H214     1.0000 0.64443  0.15167  0.83067  Biso   1.000  H
  H215     1.0000 0.84833  0.49277  0.83067  Biso   1.000  H
  H216     1.0000 0.50723  0.35557  0.83067  Biso   1.000  H
  H217     1.0000 0.60280  0.50620  0.81560  Biso   1.000  H
  H218     1.0000 0.49380  0.09660  0.81560  Biso   1.000  H
  H219     1.0000 0.90340  0.39720  0.81560  Biso   1.000  H
  H220     1.0000 0.26947  0.83953  0.14893  Biso   1.000  H
  H221     1.0000 0.16047  0.42993  0.14893  Biso   1.000  H
  H222     1.0000 0.57007  0.73053  0.14893  Biso   1.000  H
  H223     1.0000 0.93613  0.17287  0.48227  Biso   1.000  H
  H224     1.0000 0.82713  0.76327  0.48227  Biso   1.000  H
  H225     1.0000 0.23673  0.06387  0.48227  Biso   1.000  H
  H226     1.0000 0.39720  0.49380  0.18440  Biso   1.000  H
  H227     1.0000 0.50620  0.90340  0.18440  Biso   1.000  H
  H228     1.0000 0.09660  0.60280  0.18440  Biso   1.000  H
  H229     1.0000 0.06387  0.82713  0.51773  Biso   1.000  H
  H230     1.0000 0.17287  0.23673  0.51773  Biso   1.000  H
  H231     1.0000 0.76327  0.93613  0.51773  Biso   1.000  H
  H232     1.0000 0.73053  0.16047  0.85107  Biso   1.000  H
  H233     1.0000 0.83953  0.57007  0.85107  Biso   1.000  H
  H234     1.0000 0.42993  0.26947  0.85107  Biso   1.000  H
  N43      1.0000 0.84000  0.91250  0.92617  Biso   1.000  N
  N44      1.0000 0.08750  0.92750  0.92617  Biso   1.000  N
  N45      1.0000 0.07250  0.16000  0.92617  Biso   1.000  N
  N46      1.0000 0.50667  0.24583  0.25950  Biso   1.000  N
  N47      1.0000 0.75417  0.26083  0.25950  Biso   1.000  N
  N48      1.0000 0.73917  0.49333  0.25950  Biso   1.000  N
  N49      1.0000 0.17333  0.57917  0.59284  Biso   1.000  N
  N50      1.0000 0.42083  0.59417  0.59284  Biso   1.000  N
  N51      1.0000 0.40583  0.82667  0.59284  Biso   1.000  N
  N52      1.0000 0.16000  0.08750  0.07383  Biso   1.000  N
  N53      1.0000 0.91250  0.07250  0.07383  Biso   1.000  N
  N54      1.0000 0.92750  0.84000  0.07383  Biso   1.000  N
  N55      1.0000 0.82667  0.42083  0.40716  Biso   1.000  N
  N56      1.0000 0.57917  0.40583  0.40716  Biso   1.000  N
  N57      1.0000 0.59417  0.17333  0.40716  Biso   1.000  N
  N58      1.0000 0.49333  0.75417  0.74050  Biso   1.000  N
  N59      1.0000 0.24583  0.73917  0.74050  Biso   1.000  N
  N60      1.0000 0.26083  0.50667  0.74050  Biso   1.000  N
