data_image0
_cell_length_a       7.4238
_cell_length_b       7.5749
_cell_length_c       13.4896
_cell_angle_alpha    83.579
_cell_angle_beta     81.452
_cell_angle_gamma    63.055

_symmetry_space_group_name_H-M    "P 1"
_symmetry_int_tables_number       1

loop_
  _symmetry_equiv_pos_as_xyz
  'x, y, z'

loop_
  _atom_site_label
  _atom_site_occupancy
  _atom_site_fract_x
  _atom_site_fract_y
  _atom_site_fract_z
  _atom_site_thermal_displace_type
  _atom_site_B_iso_or_equiv
  _atom_site_type_symbol
  Br1      1.0000 0.88441  0.28929  0.21089  Biso   1.000  Br
  Br2      1.0000 0.11559  0.71071  0.78911  Biso   1.000  Br
  Br3      1.0000 0.26869  0.58247  0.13537  Biso   1.000  Br
  Br4      1.0000 0.73131  0.41753  0.86463  Biso   1.000  Br
  Cu1      1.0000 0.67169  0.51188  0.34831  Biso   1.000  Cu
  Cu2      1.0000 0.32831  0.48812  0.65169  Biso   1.000  Cu
  Cu3      1.0000 0.47343  0.31034  0.24942  Biso   1.000  Cu
  Cu4      1.0000 0.52657  0.68966  0.75058  Biso   1.000  Cu
  S1       1.0000 0.43756  0.36744  0.41129  Biso   1.000  S
  S2       1.0000 0.56244  0.63256  0.58871  Biso   1.000  S
  S3       1.0000 0.51907  0.84074  0.31173  Biso   1.000  S
  S4       1.0000 0.48093  0.15926  0.68827  Biso   1.000  S
  C1       1.0000 0.60370  0.88860  0.19250  Biso   1.000  C
  C2       1.0000 0.39630  0.11140  0.80750  Biso   1.000  C
  N1       1.0000 0.58640  0.07230  0.16280  Biso   1.000  N
  N2       1.0000 0.41360  0.92770  0.83720  Biso   1.000  N
  N3       1.0000 0.69020  0.74680  0.12450  Biso   1.000  N
  N4       1.0000 0.30980  0.25320  0.87550  Biso   1.000  N
  C3       1.0000 0.75540  0.95460  0.00140  Biso   1.000  C
  C4       1.0000 0.24460  0.04540  0.99860  Biso   1.000  C
  C5       1.0000 0.66290  0.09990  0.07020  Biso   1.000  C
  C6       1.0000 0.33710  0.90010  0.92980  Biso   1.000  C
  C7       1.0000 0.76880  0.77410  0.03120  Biso   1.000  C
  C8       1.0000 0.23120  0.22590  0.96880  Biso   1.000  C
  C9       1.0000 0.21500  0.57460  0.43850  Biso   1.000  C
  C10      1.0000 0.78500  0.42540  0.56150  Biso   1.000  C
  N5       1.0000 0.13810  0.61580  0.53500  Biso   1.000  N
  N6       1.0000 0.86190  0.38420  0.46500  Biso   1.000  N
  N7       1.0000 0.11330  0.69810  0.36370  Biso   1.000  N
  N8       1.0000 0.88670  0.30190  0.63630  Biso   1.000  N
  C11      1.0000 0.95410  0.76990  0.55280  Biso   1.000  C
  C12      1.0000 0.04590  0.23010  0.44720  Biso   1.000  C
  C13      1.0000 0.84510  0.89180  0.47770  Biso   1.000  C
  C14      1.0000 0.15490  0.10820  0.52230  Biso   1.000  C
  C15      1.0000 0.93100  0.85500  0.38120  Biso   1.000  C
  C16      1.0000 0.06900  0.14500  0.61880  Biso   1.000  C
  H1       1.0000 0.81200  0.97600  0.95000  Biso   1.000  H
  H2       1.0000 0.18800  0.02400  0.05000  Biso   1.000  H
  H3       1.0000 0.65400  0.23100  0.04800  Biso   1.000  H
  H4       1.0000 0.34600  0.76900  0.95200  Biso   1.000  H
  H5       1.0000 0.88100  0.93500  0.32300  Biso   1.000  H
  H6       1.0000 0.11900  0.06500  0.67700  Biso   1.000  H
  H7       1.0000 0.71800  0.99400  0.49200  Biso   1.000  H
  H8       1.0000 0.28200  0.00600  0.50800  Biso   1.000  H
  H9       1.0000 0.90200  0.78600  0.62900  Biso   1.000  H
  H10      1.0000 0.09800  0.21400  0.37100  Biso   1.000  H
  H11      1.0000 0.24200  0.68800  0.24800  Biso   1.000  H
  H12      1.0000 0.75800  0.31200  0.75200  Biso   1.000  H
  H13      1.0000 0.70800  0.64900  0.14400  Biso   1.000  H
  H14      1.0000 0.29200  0.35100  0.85600  Biso   1.000  H
  H15      1.0000 0.82600  0.66100  0.99400  Biso   1.000  H
  H16      1.0000 0.17400  0.33900  0.00600  Biso   1.000  H
