data_image0
_cell_length_a       11.7007
_cell_length_b       11.7007
_cell_length_c       11.7007
_cell_angle_alpha    90
_cell_angle_beta     90
_cell_angle_gamma    90

_symmetry_space_group_name_H-M    "P 1"
_symmetry_int_tables_number       1

loop_
  _symmetry_equiv_pos_as_xyz
  'x, y, z'

loop_
  _atom_site_label
  _atom_site_occupancy
  _atom_site_fract_x
  _atom_site_fract_y
  _atom_site_fract_z
  _atom_site_thermal_displace_type
  _atom_site_B_iso_or_equiv
  _atom_site_type_symbol
  Cu1      1.0000 0.89219  0.39219  0.10781  Biso   1.000  Cu
  Cu2      1.0000 0.60781  0.60781  0.60781  Biso   1.000  Cu
  Cu3      1.0000 0.10781  0.89219  0.39219  Biso   1.000  Cu
  Cu4      1.0000 0.39219  0.10781  0.89219  Biso   1.000  Cu
  Cu5      1.0000 0.10781  0.60781  0.89219  Biso   1.000  Cu
  Cu6      1.0000 0.39219  0.39219  0.39219  Biso   1.000  Cu
  Cu7      1.0000 0.89219  0.10781  0.60781  Biso   1.000  Cu
  Cu8      1.0000 0.60781  0.89219  0.10781  Biso   1.000  Cu
  S1       1.0000 0.78914  0.53706  0.02302  Biso   1.000  S
  S2       1.0000 0.71086  0.46294  0.52302  Biso   1.000  S
  S3       1.0000 0.21086  0.03706  0.47698  Biso   1.000  S
  S4       1.0000 0.28914  0.96294  0.97698  Biso   1.000  S
  S5       1.0000 0.02302  0.78914  0.53706  Biso   1.000  S
  S6       1.0000 0.52302  0.71086  0.46294  Biso   1.000  S
  S7       1.0000 0.47698  0.21086  0.03706  Biso   1.000  S
  S8       1.0000 0.97698  0.28914  0.96294  Biso   1.000  S
  S9       1.0000 0.53706  0.02302  0.78914  Biso   1.000  S
  S10      1.0000 0.46294  0.52302  0.71086  Biso   1.000  S
  S11      1.0000 0.03706  0.47698  0.21086  Biso   1.000  S
  S12      1.0000 0.96294  0.97698  0.28914  Biso   1.000  S
  S13      1.0000 0.21086  0.46294  0.97698  Biso   1.000  S
  S14      1.0000 0.28914  0.53706  0.47698  Biso   1.000  S
  S15      1.0000 0.78914  0.96294  0.52302  Biso   1.000  S
  S16      1.0000 0.71086  0.03706  0.02302  Biso   1.000  S
  S17      1.0000 0.97698  0.21086  0.46294  Biso   1.000  S
  S18      1.0000 0.47698  0.28914  0.53706  Biso   1.000  S
  S19      1.0000 0.52302  0.78914  0.96294  Biso   1.000  S
  S20      1.0000 0.02302  0.71086  0.03706  Biso   1.000  S
  S21      1.0000 0.46294  0.97698  0.21086  Biso   1.000  S
  S22      1.0000 0.53706  0.47698  0.28914  Biso   1.000  S
  S23      1.0000 0.96294  0.52302  0.78914  Biso   1.000  S
  S24      1.0000 0.03706  0.02302  0.71086  Biso   1.000  S
  Cl1      1.0000 0.77560  0.27560  0.22440  Biso   1.000  Cl
  Cl2      1.0000 0.72440  0.72440  0.72440  Biso   1.000  Cl
  Cl3      1.0000 0.22440  0.77560  0.27560  Biso   1.000  Cl
  Cl4      1.0000 0.27560  0.22440  0.77560  Biso   1.000  Cl
  Cl5      1.0000 0.22440  0.72440  0.77560  Biso   1.000  Cl
  Cl6      1.0000 0.27560  0.27560  0.27560  Biso   1.000  Cl
  Cl7      1.0000 0.77560  0.22440  0.72440  Biso   1.000  Cl
  Cl8      1.0000 0.72440  0.77560  0.22440  Biso   1.000  Cl
  C1       1.0000 0.67830  0.46990  0.96570  Biso   1.000  C
  C2       1.0000 0.82170  0.53010  0.46570  Biso   1.000  C
  C3       1.0000 0.32170  0.96990  0.53430  Biso   1.000  C
  C4       1.0000 0.17830  0.03010  0.03430  Biso   1.000  C
  C5       1.0000 0.96570  0.67830  0.46990  Biso   1.000  C
  C6       1.0000 0.46570  0.82170  0.53010  Biso   1.000  C
  C7       1.0000 0.53430  0.32170  0.96990  Biso   1.000  C
  C8       1.0000 0.03430  0.17830  0.03010  Biso   1.000  C
  C9       1.0000 0.46990  0.96570  0.67830  Biso   1.000  C
  C10      1.0000 0.53010  0.46570  0.82170  Biso   1.000  C
  C11      1.0000 0.96990  0.53430  0.32170  Biso   1.000  C
  C12      1.0000 0.03010  0.03430  0.17830  Biso   1.000  C
  C13      1.0000 0.32170  0.53010  0.03430  Biso   1.000  C
  C14      1.0000 0.17830  0.46990  0.53430  Biso   1.000  C
  C15      1.0000 0.67830  0.03010  0.46570  Biso   1.000  C
  C16      1.0000 0.82170  0.96990  0.96570  Biso   1.000  C
  C17      1.0000 0.03430  0.32170  0.53010  Biso   1.000  C
  C18      1.0000 0.53430  0.17830  0.46990  Biso   1.000  C
  C19      1.0000 0.46570  0.67830  0.03010  Biso   1.000  C
  C20      1.0000 0.96570  0.82170  0.96990  Biso   1.000  C
  C21      1.0000 0.53010  0.03430  0.32170  Biso   1.000  C
  C22      1.0000 0.46990  0.53430  0.17830  Biso   1.000  C
  C23      1.0000 0.03010  0.46570  0.67830  Biso   1.000  C
  C24      1.0000 0.96990  0.96570  0.82170  Biso   1.000  C
  N1       1.0000 0.63067  0.37331  0.01097  Biso   1.000  N
  N2       1.0000 0.86933  0.62669  0.51097  Biso   1.000  N
  N3       1.0000 0.36933  0.87331  0.48903  Biso   1.000  N
  N4       1.0000 0.13067  0.12669  0.98903  Biso   1.000  N
  N5       1.0000 0.01097  0.63067  0.37331  Biso   1.000  N
  N6       1.0000 0.51097  0.86933  0.62669  Biso   1.000  N
  N7       1.0000 0.48903  0.36933  0.87331  Biso   1.000  N
  N8       1.0000 0.98903  0.13067  0.12669  Biso   1.000  N
  N9       1.0000 0.37331  0.01097  0.63067  Biso   1.000  N
  N10      1.0000 0.62669  0.51097  0.86933  Biso   1.000  N
  N11      1.0000 0.87331  0.48903  0.36933  Biso   1.000  N
  N12      1.0000 0.12669  0.98903  0.13067  Biso   1.000  N
  N13      1.0000 0.36933  0.62669  0.98903  Biso   1.000  N
  N14      1.0000 0.13067  0.37331  0.48903  Biso   1.000  N
  N15      1.0000 0.63067  0.12669  0.51097  Biso   1.000  N
  N16      1.0000 0.86933  0.87331  0.01097  Biso   1.000  N
  N17      1.0000 0.98903  0.36933  0.62669  Biso   1.000  N
  N18      1.0000 0.48903  0.13067  0.37331  Biso   1.000  N
  N19      1.0000 0.51097  0.63067  0.12669  Biso   1.000  N
  N20      1.0000 0.01097  0.86933  0.87331  Biso   1.000  N
  N21      1.0000 0.62669  0.98903  0.36933  Biso   1.000  N
  N22      1.0000 0.37331  0.48903  0.13067  Biso   1.000  N
  N23      1.0000 0.12669  0.51097  0.63067  Biso   1.000  N
  N24      1.0000 0.87331  0.01097  0.86933  Biso   1.000  N
  H1       1.0000 0.66360  0.34290  0.06920  Biso   1.000  H
  H2       1.0000 0.83640  0.65710  0.56920  Biso   1.000  H
  H3       1.0000 0.33640  0.84290  0.43080  Biso   1.000  H
  H4       1.0000 0.16360  0.15710  0.93080  Biso   1.000  H
  H5       1.0000 0.06920  0.66360  0.34290  Biso   1.000  H
  H6       1.0000 0.56920  0.83640  0.65710  Biso   1.000  H
  H7       1.0000 0.43080  0.33640  0.84290  Biso   1.000  H
  H8       1.0000 0.93080  0.16360  0.15710  Biso   1.000  H
  H9       1.0000 0.34290  0.06920  0.66360  Biso   1.000  H
  H10      1.0000 0.65710  0.56920  0.83640  Biso   1.000  H
  H11      1.0000 0.84290  0.43080  0.33640  Biso   1.000  H
  H12      1.0000 0.15710  0.93080  0.16360  Biso   1.000  H
  H13      1.0000 0.33640  0.65710  0.93080  Biso   1.000  H
  H14      1.0000 0.16360  0.34290  0.43080  Biso   1.000  H
  H15      1.0000 0.66360  0.15710  0.56920  Biso   1.000  H
  H16      1.0000 0.83640  0.84290  0.06920  Biso   1.000  H
  H17      1.0000 0.93080  0.33640  0.65710  Biso   1.000  H
  H18      1.0000 0.43080  0.16360  0.34290  Biso   1.000  H
  H19      1.0000 0.56920  0.66360  0.15710  Biso   1.000  H
  H20      1.0000 0.06920  0.83640  0.84290  Biso   1.000  H
  H21      1.0000 0.65710  0.93080  0.33640  Biso   1.000  H
  H22      1.0000 0.34290  0.43080  0.16360  Biso   1.000  H
  H23      1.0000 0.15710  0.56920  0.66360  Biso   1.000  H
  H24      1.0000 0.84290  0.06920  0.83640  Biso   1.000  H
