data_image0
_cell_length_a       11.8847
_cell_length_b       11.8847
_cell_length_c       11.8847
_cell_angle_alpha    90
_cell_angle_beta     90
_cell_angle_gamma    90

_symmetry_space_group_name_H-M    "P 1"
_symmetry_int_tables_number       1

loop_
  _symmetry_equiv_pos_as_xyz
  'x, y, z'

loop_
  _atom_site_label
  _atom_site_occupancy
  _atom_site_fract_x
  _atom_site_fract_y
  _atom_site_fract_z
  _atom_site_thermal_displace_type
  _atom_site_B_iso_or_equiv
  _atom_site_type_symbol
  Br1      1.0000 0.76443  0.73557  0.26443  Biso   1.000  Br
  Br2      1.0000 0.26443  0.76443  0.73557  Biso   1.000  Br
  Br3      1.0000 0.73557  0.26443  0.76443  Biso   1.000  Br
  Br4      1.0000 0.23557  0.23557  0.23557  Biso   1.000  Br
  Br5      1.0000 0.23557  0.26443  0.73557  Biso   1.000  Br
  Br6      1.0000 0.73557  0.23557  0.26443  Biso   1.000  Br
  Br7      1.0000 0.26443  0.73557  0.23557  Biso   1.000  Br
  Br8      1.0000 0.76443  0.76443  0.76443  Biso   1.000  Br
  Cu1      1.0000 0.88480  0.61520  0.38480  Biso   1.000  Cu
  Cu2      1.0000 0.38480  0.88480  0.61520  Biso   1.000  Cu
  Cu3      1.0000 0.61520  0.38480  0.88480  Biso   1.000  Cu
  Cu4      1.0000 0.11520  0.11520  0.11520  Biso   1.000  Cu
  Cu5      1.0000 0.11520  0.38480  0.61520  Biso   1.000  Cu
  Cu6      1.0000 0.61520  0.11520  0.38480  Biso   1.000  Cu
  Cu7      1.0000 0.38480  0.61520  0.11520  Biso   1.000  Cu
  Cu8      1.0000 0.88480  0.88480  0.88480  Biso   1.000  Cu
  S1       1.0000 0.97586  0.71176  0.52736  Biso   1.000  S
  S2       1.0000 0.52736  0.97586  0.71176  Biso   1.000  S
  S3       1.0000 0.71176  0.52736  0.97586  Biso   1.000  S
  S4       1.0000 0.52414  0.28824  0.02736  Biso   1.000  S
  S5       1.0000 0.02414  0.21176  0.97264  Biso   1.000  S
  S6       1.0000 0.47586  0.78824  0.47264  Biso   1.000  S
  S7       1.0000 0.02736  0.52414  0.28824  Biso   1.000  S
  S8       1.0000 0.97264  0.02414  0.21176  Biso   1.000  S
  S9       1.0000 0.47264  0.47586  0.78824  Biso   1.000  S
  S10      1.0000 0.28824  0.02736  0.52414  Biso   1.000  S
  S11      1.0000 0.21176  0.97264  0.02414  Biso   1.000  S
  S12      1.0000 0.78824  0.47264  0.47586  Biso   1.000  S
  S13      1.0000 0.02414  0.28824  0.47264  Biso   1.000  S
  S14      1.0000 0.47264  0.02414  0.28824  Biso   1.000  S
  S15      1.0000 0.28824  0.47264  0.02414  Biso   1.000  S
  S16      1.0000 0.47586  0.71176  0.97264  Biso   1.000  S
  S17      1.0000 0.97586  0.78824  0.02736  Biso   1.000  S
  S18      1.0000 0.52414  0.21176  0.52736  Biso   1.000  S
  S19      1.0000 0.97264  0.47586  0.71176  Biso   1.000  S
  S20      1.0000 0.02736  0.97586  0.78824  Biso   1.000  S
  S21      1.0000 0.52736  0.52414  0.21176  Biso   1.000  S
  S22      1.0000 0.71176  0.97264  0.47586  Biso   1.000  S
  S23      1.0000 0.78824  0.02736  0.97586  Biso   1.000  S
  S24      1.0000 0.21176  0.52736  0.52414  Biso   1.000  S
  N1       1.0000 0.99200  0.87160  0.37080  Biso   1.000  N
  N2       1.0000 0.37080  0.99200  0.87160  Biso   1.000  N
  N3       1.0000 0.87160  0.37080  0.99200  Biso   1.000  N
  N4       1.0000 0.50800  0.12840  0.87080  Biso   1.000  N
  N5       1.0000 0.00800  0.37160  0.12920  Biso   1.000  N
  N6       1.0000 0.49200  0.62840  0.62920  Biso   1.000  N
  N7       1.0000 0.87080  0.50800  0.12840  Biso   1.000  N
  N8       1.0000 0.12920  0.00800  0.37160  Biso   1.000  N
  N9       1.0000 0.62920  0.49200  0.62840  Biso   1.000  N
  N10      1.0000 0.12840  0.87080  0.50800  Biso   1.000  N
  N11      1.0000 0.37160  0.12920  0.00800  Biso   1.000  N
  N12      1.0000 0.62840  0.62920  0.49200  Biso   1.000  N
  N13      1.0000 0.00800  0.12840  0.62920  Biso   1.000  N
  N14      1.0000 0.62920  0.00800  0.12840  Biso   1.000  N
  N15      1.0000 0.12840  0.62920  0.00800  Biso   1.000  N
  N16      1.0000 0.49200  0.87160  0.12920  Biso   1.000  N
  N17      1.0000 0.99200  0.62840  0.87080  Biso   1.000  N
  N18      1.0000 0.50800  0.37160  0.37080  Biso   1.000  N
  N19      1.0000 0.12920  0.49200  0.87160  Biso   1.000  N
  N20      1.0000 0.87080  0.99200  0.62840  Biso   1.000  N
  N21      1.0000 0.37080  0.50800  0.37160  Biso   1.000  N
  N22      1.0000 0.87160  0.12920  0.49200  Biso   1.000  N
  N23      1.0000 0.62840  0.87080  0.99200  Biso   1.000  N
  N24      1.0000 0.37160  0.37080  0.50800  Biso   1.000  N
  C1       1.0000 0.03430  0.82180  0.46490  Biso   1.000  C
  C2       1.0000 0.46490  0.03430  0.82180  Biso   1.000  C
  C3       1.0000 0.82180  0.46490  0.03430  Biso   1.000  C
  C4       1.0000 0.46570  0.17820  0.96490  Biso   1.000  C
  C5       1.0000 0.96570  0.32180  0.03510  Biso   1.000  C
  C6       1.0000 0.53430  0.67820  0.53510  Biso   1.000  C
  C7       1.0000 0.96490  0.46570  0.17820  Biso   1.000  C
  C8       1.0000 0.03510  0.96570  0.32180  Biso   1.000  C
  C9       1.0000 0.53510  0.53430  0.67820  Biso   1.000  C
  C10      1.0000 0.17820  0.96490  0.46570  Biso   1.000  C
  C11      1.0000 0.32180  0.03510  0.96570  Biso   1.000  C
  C12      1.0000 0.67820  0.53510  0.53430  Biso   1.000  C
  C13      1.0000 0.96570  0.17820  0.53510  Biso   1.000  C
  C14      1.0000 0.53510  0.96570  0.17820  Biso   1.000  C
  C15      1.0000 0.17820  0.53510  0.96570  Biso   1.000  C
  C16      1.0000 0.53430  0.82180  0.03510  Biso   1.000  C
  C17      1.0000 0.03430  0.67820  0.96490  Biso   1.000  C
  C18      1.0000 0.46570  0.32180  0.46490  Biso   1.000  C
  C19      1.0000 0.03510  0.53430  0.82180  Biso   1.000  C
  C20      1.0000 0.96490  0.03430  0.67820  Biso   1.000  C
  C21      1.0000 0.46490  0.46570  0.32180  Biso   1.000  C
  C22      1.0000 0.82180  0.03510  0.53430  Biso   1.000  C
  C23      1.0000 0.67820  0.96490  0.03430  Biso   1.000  C
  C24      1.0000 0.32180  0.46490  0.46570  Biso   1.000  C
  H1       1.0000 0.15900  0.84300  0.55900  Biso   1.000  H
  H2       1.0000 0.55900  0.15900  0.84300  Biso   1.000  H
  H3       1.0000 0.84300  0.55900  0.15900  Biso   1.000  H
  H4       1.0000 0.34100  0.15700  0.05900  Biso   1.000  H
  H5       1.0000 0.84100  0.34300  0.94100  Biso   1.000  H
  H6       1.0000 0.65900  0.65700  0.44100  Biso   1.000  H
  H7       1.0000 0.05900  0.34100  0.15700  Biso   1.000  H
  H8       1.0000 0.94100  0.84100  0.34300  Biso   1.000  H
  H9       1.0000 0.44100  0.65900  0.65700  Biso   1.000  H
  H10      1.0000 0.15700  0.05900  0.34100  Biso   1.000  H
  H11      1.0000 0.34300  0.94100  0.84100  Biso   1.000  H
  H12      1.0000 0.65700  0.44100  0.65900  Biso   1.000  H
  H13      1.0000 0.84100  0.15700  0.44100  Biso   1.000  H
  H14      1.0000 0.44100  0.84100  0.15700  Biso   1.000  H
  H15      1.0000 0.15700  0.44100  0.84100  Biso   1.000  H
  H16      1.0000 0.65900  0.84300  0.94100  Biso   1.000  H
  H17      1.0000 0.15900  0.65700  0.05900  Biso   1.000  H
  H18      1.0000 0.34100  0.34300  0.55900  Biso   1.000  H
  H19      1.0000 0.94100  0.65900  0.84300  Biso   1.000  H
  H20      1.0000 0.05900  0.15900  0.65700  Biso   1.000  H
  H21      1.0000 0.55900  0.34100  0.34300  Biso   1.000  H
  H22      1.0000 0.84300  0.94100  0.65900  Biso   1.000  H
  H23      1.0000 0.65700  0.05900  0.15900  Biso   1.000  H
  H24      1.0000 0.34300  0.55900  0.34100  Biso   1.000  H
