data_image0
_cell_length_a       7.476
_cell_length_b       7.5128
_cell_length_c       12.9983
_cell_angle_alpha    83.086
_cell_angle_beta     81.893
_cell_angle_gamma    62.889

_symmetry_space_group_name_H-M    "P 1"
_symmetry_int_tables_number       1

loop_
  _symmetry_equiv_pos_as_xyz
  'x, y, z'

loop_
  _atom_site_label
  _atom_site_occupancy
  _atom_site_fract_x
  _atom_site_fract_y
  _atom_site_fract_z
  _atom_site_thermal_displace_type
  _atom_site_B_iso_or_equiv
  _atom_site_type_symbol
  Cu1      1.0000 0.16358  0.51052  0.34281  Biso   1.000  Cu
  Cu2      1.0000 0.83642  0.48948  0.65719  Biso   1.000  Cu
  Cu3      1.0000 0.95781  0.31420  0.24346  Biso   1.000  Cu
  Cu4      1.0000 0.04219  0.68580  0.75654  Biso   1.000  Cu
  S1       1.0000 0.93336  0.36813  0.40969  Biso   1.000  S
  S2       1.0000 0.06664  0.63187  0.59031  Biso   1.000  S
  S3       1.0000 0.01528  0.84236  0.30488  Biso   1.000  S
  S4       1.0000 0.98472  0.15764  0.69512  Biso   1.000  S
  Cl1      1.0000 0.35894  0.30512  0.20655  Biso   1.000  Cl
  Cl2      1.0000 0.64106  0.69488  0.79345  Biso   1.000  Cl
  N1       1.0000 0.64050  0.61780  0.53796  Biso   1.000  N
  N2       1.0000 0.35950  0.38220  0.46204  Biso   1.000  N
  N3       1.0000 0.60650  0.70170  0.36064  Biso   1.000  N
  N4       1.0000 0.39350  0.29830  0.63936  Biso   1.000  N
  N5       1.0000 0.20630  0.74640  0.11537  Biso   1.000  N
  N6       1.0000 0.79370  0.25360  0.88463  Biso   1.000  N
  C1       1.0000 0.71180  0.57690  0.43790  Biso   1.000  C
  C2       1.0000 0.28820  0.42310  0.56210  Biso   1.000  C
  C3       1.0000 0.10740  0.89200  0.18390  Biso   1.000  C
  C4       1.0000 0.89260  0.10800  0.81610  Biso   1.000  C
  C5       1.0000 0.45880  0.77170  0.55670  Biso   1.000  C
  C6       1.0000 0.54120  0.22830  0.44330  Biso   1.000  C
  C7       1.0000 0.34410  0.89530  0.47870  Biso   1.000  C
  C8       1.0000 0.65590  0.10470  0.52130  Biso   1.000  C
  C9       1.0000 0.42540  0.85980  0.37910  Biso   1.000  C
  C10      1.0000 0.57460  0.14020  0.62090  Biso   1.000  C
  C11      1.0000 0.28400  0.77900  0.01970  Biso   1.000  C
  C12      1.0000 0.71600  0.22100  0.98030  Biso   1.000  C
  C13      1.0000 0.26390  0.96430  0.98800  Biso   1.000  C
  C14      1.0000 0.73610  0.03570  0.01200  Biso   1.000  C
  Cl3      1.0000 0.74854  0.57550  0.13683  Biso   1.000  Cl
  Cl4      1.0000 0.25146  0.42450  0.86317  Biso   1.000  Cl
  N7       1.0000 0.08670  0.07870  0.15343  Biso   1.000  N
  N8       1.0000 0.91330  0.92130  0.84657  Biso   1.000  N
  C15      1.0000 0.16290  0.11080  0.05810  Biso   1.000  C
  C16      1.0000 0.83710  0.88920  0.94190  Biso   1.000  C
  H1       1.0000 0.34600  0.67200  0.98300  Biso   1.000  H
  H2       1.0000 0.65400  0.32800  0.01700  Biso   1.000  H
  H3       1.0000 0.15000  0.24200  0.04300  Biso   1.000  H
  H4       1.0000 0.85000  0.75800  0.95700  Biso   1.000  H
  H5       1.0000 0.31500  0.99800  0.92900  Biso   1.000  H
  H6       1.0000 0.68500  0.00200  0.07100  Biso   1.000  H
  H7       1.0000 0.41500  0.78900  0.63000  Biso   1.000  H
  H8       1.0000 0.58500  0.21100  0.37000  Biso   1.000  H
  H9       1.0000 0.37100  0.92600  0.32400  Biso   1.000  H
  H10      1.0000 0.62900  0.07400  0.67600  Biso   1.000  H
  H11      1.0000 0.22700  0.99100  0.49000  Biso   1.000  H
  H12      1.0000 0.77300  0.00900  0.51000  Biso   1.000  H
  H13      1.0000 0.22600  0.63600  0.13400  Biso   1.000  H
  H14      1.0000 0.77400  0.36400  0.86600  Biso   1.000  H
  H15      1.0000 0.65700  0.66900  0.29600  Biso   1.000  H
  H16      1.0000 0.34300  0.33100  0.70400  Biso   1.000  H
