data_image0
_cell_length_a       12.0266
_cell_length_b       12.0266
_cell_length_c       12.0266
_cell_angle_alpha    90
_cell_angle_beta     90
_cell_angle_gamma    90

_symmetry_space_group_name_H-M    "P 1"
_symmetry_int_tables_number       1

loop_
  _symmetry_equiv_pos_as_xyz
  'x, y, z'

loop_
  _atom_site_label
  _atom_site_occupancy
  _atom_site_fract_x
  _atom_site_fract_y
  _atom_site_fract_z
  _atom_site_thermal_displace_type
  _atom_site_B_iso_or_equiv
  _atom_site_type_symbol
  Cu1      1.0000 0.11946  0.11946  0.11946  Biso   1.000  Cu
  Cu2      1.0000 0.38054  0.88054  0.61946  Biso   1.000  Cu
  Cu3      1.0000 0.88054  0.61946  0.38054  Biso   1.000  Cu
  Cu4      1.0000 0.61946  0.38054  0.88054  Biso   1.000  Cu
  Cu5      1.0000 0.88054  0.88054  0.88054  Biso   1.000  Cu
  Cu6      1.0000 0.61946  0.11946  0.38054  Biso   1.000  Cu
  Cu7      1.0000 0.11946  0.38054  0.61946  Biso   1.000  Cu
  Cu8      1.0000 0.38054  0.61946  0.11946  Biso   1.000  Cu
  I1       1.0000 0.24571  0.24571  0.24571  Biso   1.000  I
  I2       1.0000 0.25429  0.75429  0.74571  Biso   1.000  I
  I3       1.0000 0.75429  0.74571  0.25429  Biso   1.000  I
  I4       1.0000 0.74571  0.25429  0.75429  Biso   1.000  I
  I5       1.0000 0.75429  0.75429  0.75429  Biso   1.000  I
  I6       1.0000 0.74571  0.24571  0.25429  Biso   1.000  I
  I7       1.0000 0.24571  0.25429  0.74571  Biso   1.000  I
  I8       1.0000 0.25429  0.74571  0.24571  Biso   1.000  I
  S1       1.0000 0.21180  0.97920  0.02430  Biso   1.000  S
  S2       1.0000 0.02430  0.21180  0.97920  Biso   1.000  S
  S3       1.0000 0.97920  0.02430  0.21180  Biso   1.000  S
  S4       1.0000 0.28820  0.02080  0.52430  Biso   1.000  S
  S5       1.0000 0.78820  0.47920  0.47570  Biso   1.000  S
  S6       1.0000 0.71180  0.52080  0.97570  Biso   1.000  S
  S7       1.0000 0.52430  0.28820  0.02080  Biso   1.000  S
  S8       1.0000 0.47570  0.78820  0.47920  Biso   1.000  S
  S9       1.0000 0.97570  0.71180  0.52080  Biso   1.000  S
  S10      1.0000 0.02080  0.52430  0.28820  Biso   1.000  S
  S11      1.0000 0.47920  0.47570  0.78820  Biso   1.000  S
  S12      1.0000 0.52080  0.97570  0.71180  Biso   1.000  S
  S13      1.0000 0.78820  0.02080  0.97570  Biso   1.000  S
  S14      1.0000 0.97570  0.78820  0.02080  Biso   1.000  S
  S15      1.0000 0.02080  0.97570  0.78820  Biso   1.000  S
  S16      1.0000 0.71180  0.97920  0.47570  Biso   1.000  S
  S17      1.0000 0.21180  0.52080  0.52430  Biso   1.000  S
  S18      1.0000 0.28820  0.47920  0.02430  Biso   1.000  S
  S19      1.0000 0.47570  0.71180  0.97920  Biso   1.000  S
  S20      1.0000 0.52430  0.21180  0.52080  Biso   1.000  S
  S21      1.0000 0.02430  0.28820  0.47920  Biso   1.000  S
  S22      1.0000 0.97920  0.47570  0.71180  Biso   1.000  S
  S23      1.0000 0.52080  0.52430  0.21180  Biso   1.000  S
  S24      1.0000 0.47920  0.02430  0.28820  Biso   1.000  S
  C1       1.0000 0.32330  0.03650  0.96710  Biso   1.000  C
  C2       1.0000 0.96710  0.32330  0.03650  Biso   1.000  C
  C3       1.0000 0.03650  0.96710  0.32330  Biso   1.000  C
  C4       1.0000 0.17670  0.96350  0.46710  Biso   1.000  C
  C5       1.0000 0.67670  0.53650  0.53290  Biso   1.000  C
  C6       1.0000 0.82330  0.46350  0.03290  Biso   1.000  C
  C7       1.0000 0.46710  0.17670  0.96350  Biso   1.000  C
  C8       1.0000 0.53290  0.67670  0.53650  Biso   1.000  C
  C9       1.0000 0.03290  0.82330  0.46350  Biso   1.000  C
  C10      1.0000 0.96350  0.46710  0.17670  Biso   1.000  C
  C11      1.0000 0.53650  0.53290  0.67670  Biso   1.000  C
  C12      1.0000 0.46350  0.03290  0.82330  Biso   1.000  C
  C13      1.0000 0.67670  0.96350  0.03290  Biso   1.000  C
  C14      1.0000 0.03290  0.67670  0.96350  Biso   1.000  C
  C15      1.0000 0.96350  0.03290  0.67670  Biso   1.000  C
  C16      1.0000 0.82330  0.03650  0.53290  Biso   1.000  C
  C17      1.0000 0.32330  0.46350  0.46710  Biso   1.000  C
  C18      1.0000 0.17670  0.53650  0.96710  Biso   1.000  C
  C19      1.0000 0.53290  0.82330  0.03650  Biso   1.000  C
  C20      1.0000 0.46710  0.32330  0.46350  Biso   1.000  C
  C21      1.0000 0.96710  0.17670  0.53650  Biso   1.000  C
  C22      1.0000 0.03650  0.53290  0.82330  Biso   1.000  C
  C23      1.0000 0.46350  0.46710  0.32330  Biso   1.000  C
  C24      1.0000 0.53650  0.96710  0.17670  Biso   1.000  C
  N1       1.0000 0.36990  0.99410  0.87480  Biso   1.000  N
  N2       1.0000 0.87480  0.36990  0.99410  Biso   1.000  N
  N3       1.0000 0.99410  0.87480  0.36990  Biso   1.000  N
  N4       1.0000 0.13010  0.00590  0.37480  Biso   1.000  N
  N5       1.0000 0.63010  0.49410  0.62520  Biso   1.000  N
  N6       1.0000 0.86990  0.50590  0.12520  Biso   1.000  N
  N7       1.0000 0.37480  0.13010  0.00590  Biso   1.000  N
  N8       1.0000 0.62520  0.63010  0.49410  Biso   1.000  N
  N9       1.0000 0.12520  0.86990  0.50590  Biso   1.000  N
  N10      1.0000 0.00590  0.37480  0.13010  Biso   1.000  N
  N11      1.0000 0.49410  0.62520  0.63010  Biso   1.000  N
  N12      1.0000 0.50590  0.12520  0.86990  Biso   1.000  N
  N13      1.0000 0.63010  0.00590  0.12520  Biso   1.000  N
  N14      1.0000 0.12520  0.63010  0.00590  Biso   1.000  N
  N15      1.0000 0.00590  0.12520  0.63010  Biso   1.000  N
  N16      1.0000 0.86990  0.99410  0.62520  Biso   1.000  N
  N17      1.0000 0.36990  0.50590  0.37480  Biso   1.000  N
  N18      1.0000 0.13010  0.49410  0.87480  Biso   1.000  N
  N19      1.0000 0.62520  0.86990  0.99410  Biso   1.000  N
  N20      1.0000 0.37480  0.36990  0.50590  Biso   1.000  N
  N21      1.0000 0.87480  0.13010  0.49410  Biso   1.000  N
  N22      1.0000 0.99410  0.62520  0.86990  Biso   1.000  N
  N23      1.0000 0.50590  0.37480  0.36990  Biso   1.000  N
  N24      1.0000 0.49410  0.87480  0.13010  Biso   1.000  N
  H1       1.0000 0.37200  0.95800  0.86400  Biso   1.000  H
  H2       1.0000 0.86400  0.37200  0.95800  Biso   1.000  H
  H3       1.0000 0.95800  0.86400  0.37200  Biso   1.000  H
  H4       1.0000 0.12800  0.04200  0.36400  Biso   1.000  H
  H5       1.0000 0.62800  0.45800  0.63600  Biso   1.000  H
  H6       1.0000 0.87200  0.54200  0.13600  Biso   1.000  H
  H7       1.0000 0.36400  0.12800  0.04200  Biso   1.000  H
  H8       1.0000 0.63600  0.62800  0.45800  Biso   1.000  H
  H9       1.0000 0.13600  0.87200  0.54200  Biso   1.000  H
  H10      1.0000 0.04200  0.36400  0.12800  Biso   1.000  H
  H11      1.0000 0.45800  0.63600  0.62800  Biso   1.000  H
  H12      1.0000 0.54200  0.13600  0.87200  Biso   1.000  H
  H13      1.0000 0.62800  0.04200  0.13600  Biso   1.000  H
  H14      1.0000 0.13600  0.62800  0.04200  Biso   1.000  H
  H15      1.0000 0.04200  0.13600  0.62800  Biso   1.000  H
  H16      1.0000 0.87200  0.95800  0.63600  Biso   1.000  H
  H17      1.0000 0.37200  0.54200  0.36400  Biso   1.000  H
  H18      1.0000 0.12800  0.45800  0.86400  Biso   1.000  H
  H19      1.0000 0.63600  0.87200  0.95800  Biso   1.000  H
  H20      1.0000 0.36400  0.37200  0.54200  Biso   1.000  H
  H21      1.0000 0.86400  0.12800  0.45800  Biso   1.000  H
  H22      1.0000 0.95800  0.63600  0.87200  Biso   1.000  H
  H23      1.0000 0.54200  0.36400  0.37200  Biso   1.000  H
  H24      1.0000 0.45800  0.86400  0.12800  Biso   1.000  H
