data_image0
_cell_length_a       11.7471
_cell_length_b       11.7471
_cell_length_c       11.7471
_cell_angle_alpha    90
_cell_angle_beta     90
_cell_angle_gamma    90

_symmetry_space_group_name_H-M    "P 1"
_symmetry_int_tables_number       1

loop_
  _symmetry_equiv_pos_as_xyz
  'x, y, z'

loop_
  _atom_site_label
  _atom_site_occupancy
  _atom_site_fract_x
  _atom_site_fract_y
  _atom_site_fract_z
  _atom_site_thermal_displace_type
  _atom_site_B_iso_or_equiv
  _atom_site_type_symbol
  Cu1      1.0000 0.89098  0.39098  0.10902  Biso   1.000  Cu
  Cu2      1.0000 0.60902  0.60902  0.60902  Biso   1.000  Cu
  Cu3      1.0000 0.10902  0.89098  0.39098  Biso   1.000  Cu
  Cu4      1.0000 0.39098  0.10902  0.89098  Biso   1.000  Cu
  Cu5      1.0000 0.10902  0.60902  0.89098  Biso   1.000  Cu
  Cu6      1.0000 0.39098  0.39098  0.39098  Biso   1.000  Cu
  Cu7      1.0000 0.89098  0.10902  0.60902  Biso   1.000  Cu
  Cu8      1.0000 0.60902  0.89098  0.10902  Biso   1.000  Cu
  S1       1.0000 0.78873  0.53489  0.02244  Biso   1.000  S
  S2       1.0000 0.71127  0.46511  0.52244  Biso   1.000  S
  S3       1.0000 0.21127  0.03489  0.47756  Biso   1.000  S
  S4       1.0000 0.28873  0.96511  0.97756  Biso   1.000  S
  S5       1.0000 0.02244  0.78873  0.53489  Biso   1.000  S
  S6       1.0000 0.52244  0.71127  0.46511  Biso   1.000  S
  S7       1.0000 0.47756  0.21127  0.03489  Biso   1.000  S
  S8       1.0000 0.97756  0.28873  0.96511  Biso   1.000  S
  S9       1.0000 0.53489  0.02244  0.78873  Biso   1.000  S
  S10      1.0000 0.46511  0.52244  0.71127  Biso   1.000  S
  S11      1.0000 0.03489  0.47756  0.21127  Biso   1.000  S
  S12      1.0000 0.96511  0.97756  0.28873  Biso   1.000  S
  S13      1.0000 0.21127  0.46511  0.97756  Biso   1.000  S
  S14      1.0000 0.28873  0.53489  0.47756  Biso   1.000  S
  S15      1.0000 0.78873  0.96511  0.52244  Biso   1.000  S
  S16      1.0000 0.71127  0.03489  0.02244  Biso   1.000  S
  S17      1.0000 0.97756  0.21127  0.46511  Biso   1.000  S
  S18      1.0000 0.47756  0.28873  0.53489  Biso   1.000  S
  S19      1.0000 0.52244  0.78873  0.96511  Biso   1.000  S
  S20      1.0000 0.02244  0.71127  0.03489  Biso   1.000  S
  S21      1.0000 0.46511  0.97756  0.21127  Biso   1.000  S
  S22      1.0000 0.53489  0.47756  0.28873  Biso   1.000  S
  S23      1.0000 0.96511  0.52244  0.78873  Biso   1.000  S
  S24      1.0000 0.03489  0.02244  0.71127  Biso   1.000  S
  Cl1      1.0000 0.77515  0.27515  0.22485  Biso   1.000  Cl
  Cl2      1.0000 0.72485  0.72485  0.72485  Biso   1.000  Cl
  Cl3      1.0000 0.22485  0.77515  0.27515  Biso   1.000  Cl
  Cl4      1.0000 0.27515  0.22485  0.77515  Biso   1.000  Cl
  Cl5      1.0000 0.22485  0.72485  0.77515  Biso   1.000  Cl
  Cl6      1.0000 0.27515  0.27515  0.27515  Biso   1.000  Cl
  Cl7      1.0000 0.77515  0.22485  0.72485  Biso   1.000  Cl
  Cl8      1.0000 0.72485  0.77515  0.22485  Biso   1.000  Cl
  N1       1.0000 0.63082  0.37244  0.00941  Biso   1.000  N
  N2       1.0000 0.86918  0.62756  0.50941  Biso   1.000  N
  N3       1.0000 0.36918  0.87244  0.49059  Biso   1.000  N
  N4       1.0000 0.13082  0.12756  0.99059  Biso   1.000  N
  N5       1.0000 0.00941  0.63082  0.37244  Biso   1.000  N
  N6       1.0000 0.50941  0.86918  0.62756  Biso   1.000  N
  N7       1.0000 0.49059  0.36918  0.87244  Biso   1.000  N
  N8       1.0000 0.99059  0.13082  0.12756  Biso   1.000  N
  N9       1.0000 0.37244  0.00941  0.63082  Biso   1.000  N
  N10      1.0000 0.62756  0.50941  0.86918  Biso   1.000  N
  N11      1.0000 0.87244  0.49059  0.36918  Biso   1.000  N
  N12      1.0000 0.12756  0.99059  0.13082  Biso   1.000  N
  N13      1.0000 0.36918  0.62756  0.99059  Biso   1.000  N
  N14      1.0000 0.13082  0.37244  0.49059  Biso   1.000  N
  N15      1.0000 0.63082  0.12756  0.50941  Biso   1.000  N
  N16      1.0000 0.86918  0.87244  0.00941  Biso   1.000  N
  N17      1.0000 0.99059  0.36918  0.62756  Biso   1.000  N
  N18      1.0000 0.49059  0.13082  0.37244  Biso   1.000  N
  N19      1.0000 0.50941  0.63082  0.12756  Biso   1.000  N
  N20      1.0000 0.00941  0.86918  0.87244  Biso   1.000  N
  N21      1.0000 0.62756  0.99059  0.36918  Biso   1.000  N
  N22      1.0000 0.37244  0.49059  0.13082  Biso   1.000  N
  N23      1.0000 0.12756  0.50941  0.63082  Biso   1.000  N
  N24      1.0000 0.87244  0.00941  0.86918  Biso   1.000  N
  H1       1.0000 0.66330  0.34210  0.06760  Biso   1.000  H
  H2       1.0000 0.83670  0.65790  0.56760  Biso   1.000  H
  H3       1.0000 0.33670  0.84210  0.43240  Biso   1.000  H
  H4       1.0000 0.16330  0.15790  0.93240  Biso   1.000  H
  H5       1.0000 0.06760  0.66330  0.34210  Biso   1.000  H
  H6       1.0000 0.56760  0.83670  0.65790  Biso   1.000  H
  H7       1.0000 0.43240  0.33670  0.84210  Biso   1.000  H
  H8       1.0000 0.93240  0.16330  0.15790  Biso   1.000  H
  H9       1.0000 0.34210  0.06760  0.66330  Biso   1.000  H
  H10      1.0000 0.65790  0.56760  0.83670  Biso   1.000  H
  H11      1.0000 0.84210  0.43240  0.33670  Biso   1.000  H
  H12      1.0000 0.15790  0.93240  0.16330  Biso   1.000  H
  H13      1.0000 0.33670  0.65790  0.93240  Biso   1.000  H
  H14      1.0000 0.16330  0.34210  0.43240  Biso   1.000  H
  H15      1.0000 0.66330  0.15790  0.56760  Biso   1.000  H
  H16      1.0000 0.83670  0.84210  0.06760  Biso   1.000  H
  H17      1.0000 0.93240  0.33670  0.65790  Biso   1.000  H
  H18      1.0000 0.43240  0.16330  0.34210  Biso   1.000  H
  H19      1.0000 0.56760  0.66330  0.15790  Biso   1.000  H
  H20      1.0000 0.06760  0.83670  0.84210  Biso   1.000  H
  H21      1.0000 0.65790  0.93240  0.33670  Biso   1.000  H
  H22      1.0000 0.34210  0.43240  0.16330  Biso   1.000  H
  H23      1.0000 0.15790  0.56760  0.66330  Biso   1.000  H
  H24      1.0000 0.84210  0.06760  0.83670  Biso   1.000  H
  C1       1.0000 0.67870  0.46835  0.96480  Biso   1.000  C
  C2       1.0000 0.82130  0.53165  0.46480  Biso   1.000  C
  C3       1.0000 0.32130  0.96835  0.53520  Biso   1.000  C
  C4       1.0000 0.17870  0.03165  0.03520  Biso   1.000  C
  C5       1.0000 0.96480  0.67870  0.46835  Biso   1.000  C
  C6       1.0000 0.46480  0.82130  0.53165  Biso   1.000  C
  C7       1.0000 0.53520  0.32130  0.96835  Biso   1.000  C
  C8       1.0000 0.03520  0.17870  0.03165  Biso   1.000  C
  C9       1.0000 0.46835  0.96480  0.67870  Biso   1.000  C
  C10      1.0000 0.53165  0.46480  0.82130  Biso   1.000  C
  C11      1.0000 0.96835  0.53520  0.32130  Biso   1.000  C
  C12      1.0000 0.03165  0.03520  0.17870  Biso   1.000  C
  C13      1.0000 0.32130  0.53165  0.03520  Biso   1.000  C
  C14      1.0000 0.17870  0.46835  0.53520  Biso   1.000  C
  C15      1.0000 0.67870  0.03165  0.46480  Biso   1.000  C
  C16      1.0000 0.82130  0.96835  0.96480  Biso   1.000  C
  C17      1.0000 0.03520  0.32130  0.53165  Biso   1.000  C
  C18      1.0000 0.53520  0.17870  0.46835  Biso   1.000  C
  C19      1.0000 0.46480  0.67870  0.03165  Biso   1.000  C
  C20      1.0000 0.96480  0.82130  0.96835  Biso   1.000  C
  C21      1.0000 0.53165  0.03520  0.32130  Biso   1.000  C
  C22      1.0000 0.46835  0.53520  0.17870  Biso   1.000  C
  C23      1.0000 0.03165  0.46480  0.67870  Biso   1.000  C
  C24      1.0000 0.96835  0.96480  0.82130  Biso   1.000  C
