data_image0
_cell_length_a       11.7472
_cell_length_b       11.7472
_cell_length_c       11.7472
_cell_angle_alpha    90
_cell_angle_beta     90
_cell_angle_gamma    90

_symmetry_space_group_name_H-M    "P 1"
_symmetry_int_tables_number       1

loop_
  _symmetry_equiv_pos_as_xyz
  'x, y, z'

loop_
  _atom_site_label
  _atom_site_occupancy
  _atom_site_fract_x
  _atom_site_fract_y
  _atom_site_fract_z
  _atom_site_thermal_displace_type
  _atom_site_B_iso_or_equiv
  _atom_site_type_symbol
  N1       1.0000 0.12729  0.50936  0.63057  Biso   1.000  N
  N2       1.0000 0.63057  0.12729  0.50936  Biso   1.000  N
  N3       1.0000 0.50936  0.63057  0.12729  Biso   1.000  N
  N4       1.0000 0.37271  0.49064  0.13057  Biso   1.000  N
  N5       1.0000 0.87271  0.00936  0.86943  Biso   1.000  N
  N6       1.0000 0.62729  0.99064  0.36943  Biso   1.000  N
  N7       1.0000 0.13057  0.37271  0.49064  Biso   1.000  N
  N8       1.0000 0.86943  0.87271  0.00936  Biso   1.000  N
  N9       1.0000 0.36943  0.62729  0.99064  Biso   1.000  N
  N10      1.0000 0.49064  0.13057  0.37271  Biso   1.000  N
  N11      1.0000 0.00936  0.86943  0.87271  Biso   1.000  N
  N12      1.0000 0.99064  0.36943  0.62729  Biso   1.000  N
  N13      1.0000 0.87271  0.49064  0.36943  Biso   1.000  N
  N14      1.0000 0.36943  0.87271  0.49064  Biso   1.000  N
  N15      1.0000 0.49064  0.36943  0.87271  Biso   1.000  N
  N16      1.0000 0.62729  0.50936  0.86943  Biso   1.000  N
  N17      1.0000 0.12729  0.99064  0.13057  Biso   1.000  N
  N18      1.0000 0.37271  0.00936  0.63057  Biso   1.000  N
  N19      1.0000 0.86943  0.62729  0.50936  Biso   1.000  N
  N20      1.0000 0.13057  0.12729  0.99064  Biso   1.000  N
  N21      1.0000 0.63057  0.37271  0.00936  Biso   1.000  N
  N22      1.0000 0.50936  0.86943  0.62729  Biso   1.000  N
  N23      1.0000 0.99064  0.13057  0.12729  Biso   1.000  N
  N24      1.0000 0.00936  0.63057  0.37271  Biso   1.000  N
  Cu1      1.0000 0.39103  0.39103  0.39103  Biso   1.000  Cu
  Cu2      1.0000 0.10897  0.60897  0.89103  Biso   1.000  Cu
  Cu3      1.0000 0.60897  0.89103  0.10897  Biso   1.000  Cu
  Cu4      1.0000 0.89103  0.10897  0.60897  Biso   1.000  Cu
  Cu5      1.0000 0.60897  0.60897  0.60897  Biso   1.000  Cu
  Cu6      1.0000 0.89103  0.39103  0.10897  Biso   1.000  Cu
  Cu7      1.0000 0.39103  0.10897  0.89103  Biso   1.000  Cu
  Cu8      1.0000 0.10897  0.89103  0.39103  Biso   1.000  Cu
  S1       1.0000 0.28872  0.53497  0.47761  Biso   1.000  S
  S2       1.0000 0.47761  0.28872  0.53497  Biso   1.000  S
  S3       1.0000 0.53497  0.47761  0.28872  Biso   1.000  S
  S4       1.0000 0.21128  0.46503  0.97761  Biso   1.000  S
  S5       1.0000 0.71128  0.03497  0.02239  Biso   1.000  S
  S6       1.0000 0.78872  0.96503  0.52239  Biso   1.000  S
  S7       1.0000 0.97761  0.21128  0.46503  Biso   1.000  S
  S8       1.0000 0.02239  0.71128  0.03497  Biso   1.000  S
  S9       1.0000 0.52239  0.78872  0.96503  Biso   1.000  S
  S10      1.0000 0.46503  0.97761  0.21128  Biso   1.000  S
  S11      1.0000 0.03497  0.02239  0.71128  Biso   1.000  S
  S12      1.0000 0.96503  0.52239  0.78872  Biso   1.000  S
  S13      1.0000 0.71128  0.46503  0.52239  Biso   1.000  S
  S14      1.0000 0.52239  0.71128  0.46503  Biso   1.000  S
  S15      1.0000 0.46503  0.52239  0.71128  Biso   1.000  S
  S16      1.0000 0.78872  0.53497  0.02239  Biso   1.000  S
  S17      1.0000 0.28872  0.96503  0.97761  Biso   1.000  S
  S18      1.0000 0.21128  0.03497  0.47761  Biso   1.000  S
  S19      1.0000 0.02239  0.78872  0.53497  Biso   1.000  S
  S20      1.0000 0.97761  0.28872  0.96503  Biso   1.000  S
  S21      1.0000 0.47761  0.21128  0.03497  Biso   1.000  S
  S22      1.0000 0.53497  0.02239  0.78872  Biso   1.000  S
  S23      1.0000 0.96503  0.97761  0.28872  Biso   1.000  S
  S24      1.0000 0.03497  0.47761  0.21128  Biso   1.000  S
  Cl1      1.0000 0.27520  0.27520  0.27520  Biso   1.000  Cl
  Cl2      1.0000 0.22480  0.72480  0.77520  Biso   1.000  Cl
  Cl3      1.0000 0.72480  0.77520  0.22480  Biso   1.000  Cl
  Cl4      1.0000 0.77520  0.22480  0.72480  Biso   1.000  Cl
  Cl5      1.0000 0.72480  0.72480  0.72480  Biso   1.000  Cl
  Cl6      1.0000 0.77520  0.27520  0.22480  Biso   1.000  Cl
  Cl7      1.0000 0.27520  0.22480  0.77520  Biso   1.000  Cl
  Cl8      1.0000 0.22480  0.77520  0.27520  Biso   1.000  Cl
  C1       1.0000 0.17878  0.46811  0.53528  Biso   1.000  C
  C2       1.0000 0.53528  0.17878  0.46811  Biso   1.000  C
  C3       1.0000 0.46811  0.53528  0.17878  Biso   1.000  C
  C4       1.0000 0.32122  0.53189  0.03528  Biso   1.000  C
  C5       1.0000 0.82122  0.96811  0.96472  Biso   1.000  C
  C6       1.0000 0.67878  0.03189  0.46472  Biso   1.000  C
  C7       1.0000 0.03528  0.32122  0.53189  Biso   1.000  C
  C8       1.0000 0.96472  0.82122  0.96811  Biso   1.000  C
  C9       1.0000 0.46472  0.67878  0.03189  Biso   1.000  C
  C10      1.0000 0.53189  0.03528  0.32122  Biso   1.000  C
  C11      1.0000 0.96811  0.96472  0.82122  Biso   1.000  C
  C12      1.0000 0.03189  0.46472  0.67878  Biso   1.000  C
  C13      1.0000 0.82122  0.53189  0.46472  Biso   1.000  C
  C14      1.0000 0.46472  0.82122  0.53189  Biso   1.000  C
  C15      1.0000 0.53189  0.46472  0.82122  Biso   1.000  C
  C16      1.0000 0.67878  0.46811  0.96472  Biso   1.000  C
  C17      1.0000 0.17878  0.03189  0.03528  Biso   1.000  C
  C18      1.0000 0.32122  0.96811  0.53528  Biso   1.000  C
  C19      1.0000 0.96472  0.67878  0.46811  Biso   1.000  C
  C20      1.0000 0.03528  0.17878  0.03189  Biso   1.000  C
  C21      1.0000 0.53528  0.32122  0.96811  Biso   1.000  C
  C22      1.0000 0.46811  0.96472  0.67878  Biso   1.000  C
  C23      1.0000 0.03189  0.03528  0.17878  Biso   1.000  C
  C24      1.0000 0.96811  0.53528  0.32122  Biso   1.000  C
  H1       1.0000 0.15900  0.34600  0.44700  Biso   1.000  H
  H2       1.0000 0.44700  0.15900  0.34600  Biso   1.000  H
  H3       1.0000 0.34600  0.44700  0.15900  Biso   1.000  H
  H4       1.0000 0.34100  0.65400  0.94700  Biso   1.000  H
  H5       1.0000 0.84100  0.84600  0.05300  Biso   1.000  H
  H6       1.0000 0.65900  0.15400  0.55300  Biso   1.000  H
  H7       1.0000 0.94700  0.34100  0.65400  Biso   1.000  H
  H8       1.0000 0.05300  0.84100  0.84600  Biso   1.000  H
  H9       1.0000 0.55300  0.65900  0.15400  Biso   1.000  H
  H10      1.0000 0.65400  0.94700  0.34100  Biso   1.000  H
  H11      1.0000 0.84600  0.05300  0.84100  Biso   1.000  H
  H12      1.0000 0.15400  0.55300  0.65900  Biso   1.000  H
  H13      1.0000 0.84100  0.65400  0.55300  Biso   1.000  H
  H14      1.0000 0.55300  0.84100  0.65400  Biso   1.000  H
  H15      1.0000 0.65400  0.55300  0.84100  Biso   1.000  H
  H16      1.0000 0.65900  0.34600  0.05300  Biso   1.000  H
  H17      1.0000 0.15900  0.15400  0.94700  Biso   1.000  H
  H18      1.0000 0.34100  0.84600  0.44700  Biso   1.000  H
  H19      1.0000 0.05300  0.65900  0.34600  Biso   1.000  H
  H20      1.0000 0.94700  0.15900  0.15400  Biso   1.000  H
  H21      1.0000 0.44700  0.34100  0.84600  Biso   1.000  H
  H22      1.0000 0.34600  0.05300  0.65900  Biso   1.000  H
  H23      1.0000 0.15400  0.94700  0.15900  Biso   1.000  H
  H24      1.0000 0.84600  0.44700  0.34100  Biso   1.000  H
