data_image0
_cell_length_a       11.7884
_cell_length_b       11.7884
_cell_length_c       11.7884
_cell_angle_alpha    90
_cell_angle_beta     90
_cell_angle_gamma    90

_symmetry_space_group_name_H-M    "P 1"
_symmetry_int_tables_number       1

loop_
  _symmetry_equiv_pos_as_xyz
  'x, y, z'

loop_
  _atom_site_label
  _atom_site_occupancy
  _atom_site_fract_x
  _atom_site_fract_y
  _atom_site_fract_z
  _atom_site_thermal_displace_type
  _atom_site_B_iso_or_equiv
  _atom_site_type_symbol
  C1       1.0000 0.03330  0.96450  0.32110  Biso   1.000  C
  C2       1.0000 0.32110  0.03330  0.96450  Biso   1.000  C
  C3       1.0000 0.96450  0.32110  0.03330  Biso   1.000  C
  C4       1.0000 0.53550  0.67890  0.53330  Biso   1.000  C
  C5       1.0000 0.82110  0.46670  0.03550  Biso   1.000  C
  C6       1.0000 0.03550  0.82110  0.46670  Biso   1.000  C
  C7       1.0000 0.17890  0.96670  0.46450  Biso   1.000  C
  C8       1.0000 0.67890  0.53330  0.53550  Biso   1.000  C
  C9       1.0000 0.46450  0.17890  0.96670  Biso   1.000  C
  C10      1.0000 0.46670  0.03550  0.82110  Biso   1.000  C
  C11      1.0000 0.53330  0.53550  0.67890  Biso   1.000  C
  C12      1.0000 0.96670  0.46450  0.17890  Biso   1.000  C
  C13      1.0000 0.96670  0.03550  0.67890  Biso   1.000  C
  C14      1.0000 0.67890  0.96670  0.03550  Biso   1.000  C
  C15      1.0000 0.03550  0.67890  0.96670  Biso   1.000  C
  C16      1.0000 0.46450  0.32110  0.46670  Biso   1.000  C
  C17      1.0000 0.17890  0.53330  0.96450  Biso   1.000  C
  C18      1.0000 0.96450  0.17890  0.53330  Biso   1.000  C
  C19      1.0000 0.82110  0.03330  0.53550  Biso   1.000  C
  C20      1.0000 0.32110  0.46670  0.46450  Biso   1.000  C
  C21      1.0000 0.53550  0.82110  0.03330  Biso   1.000  C
  C22      1.0000 0.53330  0.96450  0.17890  Biso   1.000  C
  C23      1.0000 0.46670  0.46450  0.32110  Biso   1.000  C
  C24      1.0000 0.03330  0.53550  0.82110  Biso   1.000  C
  N1       1.0000 0.12830  0.00860  0.36930  Biso   1.000  N
  N2       1.0000 0.36930  0.12830  0.00860  Biso   1.000  N
  N3       1.0000 0.00860  0.36930  0.12830  Biso   1.000  N
  N4       1.0000 0.49140  0.63070  0.62830  Biso   1.000  N
  N5       1.0000 0.86930  0.37170  0.99140  Biso   1.000  N
  N6       1.0000 0.99140  0.86930  0.37170  Biso   1.000  N
  N7       1.0000 0.13070  0.87170  0.50860  Biso   1.000  N
  N8       1.0000 0.63070  0.62830  0.49140  Biso   1.000  N
  N9       1.0000 0.50860  0.13070  0.87170  Biso   1.000  N
  N10      1.0000 0.37170  0.99140  0.86930  Biso   1.000  N
  N11      1.0000 0.62830  0.49140  0.63070  Biso   1.000  N
  N12      1.0000 0.87170  0.50860  0.13070  Biso   1.000  N
  N13      1.0000 0.87170  0.99140  0.63070  Biso   1.000  N
  N14      1.0000 0.63070  0.87170  0.99140  Biso   1.000  N
  N15      1.0000 0.99140  0.63070  0.87170  Biso   1.000  N
  N16      1.0000 0.50860  0.36930  0.37170  Biso   1.000  N
  N17      1.0000 0.13070  0.62830  0.00860  Biso   1.000  N
  N18      1.0000 0.00860  0.13070  0.62830  Biso   1.000  N
  N19      1.0000 0.86930  0.12830  0.49140  Biso   1.000  N
  N20      1.0000 0.36930  0.37170  0.50860  Biso   1.000  N
  N21      1.0000 0.49140  0.86930  0.12830  Biso   1.000  N
  N22      1.0000 0.62830  0.00860  0.13070  Biso   1.000  N
  N23      1.0000 0.37170  0.50860  0.36930  Biso   1.000  N
  N24      1.0000 0.12830  0.49140  0.86930  Biso   1.000  N
  H1       1.0000 0.15850  0.06700  0.33760  Biso   1.000  H
  H2       1.0000 0.33760  0.15850  0.06700  Biso   1.000  H
  H3       1.0000 0.06700  0.33760  0.15850  Biso   1.000  H
  H4       1.0000 0.43300  0.66240  0.65850  Biso   1.000  H
  H5       1.0000 0.83760  0.34150  0.93300  Biso   1.000  H
  H6       1.0000 0.93300  0.83760  0.34150  Biso   1.000  H
  H7       1.0000 0.16240  0.84150  0.56700  Biso   1.000  H
  H8       1.0000 0.66240  0.65850  0.43300  Biso   1.000  H
  H9       1.0000 0.56700  0.16240  0.84150  Biso   1.000  H
  H10      1.0000 0.34150  0.93300  0.83760  Biso   1.000  H
  H11      1.0000 0.65850  0.43300  0.66240  Biso   1.000  H
  H12      1.0000 0.84150  0.56700  0.16240  Biso   1.000  H
  H13      1.0000 0.84150  0.93300  0.66240  Biso   1.000  H
  H14      1.0000 0.66240  0.84150  0.93300  Biso   1.000  H
  H15      1.0000 0.93300  0.66240  0.84150  Biso   1.000  H
  H16      1.0000 0.56700  0.33760  0.34150  Biso   1.000  H
  H17      1.0000 0.16240  0.65850  0.06700  Biso   1.000  H
  H18      1.0000 0.06700  0.16240  0.65850  Biso   1.000  H
  H19      1.0000 0.83760  0.15850  0.43300  Biso   1.000  H
  H20      1.0000 0.33760  0.34150  0.56700  Biso   1.000  H
  H21      1.0000 0.43300  0.83760  0.15850  Biso   1.000  H
  H22      1.0000 0.65850  0.06700  0.16240  Biso   1.000  H
  H23      1.0000 0.34150  0.56700  0.33760  Biso   1.000  H
  H24      1.0000 0.15850  0.43300  0.83760  Biso   1.000  H
  S1       1.0000 0.96650  0.02215  0.21151  Biso   1.000  S
  S2       1.0000 0.21151  0.96650  0.02215  Biso   1.000  S
  S3       1.0000 0.02215  0.21151  0.96650  Biso   1.000  S
  S4       1.0000 0.47785  0.78849  0.46650  Biso   1.000  S
  S5       1.0000 0.71151  0.53350  0.97785  Biso   1.000  S
  S6       1.0000 0.97785  0.71151  0.53350  Biso   1.000  S
  S7       1.0000 0.28849  0.03350  0.52215  Biso   1.000  S
  S8       1.0000 0.78849  0.46650  0.47785  Biso   1.000  S
  S9       1.0000 0.52215  0.28849  0.03350  Biso   1.000  S
  S10      1.0000 0.53350  0.97785  0.71151  Biso   1.000  S
  S11      1.0000 0.46650  0.47785  0.78849  Biso   1.000  S
  S12      1.0000 0.03350  0.52215  0.28849  Biso   1.000  S
  S13      1.0000 0.03350  0.97785  0.78849  Biso   1.000  S
  S14      1.0000 0.78849  0.03350  0.97785  Biso   1.000  S
  S15      1.0000 0.97785  0.78849  0.03350  Biso   1.000  S
  S16      1.0000 0.52215  0.21151  0.53350  Biso   1.000  S
  S17      1.0000 0.28849  0.46650  0.02215  Biso   1.000  S
  S18      1.0000 0.02215  0.28849  0.46650  Biso   1.000  S
  S19      1.0000 0.71151  0.96650  0.47785  Biso   1.000  S
  S20      1.0000 0.21151  0.53350  0.52215  Biso   1.000  S
  S21      1.0000 0.47785  0.71151  0.96650  Biso   1.000  S
  S22      1.0000 0.46650  0.02215  0.28849  Biso   1.000  S
  S23      1.0000 0.53350  0.52215  0.21151  Biso   1.000  S
  S24      1.0000 0.96650  0.47785  0.71151  Biso   1.000  S
  Cl1      1.0000 0.22508  0.22508  0.22508  Biso   1.000  Cl
  Cl2      1.0000 0.27492  0.77492  0.72508  Biso   1.000  Cl
  Cl3      1.0000 0.72508  0.27492  0.77492  Biso   1.000  Cl
  Cl4      1.0000 0.77492  0.72508  0.27492  Biso   1.000  Cl
  Cl5      1.0000 0.77492  0.77492  0.77492  Biso   1.000  Cl
  Cl6      1.0000 0.72508  0.22508  0.27492  Biso   1.000  Cl
  Cl7      1.0000 0.27492  0.72508  0.22508  Biso   1.000  Cl
  Cl8      1.0000 0.22508  0.27492  0.72508  Biso   1.000  Cl
  Cu1      1.0000 0.10977  0.10977  0.10977  Biso   1.000  Cu
  Cu2      1.0000 0.39023  0.89023  0.60977  Biso   1.000  Cu
  Cu3      1.0000 0.60977  0.39023  0.89023  Biso   1.000  Cu
  Cu4      1.0000 0.89023  0.60977  0.39023  Biso   1.000  Cu
  Cu5      1.0000 0.89023  0.89023  0.89023  Biso   1.000  Cu
  Cu6      1.0000 0.60977  0.10977  0.39023  Biso   1.000  Cu
  Cu7      1.0000 0.39023  0.60977  0.10977  Biso   1.000  Cu
  Cu8      1.0000 0.10977  0.39023  0.60977  Biso   1.000  Cu
