data_image0
_cell_length_a       12.2044
_cell_length_b       13.8555
_cell_length_c       13.8673
_cell_angle_alpha    119.164
_cell_angle_beta     105.018
_cell_angle_gamma    96.689

_symmetry_space_group_name_H-M    "P 1"
_symmetry_int_tables_number       1

loop_
  _symmetry_equiv_pos_as_xyz
  'x, y, z'

loop_
  _atom_site_label
  _atom_site_occupancy
  _atom_site_fract_x
  _atom_site_fract_y
  _atom_site_fract_z
  _atom_site_thermal_displace_type
  _atom_site_B_iso_or_equiv
  _atom_site_type_symbol
  Cu1      1.0000 0.12110  0.21190  0.71930  Biso   1.000  Cu
  Cu2      1.0000 0.87890  0.78810  0.28070  Biso   1.000  Cu
  Cu3      1.0000 0.68110  0.57780  0.02160  Biso   1.000  Cu
  Cu4      1.0000 0.31890  0.42220  0.97840  Biso   1.000  Cu
  N1       1.0000 0.67520  0.62490  0.90900  Biso   1.000  N
  N2       1.0000 0.32480  0.37510  0.09100  Biso   1.000  N
  N3       1.0000 0.70430  0.50040  0.10390  Biso   1.000  N
  N4       1.0000 0.29570  0.49960  0.89610  Biso   1.000  N
  O1       1.0000 0.85140  0.47940  0.67500  Biso   1.000  O
  O2       1.0000 0.14860  0.52060  0.32500  Biso   1.000  O
  N5       1.0000 0.11250  0.15420  0.81620  Biso   1.000  N
  N6       1.0000 0.88750  0.84580  0.18380  Biso   1.000  N
  N7       1.0000 0.81400  0.45300  0.49900  Biso   1.000  N
  N8       1.0000 0.18600  0.54700  0.50100  Biso   1.000  N
  C1       1.0000 0.01140  0.34560  0.64350  Biso   1.000  C
  C2       1.0000 0.98860  0.65440  0.35650  Biso   1.000  C
  H1       1.0000 0.99000  0.37080  0.70960  Biso   1.000  H
  H2       1.0000 0.01000  0.62920  0.29040  Biso   1.000  H
  C3       1.0000 0.96020  0.36990  0.56180  Biso   1.000  C
  C4       1.0000 0.03980  0.63010  0.43820  Biso   1.000  C
  N9       1.0000 0.09630  0.28310  0.63160  Biso   1.000  N
  N10      1.0000 0.90370  0.71690  0.36840  Biso   1.000  N
  C5       1.0000 0.05830  0.19980  0.89360  Biso   1.000  C
  C6       1.0000 0.94170  0.80020  0.10640  Biso   1.000  C
  H3       1.0000 0.02140  0.25500  0.89400  Biso   1.000  H
  H4       1.0000 0.97860  0.74500  0.10600  Biso   1.000  H
  C7       1.0000 0.71900  0.59500  0.74440  Biso   1.000  C
  C8       1.0000 0.28100  0.40500  0.25560  Biso   1.000  C
  C9       1.0000 0.77540  0.42880  0.08270  Biso   1.000  C
  C10      1.0000 0.22460  0.57120  0.91730  Biso   1.000  C
  H5       1.0000 0.80720  0.41490  0.02460  Biso   1.000  H
  H6       1.0000 0.19280  0.58510  0.97540  Biso   1.000  H
  N11      1.0000 0.99400  0.20100  0.14300  Biso   1.000  N
  N12      1.0000 0.00600  0.79900  0.85700  Biso   1.000  N
  C11      1.0000 0.87500  0.43370  0.57410  Biso   1.000  C
  C12      1.0000 0.12500  0.56630  0.42590  Biso   1.000  C
  C13      1.0000 0.77430  0.53910  0.65820  Biso   1.000  C
  C14      1.0000 0.22570  0.46090  0.34180  Biso   1.000  C
  C15      1.0000 0.74400  0.39700  0.23280  Biso   1.000  C
  C16      1.0000 0.25600  0.60300  0.76720  Biso   1.000  C
  H7       1.0000 0.76060  0.36500  0.27890  Biso   1.000  H
  H8       1.0000 0.23940  0.63500  0.72110  Biso   1.000  H
  N13      1.0000 0.74200  0.51500  0.54700  Biso   1.000  N
  N14      1.0000 0.25800  0.48500  0.45300  Biso   1.000  N
  C17      1.0000 0.99780  0.21200  0.05200  Biso   1.000  C
  C18      1.0000 0.00220  0.78800  0.94800  Biso   1.000  C
  C19      1.0000 0.05550  0.16670  0.97500  Biso   1.000  C
  C20      1.0000 0.94450  0.83330  0.02500  Biso   1.000  C
  C21      1.0000 0.16600  0.07500  0.81700  Biso   1.000  C
  C22      1.0000 0.83400  0.92500  0.18300  Biso   1.000  C
  H9       1.0000 0.20550  0.04500  0.76500  Biso   1.000  H
  H10      1.0000 0.79450  0.95500  0.23500  Biso   1.000  H
  C23      1.0000 0.65500  0.67000  0.73700  Biso   1.000  C
  C24      1.0000 0.34500  0.33000  0.26300  Biso   1.000  C
  H11      1.0000 0.64380  0.68150  0.67510  Biso   1.000  H
  H12      1.0000 0.35620  0.31850  0.32490  Biso   1.000  H
  C25      1.0000 0.66900  0.46100  0.24500  Biso   1.000  C
  C26      1.0000 0.33100  0.53900  0.75500  Biso   1.000  C
  H13      1.0000 0.62940  0.47040  0.29600  Biso   1.000  H
  H14      1.0000 0.37060  0.52960  0.70400  Biso   1.000  H
  C27      1.0000 0.72720  0.57650  0.83240  Biso   1.000  C
  C28      1.0000 0.27280  0.42350  0.16760  Biso   1.000  C
  H15      1.0000 0.77090  0.52800  0.83940  Biso   1.000  H
  H16      1.0000 0.22910  0.47200  0.16060  Biso   1.000  H
  C29      1.0000 0.16600  0.03700  0.89400  Biso   1.000  C
  C30      1.0000 0.83400  0.96300  0.10600  Biso   1.000  C
  H17      1.0000 0.20010  0.97900  0.88940  Biso   1.000  H
  H18      1.0000 0.79990  0.02100  0.11060  Biso   1.000  H
  C31      1.0000 0.11600  0.08300  0.97200  Biso   1.000  C
  C32      1.0000 0.88400  0.91700  0.02800  Biso   1.000  C
  H19      1.0000 0.12060  0.06230  0.02630  Biso   1.000  H
  H20      1.0000 0.87940  0.93770  0.97370  Biso   1.000  H
  C33      1.0000 0.65100  0.51210  0.18300  Biso   1.000  C
  C34      1.0000 0.34900  0.48790  0.81700  Biso   1.000  C
  H21      1.0000 0.60020  0.55790  0.19530  Biso   1.000  H
  H22      1.0000 0.39980  0.44210  0.80470  Biso   1.000  H
  O3       1.0000 0.92470  0.28410  0.04650  Biso   1.000  O
  O4       1.0000 0.07530  0.71590  0.95350  Biso   1.000  O
  C35      1.0000 0.88110  0.30450  0.12820  Biso   1.000  C
  C36      1.0000 0.11890  0.69550  0.87180  Biso   1.000  C
  N15      1.0000 0.91900  0.25800  0.18480  Biso   1.000  N
  N16      1.0000 0.08100  0.74200  0.81520  Biso   1.000  N
  C37      1.0000 0.80110  0.37630  0.14600  Biso   1.000  C
  C38      1.0000 0.19890  0.62370  0.85400  Biso   1.000  C
  C39      1.0000 0.08000  0.26800  0.45100  Biso   1.000  C
  C40      1.0000 0.92000  0.73200  0.54900  Biso   1.000  C
  H23      1.0000 0.10300  0.24010  0.38580  Biso   1.000  H
  H24      1.0000 0.89700  0.75990  0.61420  Biso   1.000  H
  C41      1.0000 0.99600  0.32900  0.46000  Biso   1.000  C
  C42      1.0000 0.00400  0.67100  0.54000  Biso   1.000  C
  H25      1.0000 0.96310  0.34350  0.40180  Biso   1.000  H
  H26      1.0000 0.03690  0.65650  0.59820  Biso   1.000  H
  C43      1.0000 0.12600  0.25120  0.53900  Biso   1.000  C
  C44      1.0000 0.87400  0.74880  0.46100  Biso   1.000  C
  H27      1.0000 0.18490  0.21360  0.53320  Biso   1.000  H
  H28      1.0000 0.81510  0.78640  0.46680  Biso   1.000  H
  C45      1.0000 0.61000  0.72300  0.81600  Biso   1.000  C
  C46      1.0000 0.39000  0.27700  0.18400  Biso   1.000  C
  H29      1.0000 0.57380  0.77790  0.81400  Biso   1.000  H
  H30      1.0000 0.42620  0.22210  0.18600  Biso   1.000  H
  C47      1.0000 0.61580  0.70100  0.90700  Biso   1.000  C
  C48      1.0000 0.38420  0.29900  0.09300  Biso   1.000  C
  H31      1.0000 0.58030  0.73610  0.96180  Biso   1.000  H
  H32      1.0000 0.41970  0.26390  0.03820  Biso   1.000  H
  O5       1.0000 0.52640  0.92460  0.56150  Biso   1.000  O
  O6       1.0000 0.47360  0.07540  0.43850  Biso   1.000  O
  Mo1      1.0000 0.21027  0.96781  0.49736  Biso   1.000  Mo
  Mo2      1.0000 0.78973  0.03219  0.50264  Biso   1.000  Mo
  Mo3      1.0000 0.41817  0.90464  0.67363  Biso   1.000  Mo
  Mo4      1.0000 0.58183  0.09536  0.32637  Biso   1.000  Mo
  O7       1.0000 0.82770  0.96950  0.80130  Biso   1.000  O
  O8       1.0000 0.17230  0.03050  0.19870  Biso   1.000  O
  Mo5      1.0000 0.71948  0.98303  0.71040  Biso   1.000  Mo
  Mo6      1.0000 0.28052  0.01697  0.28960  Biso   1.000  Mo
  Mo7      1.0000 0.44700  0.19464  0.75340  Biso   1.000  Mo
  Mo8      1.0000 0.55300  0.80536  0.24660  Biso   1.000  Mo
  Mo9      1.0000 0.51962  0.72803  0.44949  Biso   1.000  Mo
  Mo10     1.0000 0.48038  0.27197  0.55051  Biso   1.000  Mo
  Mo11     1.0000 0.72792  0.25040  0.73362  Biso   1.000  Mo
  Mo12     1.0000 0.27208  0.74960  0.26638  Biso   1.000  Mo
  Si1      1.0000 0.50000  0.00000  0.50000  Biso   1.000  Si
  O9       1.0000 0.41110  0.29150  0.86720  Biso   1.000  O
  O10      1.0000 0.58890  0.70850  0.13280  Biso   1.000  O
  O11      1.0000 0.83330  0.36870  0.85040  Biso   1.000  O
  O12      1.0000 0.16670  0.63130  0.14960  Biso   1.000  O
  O13      1.0000 0.52280  0.59820  0.42630  Biso   1.000  O
  O14      1.0000 0.47720  0.40180  0.57370  Biso   1.000  O
  O15      1.0000 0.57140  0.73200  0.34000  Biso   1.000  O
  O16      1.0000 0.42860  0.26800  0.66000  Biso   1.000  O
  O17      1.0000 0.65870  0.81930  0.57790  Biso   1.000  O
  O18      1.0000 0.34130  0.18070  0.42210  Biso   1.000  O
  O19      1.0000 0.60520  0.25600  0.80720  Biso   1.000  O
  O20      1.0000 0.39480  0.74400  0.19280  Biso   1.000  O
  O21      1.0000 0.79600  0.98130  0.60300  Biso   1.000  O
  O22      1.0000 0.20400  0.01870  0.39700  Biso   1.000  O
  O23      1.0000 0.52900  0.13400  0.59950  Biso   1.000  O
  O24      1.0000 0.47100  0.86600  0.40050  Biso   1.000  O
  O25      1.0000 0.07470  0.94120  0.49370  Biso   1.000  O
  O26      1.0000 0.92530  0.05880  0.50630  Biso   1.000  O
  O27      1.0000 0.39150  0.87160  0.76720  Biso   1.000  O
  O28      1.0000 0.60850  0.12840  0.23280  Biso   1.000  O
  O29      1.0000 0.80200  0.18690  0.63600  Biso   1.000  O
  O30      1.0000 0.19800  0.81310  0.36400  Biso   1.000  O
  O31      1.0000 0.27960  0.10700  0.63460  Biso   1.000  O
  O32      1.0000 0.72040  0.89300  0.36540  Biso   1.000  O
  O33      1.0000 0.64300  0.30800  0.65730  Biso   1.000  O
  O34      1.0000 0.35700  0.69200  0.34270  Biso   1.000  O
  O35      1.0000 0.43520  0.77400  0.56640  Biso   1.000  O
  O36      1.0000 0.56480  0.22600  0.43360  Biso   1.000  O
  O37      1.0000 0.59510  0.96410  0.75280  Biso   1.000  O
  O38      1.0000 0.40490  0.03590  0.24720  Biso   1.000  O
  O39      1.0000 0.57700  0.98100  0.41300  Biso   1.000  O
  O40      1.0000 0.42300  0.01900  0.58700  Biso   1.000  O
  O41      1.0000 0.27950  0.89660  0.58600  Biso   1.000  O
  O42      1.0000 0.72050  0.10340  0.41400  Biso   1.000  O
  O43      1.0000 0.75500  0.13700  0.78160  Biso   1.000  O
  O44      1.0000 0.24500  0.86300  0.21840  Biso   1.000  O
  O45      1.0000 0.45200  0.07400  0.76300  Biso   1.000  O
  O46      1.0000 0.54800  0.92600  0.23700  Biso   1.000  O
  O47      1.0000 0.33400  0.94700  0.41300  Biso   1.000  O
  O48      1.0000 0.66600  0.05300  0.58700  Biso   1.000  O
