data_image0
_cell_length_a       8.794
_cell_length_b       9.289
_cell_length_c       12.767
_cell_angle_alpha    81.47
_cell_angle_beta     86.4
_cell_angle_gamma    65.79

_symmetry_space_group_name_H-M    "P 1"
_symmetry_int_tables_number       1

loop_
  _symmetry_equiv_pos_as_xyz
  'x, y, z'

loop_
  _atom_site_label
  _atom_site_occupancy
  _atom_site_fract_x
  _atom_site_fract_y
  _atom_site_fract_z
  _atom_site_thermal_displace_type
  _atom_site_B_iso_or_equiv
  _atom_site_type_symbol
  Cu1      1.0000 0.76456  0.53178  0.84521  Biso   1.000  Cu
  Cu2      1.0000 0.23544  0.46822  0.15479  Biso   1.000  Cu
  Cu3      1.0000 0.85833  0.52242  0.18104  Biso   1.000  Cu
  Cu4      1.0000 0.14167  0.47758  0.81896  Biso   1.000  Cu
  Cl1      1.0000 0.75869  0.48818  0.02244  Biso   1.000  Cl
  Cl2      1.0000 0.24131  0.51182  0.97756  Biso   1.000  Cl
  Cl3      1.0000 0.90376  0.68206  0.77509  Biso   1.000  Cl
  Cl4      1.0000 0.09624  0.31794  0.22491  Biso   1.000  Cl
  S1       1.0000 0.48283  0.97733  0.29900  Biso   1.000  S
  S2       1.0000 0.51717  0.02267  0.70100  Biso   1.000  S
  O1       1.0000 0.66890  0.52600  0.38440  Biso   1.000  O
  O2       1.0000 0.33110  0.47400  0.61560  Biso   1.000  O
  O3       1.0000 0.90120  0.25340  0.68170  Biso   1.000  O
  O4       1.0000 0.09880  0.74660  0.31830  Biso   1.000  O
  O5       1.0000 0.78830  0.08770  0.95480  Biso   1.000  O
  O6       1.0000 0.21170  0.91230  0.04520  Biso   1.000  O
  N1       1.0000 0.70450  0.93320  0.14280  Biso   1.000  N
  N2       1.0000 0.29550  0.06680  0.85720  Biso   1.000  N
  N3       1.0000 0.70920  0.70200  0.25120  Biso   1.000  N
  N4       1.0000 0.29080  0.29800  0.74880  Biso   1.000  N
  C1       1.0000 0.06880  0.99000  0.66040  Biso   1.000  C
  C2       1.0000 0.93120  0.01000  0.33960  Biso   1.000  C
  H1       1.0000 0.01600  0.95840  0.71900  Biso   1.000  H
  H2       1.0000 0.98400  0.04160  0.28100  Biso   1.000  H
  C3       1.0000 0.02170  0.15230  0.62530  Biso   1.000  C
  C4       1.0000 0.97830  0.84770  0.37470  Biso   1.000  C
  C5       1.0000 0.27360  0.91940  0.52120  Biso   1.000  C
  C6       1.0000 0.72640  0.08060  0.47880  Biso   1.000  C
  C7       1.0000 0.61920  0.43320  0.78530  Biso   1.000  C
  C8       1.0000 0.38080  0.56680  0.21470  Biso   1.000  C
  H3       1.0000 0.66850  0.32340  0.80450  Biso   1.000  H
  H4       1.0000 0.33150  0.67660  0.19550  Biso   1.000  H
  H5       1.0000 0.52830  0.49550  0.82330  Biso   1.000  H
  H6       1.0000 0.47170  0.50450  0.17670  Biso   1.000  H
  C9       1.0000 0.67980  0.50240  0.70210  Biso   1.000  C
  C10      1.0000 0.32020  0.49760  0.29790  Biso   1.000  C
  H7       1.0000 0.62720  0.61250  0.68530  Biso   1.000  H
  H8       1.0000 0.37280  0.38750  0.31470  Biso   1.000  H
  C11      1.0000 0.82360  0.41610  0.63560  Biso   1.000  C
  C12      1.0000 0.17640  0.58390  0.36440  Biso   1.000  C
  H9       1.0000 0.78590  0.42250  0.56460  Biso   1.000  H
  H10      1.0000 0.21410  0.57750  0.43540  Biso   1.000  H
  H11      1.0000 0.90330  0.46450  0.63080  Biso   1.000  H
  H12      1.0000 0.09670  0.53550  0.36920  Biso   1.000  H
  C13      1.0000 0.40460  0.79310  0.46900  Biso   1.000  C
  C14      1.0000 0.59540  0.20690  0.53100  Biso   1.000  C
  H13      1.0000 0.42800  0.68970  0.50120  Biso   1.000  H
  H14      1.0000 0.57200  0.31030  0.49880  Biso   1.000  H
  C15      1.0000 0.49580  0.80460  0.38160  Biso   1.000  C
  C16      1.0000 0.50420  0.19540  0.61840  Biso   1.000  C
  C17      1.0000 0.64840  0.86180  0.22340  Biso   1.000  C
  C18      1.0000 0.35160  0.13820  0.77660  Biso   1.000  C
  C19      1.0000 0.63970  0.10890  0.12110  Biso   1.000  C
  C20      1.0000 0.36030  0.89110  0.87890  Biso   1.000  C
  H15      1.0000 0.71200  0.14540  0.15340  Biso   1.000  H
  H16      1.0000 0.28800  0.85460  0.84660  Biso   1.000  H
  H17      1.0000 0.52930  0.15580  0.15180  Biso   1.000  H
  H18      1.0000 0.47070  0.84420  0.84820  Biso   1.000  H
  C21      1.0000 0.63150  0.16100  0.00360  Biso   1.000  C
  C22      1.0000 0.36850  0.83900  0.99640  Biso   1.000  C
  H19      1.0000 0.55030  0.13390  0.97270  Biso   1.000  H
  H20      1.0000 0.44970  0.86610  0.02730  Biso   1.000  H
  H21      1.0000 0.59490  0.27580  0.99010  Biso   1.000  H
  H22      1.0000 0.40510  0.72420  0.00990  Biso   1.000  H
  C23      1.0000 0.62820  0.66480  0.34220  Biso   1.000  C
  C24      1.0000 0.37180  0.33520  0.65780  Biso   1.000  C
  C25      1.0000 0.10350  0.19720  0.53790  Biso   1.000  C
  C26      1.0000 0.89650  0.80280  0.46210  Biso   1.000  C
  H23      1.0000 0.07570  0.30450  0.51430  Biso   1.000  H
  H24      1.0000 0.92430  0.69550  0.48570  Biso   1.000  H
  C27      1.0000 0.83970  0.91830  0.96940  Biso   1.000  C
  C28      1.0000 0.16030  0.08170  0.03060  Biso   1.000  C
  H25      1.0000 0.94510  0.86930  0.93320  Biso   1.000  H
  H26      1.0000 0.05490  0.13070  0.06680  Biso   1.000  H
  H27      1.0000 0.75770  0.89280  0.93800  Biso   1.000  H
  H28      1.0000 0.24230  0.10720  0.06200  Biso   1.000  H
  C29      1.0000 0.19180  0.87710  0.60950  Biso   1.000  C
  C30      1.0000 0.80820  0.12290  0.39050  Biso   1.000  C
  H29      1.0000 0.22130  0.76990  0.63430  Biso   1.000  H
  H30      1.0000 0.77870  0.23010  0.36570  Biso   1.000  H
  C31      1.0000 0.85890  0.85180  0.08390  Biso   1.000  C
  C32      1.0000 0.14110  0.14820  0.91610  Biso   1.000  C
  H31      1.0000 0.88460  0.73880  0.09140  Biso   1.000  H
  H32      1.0000 0.11540  0.26120  0.90860  Biso   1.000  H
  H33      1.0000 0.95080  0.86490  0.11320  Biso   1.000  H
  H34      1.0000 0.04920  0.13510  0.88680  Biso   1.000  H
  C33      1.0000 0.22520  0.08270  0.48670  Biso   1.000  C
  C34      1.0000 0.77480  0.91730  0.51330  Biso   1.000  C
  H35      1.0000 0.27700  0.11430  0.42760  Biso   1.000  H
  H36      1.0000 0.72300  0.88570  0.57240  Biso   1.000  H
