data_image0
_cell_length_a       20.8
_cell_length_b       16.752
_cell_length_c       13.563
_cell_angle_alpha    110.65
_cell_angle_beta     94.01
_cell_angle_gamma    102.08

_symmetry_space_group_name_H-M    "P 1"
_symmetry_int_tables_number       1

loop_
  _symmetry_equiv_pos_as_xyz
  'x, y, z'

loop_
  _atom_site_label
  _atom_site_occupancy
  _atom_site_fract_x
  _atom_site_fract_y
  _atom_site_fract_z
  _atom_site_thermal_displace_type
  _atom_site_B_iso_or_equiv
  _atom_site_type_symbol
  Co1      1.0000 0.21579  0.32900  0.49993  Biso   1.000  Co
  Co2      1.0000 0.78421  0.67100  0.50007  Biso   1.000  Co
  S1       1.0000 0.11810  0.30130  0.56370  Biso   1.000  S
  S2       1.0000 0.88190  0.69870  0.43630  Biso   1.000  S
  S3       1.0000 0.24720  0.38080  0.68110  Biso   1.000  S
  S4       1.0000 0.75280  0.61920  0.31890  Biso   1.000  S
  C1       1.0000 0.16430  0.34880  0.69080  Biso   1.000  C
  C2       1.0000 0.83570  0.65120  0.30920  Biso   1.000  C
  N1       1.0000 0.13990  0.35880  0.77870  Biso   1.000  N
  N2       1.0000 0.86010  0.64120  0.22130  Biso   1.000  N
  C3       1.0000 0.06790  0.32060  0.77560  Biso   1.000  C
  C4       1.0000 0.93210  0.67940  0.22440  Biso   1.000  C
  C5       1.0000 0.03340  0.37940  0.84700  Biso   1.000  C
  C6       1.0000 0.96660  0.62060  0.15300  Biso   1.000  C
  C7       1.0000 0.95970  0.33390  0.83930  Biso   1.000  C
  C8       1.0000 0.04030  0.66610  0.16070  Biso   1.000  C
  C9       1.0000 0.92660  0.39300  0.91940  Biso   1.000  C
  C10      1.0000 0.07340  0.60700  0.08060  Biso   1.000  C
  C11      1.0000 0.18190  0.40590  0.88340  Biso   1.000  C
  C12      1.0000 0.81810  0.59410  0.11660  Biso   1.000  C
  C13      1.0000 0.18660  0.35290  0.94860  Biso   1.000  C
  C14      1.0000 0.81340  0.64710  0.05140  Biso   1.000  C
  C15      1.0000 0.22160  0.41090  0.06270  Biso   1.000  C
  C16      1.0000 0.77840  0.58910  0.93730  Biso   1.000  C
  C17      1.0000 0.22570  0.36130  0.13250  Biso   1.000  C
  C18      1.0000 0.77430  0.63870  0.86750  Biso   1.000  C
  Co3      1.0000 0.29819  0.91451  0.76422  Biso   1.000  Co
  Co4      1.0000 0.70181  0.08549  0.23578  Biso   1.000  Co
  S5       1.0000 0.24840  0.77400  0.65040  Biso   1.000  S
  S6       1.0000 0.75160  0.22600  0.34960  Biso   1.000  S
  S7       1.0000 0.18820  0.90720  0.76170  Biso   1.000  S
  S8       1.0000 0.81180  0.09280  0.23830  Biso   1.000  S
  C19      1.0000 0.17280  0.79880  0.67730  Biso   1.000  C
  C20      1.0000 0.82720  0.20120  0.32270  Biso   1.000  C
  N3       1.0000 0.11400  0.74440  0.63760  Biso   1.000  N
  N4       1.0000 0.88600  0.25560  0.36240  Biso   1.000  N
  C21      1.0000 0.10680  0.65090  0.56580  Biso   1.000  C
  C22      1.0000 0.89320  0.34910  0.43420  Biso   1.000  C
  C23      1.0000 0.06670  0.62450  0.45910  Biso   1.000  C
  C24      1.0000 0.93330  0.37550  0.54090  Biso   1.000  C
  C25      1.0000 0.06580  0.53080  0.38820  Biso   1.000  C
  C26      1.0000 0.93420  0.46920  0.61180  Biso   1.000  C
  C27      1.0000 0.06920  0.50840  0.29520  Biso   1.000  C
  C28      1.0000 0.93080  0.49160  0.70480  Biso   1.000  C
  C29      1.0000 0.05390  0.77410  0.66100  Biso   1.000  C
  C30      1.0000 0.94610  0.22590  0.33900  Biso   1.000  C
  C31      1.0000 0.02040  0.73630  0.73150  Biso   1.000  C
  C32      1.0000 0.97960  0.26370  0.26850  Biso   1.000  C
  C33      1.0000 0.05140  0.77820  0.84540  Biso   1.000  C
  C34      1.0000 0.94860  0.22180  0.15460  Biso   1.000  C
  C35      1.0000 0.01190  0.74220  0.92340  Biso   1.000  C
  C36      1.0000 0.98810  0.25780  0.07660  Biso   1.000  C
  Cu1      1.0000 0.18792  0.96819  0.62174  Biso   1.000  Cu
  Cu2      1.0000 0.81208  0.03181  0.37826  Biso   1.000  Cu
  Cu3      1.0000 0.06993  0.98553  0.52123  Biso   1.000  Cu
  Cu4      1.0000 0.93007  0.01447  0.47877  Biso   1.000  Cu
  Cu5      1.0000 0.12654  0.15037  0.52554  Biso   1.000  Cu
  Cu6      1.0000 0.87346  0.84963  0.47446  Biso   1.000  Cu
  I1       1.0000 0.16219  0.12224  0.69309  Biso   1.000  I
  I2       1.0000 0.83781  0.87776  0.30691  Biso   1.000  I
  I3       1.0000 0.12876  0.86232  0.43757  Biso   1.000  I
  I4       1.0000 0.87124  0.13768  0.56243  Biso   1.000  I
  I5       1.0000 0.02944  0.04839  0.37792  Biso   1.000  I
  I6       1.0000 0.97056  0.95161  0.62208  Biso   1.000  I
  Cu7      1.0000 0.24972  0.52980  0.69385  Biso   1.000  Cu
  Cu8      1.0000 0.75028  0.47020  0.30615  Biso   1.000  Cu
  Cu9      1.0000 0.27176  0.71026  0.77645  Biso   1.000  Cu
  Cu10     1.0000 0.72824  0.28974  0.22355  Biso   1.000  Cu
  I7       1.0000 0.36840  0.63163  0.74004  Biso   1.000  I
  I8       1.0000 0.63160  0.36837  0.25996  Biso   1.000  I
  I9       1.0000 0.17221  0.60821  0.81290  Biso   1.000  I
  I10      1.0000 0.82779  0.39179  0.18710  Biso   1.000  I
  S9       1.0000 0.21570  0.46600  0.50180  Biso   1.000  S
  S10      1.0000 0.78430  0.53400  0.49820  Biso   1.000  S
  S11      1.0000 0.31750  0.37730  0.46510  Biso   1.000  S
  S12      1.0000 0.68250  0.62270  0.53490  Biso   1.000  S
  C37      1.0000 0.29480  0.47010  0.46760  Biso   1.000  C
  C38      1.0000 0.70520  0.52990  0.53240  Biso   1.000  C
  N5       1.0000 0.33210  0.53470  0.44830  Biso   1.000  N
  N6       1.0000 0.66790  0.46530  0.55170  Biso   1.000  N
  C39      1.0000 0.30830  0.61360  0.45340  Biso   1.000  C
  C40      1.0000 0.69170  0.38640  0.54660  Biso   1.000  C
  C41      1.0000 0.28590  0.61230  0.34510  Biso   1.000  C
  C42      1.0000 0.71410  0.38770  0.65490  Biso   1.000  C
  C43      1.0000 0.26520  0.69430  0.35080  Biso   1.000  C
  C44      1.0000 0.73480  0.30570  0.64920  Biso   1.000  C
  C45      1.0000 0.31890  0.77760  0.39690  Biso   1.000  C
  C46      1.0000 0.68110  0.22240  0.60310  Biso   1.000  C
  C47      1.0000 0.40150  0.53450  0.43320  Biso   1.000  C
  C48      1.0000 0.59850  0.46550  0.56680  Biso   1.000  C
  C49      1.0000 0.41140  0.49720  0.32330  Biso   1.000  C
  C50      1.0000 0.58860  0.50280  0.67670  Biso   1.000  C
  C51      1.0000 0.48630  0.50100  0.32100  Biso   1.000  C
  C52      1.0000 0.51370  0.49900  0.67900  Biso   1.000  C
  C53      1.0000 0.52630  0.56820  0.30920  Biso   1.000  C
  C54      1.0000 0.47370  0.43180  0.69080  Biso   1.000  C
  S13      1.0000 0.30670  0.97700  0.63920  Biso   1.000  S
  S14      1.0000 0.69330  0.02300  0.36080  Biso   1.000  S
  S15      1.0000 0.32810  0.06110  0.86320  Biso   1.000  S
  S16      1.0000 0.67190  0.93890  0.13680  Biso   1.000  S
  C55      1.0000 0.33150  0.07640  0.74630  Biso   1.000  C
  C56      1.0000 0.66850  0.92360  0.25370  Biso   1.000  C
  N7       1.0000 0.34770  0.15430  0.73590  Biso   1.000  N
  N8       1.0000 0.65230  0.84570  0.26410  Biso   1.000  N
  C57      1.0000 0.34950  0.16050  0.63250  Biso   1.000  C
  C58      1.0000 0.65050  0.83950  0.36750  Biso   1.000  C
  C59      1.0000 0.41540  0.15900  0.59820  Biso   1.000  C
  C60      1.0000 0.58460  0.84100  0.40180  Biso   1.000  C
  C61      1.0000 0.41760  0.16740  0.49490  Biso   1.000  C
  C62      1.0000 0.58240  0.83260  0.50510  Biso   1.000  C
  C63      1.0000 0.48700  0.17410  0.46110  Biso   1.000  C
  C64      1.0000 0.51300  0.82590  0.53890  Biso   1.000  C
  C65      1.0000 0.35350  0.24020  0.83430  Biso   1.000  C
  C66      1.0000 0.64650  0.75980  0.16570  Biso   1.000  C
  C67      1.0000 0.41700  0.27230  0.87400  Biso   1.000  C
  C68      1.0000 0.58300  0.72770  0.12600  Biso   1.000  C
  C69      1.0000 0.41800  0.36640  0.99550  Biso   1.000  C
  C70      1.0000 0.58200  0.63360  0.00450  Biso   1.000  C
  C71      1.0000 0.40300  0.42650  0.95740  Biso   1.000  C
  C72      1.0000 0.59700  0.57350  0.04260  Biso   1.000  C
  S17      1.0000 0.17030  0.26290  0.32690  Biso   1.000  S
  S18      1.0000 0.82970  0.73710  0.67310  Biso   1.000  S
  S19      1.0000 0.22620  0.18720  0.45450  Biso   1.000  S
  S20      1.0000 0.77380  0.81280  0.54550  Biso   1.000  S
  C73      1.0000 0.18740  0.16880  0.32870  Biso   1.000  C
  C74      1.0000 0.81260  0.83120  0.67130  Biso   1.000  C
  N9       1.0000 0.17240  0.09190  0.24730  Biso   1.000  N
  N10      1.0000 0.82760  0.90810  0.75270  Biso   1.000  N
  C75      1.0000 0.13320  0.08140  0.14590  Biso   1.000  C
  C76      1.0000 0.86680  0.91860  0.85410  Biso   1.000  C
  C77      1.0000 0.17330  0.09490  0.06890  Biso   1.000  C
  C78      1.0000 0.82670  0.90510  0.93110  Biso   1.000  C
  C79      1.0000 0.13440  0.11050  0.97680  Biso   1.000  C
  C80      1.0000 0.86560  0.88950  0.02320  Biso   1.000  C
  C81      1.0000 0.07410  0.05720  0.92510  Biso   1.000  C
  C82      1.0000 0.92590  0.94280  0.07490  Biso   1.000  C
  C83      1.0000 0.18820  0.01370  0.25740  Biso   1.000  C
  C84      1.0000 0.81180  0.98630  0.74260  Biso   1.000  C
  C85      1.0000 0.24640  0.99260  0.21170  Biso   1.000  C
  C86      1.0000 0.75360  0.00740  0.78830  Biso   1.000  C
  C87      1.0000 0.25860  0.90540  0.21190  Biso   1.000  C
  C88      1.0000 0.74140  0.09460  0.78810  Biso   1.000  C
  C89      1.0000 0.21420  0.82560  0.13820  Biso   1.000  C
  C90      1.0000 0.78580  0.17440  0.86180  Biso   1.000  C
  S21      1.0000 0.40430  0.90230  0.77000  Biso   1.000  S
  S22      1.0000 0.59570  0.09770  0.23000  Biso   1.000  S
  S23      1.0000 0.31330  0.86930  0.90340  Biso   1.000  S
  S24      1.0000 0.68670  0.13070  0.09660  Biso   1.000  S
  C91      1.0000 0.39500  0.87920  0.88070  Biso   1.000  C
  C92      1.0000 0.60500  0.12080  0.11930  Biso   1.000  C
  N11      1.0000 0.44260  0.87100  0.94300  Biso   1.000  N
  N12      1.0000 0.55740  0.12900  0.05700  Biso   1.000  N
  C93      1.0000 0.51230  0.89170  0.92660  Biso   1.000  C
  C94      1.0000 0.48770  0.10830  0.07340  Biso   1.000  C
  C95      1.0000 0.53440  0.81500  0.86110  Biso   1.000  C
  C96      1.0000 0.46560  0.18500  0.13890  Biso   1.000  C
  C97      1.0000 0.60330  0.84310  0.83290  Biso   1.000  C
  C98      1.0000 0.39670  0.15690  0.16710  Biso   1.000  C
  C99      1.0000 0.62820  0.76910  0.76900  Biso   1.000  C
  C100     1.0000 0.37180  0.23090  0.23100  Biso   1.000  C
  C101     1.0000 0.43010  0.84470  0.03360  Biso   1.000  C
  C102     1.0000 0.56990  0.15530  0.96640  Biso   1.000  C
  C103     1.0000 0.43680  0.89660  0.12740  Biso   1.000  C
  C104     1.0000 0.56320  0.10340  0.87260  Biso   1.000  C
  C105     1.0000 0.42710  0.85630  0.21820  Biso   1.000  C
  C106     1.0000 0.57290  0.14370  0.78180  Biso   1.000  C
  C107     1.0000 0.43590  0.93750  0.33150  Biso   1.000  C
  C108     1.0000 0.56410  0.06250  0.66850  Biso   1.000  C
  C109     1.0000 0.42000  0.77000  0.03500  Biso   1.000  C
  C110     1.0000 0.58000  0.23000  0.96500  Biso   1.000  C
  C111     1.0000 0.40800  0.75700  0.13800  Biso   1.000  C
  C112     1.0000 0.59200  0.24300  0.86200  Biso   1.000  C
  C113     1.0000 0.38500  0.66100  0.11400  Biso   1.000  C
  C114     1.0000 0.61500  0.33900  0.88600  Biso   1.000  C
  H1       1.0000 0.04300  0.30100  0.70300  Biso   1.000  H
  H2       1.0000 0.95700  0.69900  0.29700  Biso   1.000  H
  H3       1.0000 0.06200  0.26700  0.79200  Biso   1.000  H
  H4       1.0000 0.93800  0.73300  0.20800  Biso   1.000  H
  H5       1.0000 0.05800  0.40100  0.92100  Biso   1.000  H
  H6       1.0000 0.94200  0.59900  0.07900  Biso   1.000  H
  H7       1.0000 0.03800  0.43300  0.83100  Biso   1.000  H
  H8       1.0000 0.96200  0.56700  0.16900  Biso   1.000  H
  H9       1.0000 0.93600  0.31600  0.76800  Biso   1.000  H
  H10      1.0000 0.06400  0.68400  0.23200  Biso   1.000  H
  H11      1.0000 0.95700  0.27800  0.85100  Biso   1.000  H
  H12      1.0000 0.04300  0.72200  0.14900  Biso   1.000  H
  H13      1.0000 0.95000  0.40900  0.99200  Biso   1.000  H
  H14      1.0000 0.05000  0.59100  0.00800  Biso   1.000  H
  H15      1.0000 0.92900  0.44700  0.90800  Biso   1.000  H
  H16      1.0000 0.07100  0.55300  0.09200  Biso   1.000  H
  H17      1.0000 0.88200  0.36400  0.91500  Biso   1.000  H
  H18      1.0000 0.11800  0.63600  0.08500  Biso   1.000  H
  H19      1.0000 0.22600  0.43000  0.87500  Biso   1.000  H
  H20      1.0000 0.77400  0.57000  0.12500  Biso   1.000  H
  H21      1.0000 0.16500  0.45500  0.92400  Biso   1.000  H
  H22      1.0000 0.83500  0.54500  0.07600  Biso   1.000  H
  H23      1.0000 0.14200  0.32100  0.95000  Biso   1.000  H
  H24      1.0000 0.85800  0.67900  0.05000  Biso   1.000  H
  H25      1.0000 0.20900  0.30800  0.91500  Biso   1.000  H
  H26      1.0000 0.79100  0.69200  0.08500  Biso   1.000  H
  H27      1.0000 0.26700  0.44200  0.06000  Biso   1.000  H
  H28      1.0000 0.73300  0.55800  0.94000  Biso   1.000  H
  H29      1.0000 0.19900  0.45800  0.09400  Biso   1.000  H
  H30      1.0000 0.80100  0.54200  0.90600  Biso   1.000  H
  H31      1.0000 0.18100  0.33200  0.13600  Biso   1.000  H
  H32      1.0000 0.81900  0.66800  0.86400  Biso   1.000  H
  H33      1.0000 0.24800  0.31600  0.10200  Biso   1.000  H
  H34      1.0000 0.75200  0.68400  0.89800  Biso   1.000  H
  H35      1.0000 0.24700  0.39700  0.20200  Biso   1.000  H
  H36      1.0000 0.75300  0.60300  0.79800  Biso   1.000  H
  H37      1.0000 0.15100  0.64200  0.55500  Biso   1.000  H
  H38      1.0000 0.84900  0.35800  0.44500  Biso   1.000  H
  H39      1.0000 0.08800  0.61300  0.60200  Biso   1.000  H
  H40      1.0000 0.91200  0.38700  0.39800  Biso   1.000  H
  H41      1.0000 0.02000  0.63100  0.47000  Biso   1.000  H
  H42      1.0000 0.98000  0.36900  0.53000  Biso   1.000  H
  H43      1.0000 0.08300  0.66300  0.42500  Biso   1.000  H
  H44      1.0000 0.91700  0.33700  0.57500  Biso   1.000  H
  H45      1.0000 0.09000  0.51100  0.43400  Biso   1.000  H
  H46      1.0000 0.91000  0.48900  0.56600  Biso   1.000  H
  H47      1.0000 0.01800  0.49700  0.38000  Biso   1.000  H
  H48      1.0000 0.98200  0.50300  0.62000  Biso   1.000  H
  H49      1.0000 0.05500  0.53500  0.26400  Biso   1.000  H
  H50      1.0000 0.94500  0.46500  0.73600  Biso   1.000  H
  H51      1.0000 0.12700  0.54900  0.31800  Biso   1.000  H
  H52      1.0000 0.87300  0.45100  0.68200  Biso   1.000  H
  H53      1.0000 0.08100  0.45600  0.26300  Biso   1.000  H
  H54      1.0000 0.91900  0.54400  0.73700  Biso   1.000  H
  H55      1.0000 0.06300  0.83700  0.69200  Biso   1.000  H
  H56      1.0000 0.93700  0.16300  0.30800  Biso   1.000  H
  H57      1.0000 0.02300  0.75700  0.59300  Biso   1.000  H
  H58      1.0000 0.97700  0.24300  0.40700  Biso   1.000  H
  H59      1.0000 0.97300  0.73800  0.72700  Biso   1.000  H
  H60      1.0000 0.02700  0.26200  0.27300  Biso   1.000  H
  H61      1.0000 0.01900  0.67300  0.70700  Biso   1.000  H
  H62      1.0000 0.98100  0.32700  0.29300  Biso   1.000  H
  H63      1.0000 0.09400  0.76900  0.84500  Biso   1.000  H
  H64      1.0000 0.90600  0.23100  0.15500  Biso   1.000  H
  H65      1.0000 0.05200  0.83800  0.86300  Biso   1.000  H
  H66      1.0000 0.94800  0.16200  0.13700  Biso   1.000  H
  H67      1.0000 0.96900  0.74800  0.91600  Biso   1.000  H
  H68      1.0000 0.03100  0.25200  0.08400  Biso   1.000  H
  H69      1.0000 0.01100  0.67900  0.89700  Biso   1.000  H
  H70      1.0000 0.98900  0.32100  0.10300  Biso   1.000  H
  H71      1.0000 0.03400  0.76900  0.99200  Biso   1.000  H
  H72      1.0000 0.96600  0.23100  0.00800  Biso   1.000  H
  H73      1.0000 0.27200  0.61800  0.49500  Biso   1.000  H
  H74      1.0000 0.72800  0.38200  0.50500  Biso   1.000  H
  H75      1.0000 0.34300  0.66700  0.49300  Biso   1.000  H
  H76      1.0000 0.65700  0.33300  0.50700  Biso   1.000  H
  H77      1.0000 0.32300  0.60600  0.30500  Biso   1.000  H
  H78      1.0000 0.67700  0.39400  0.69500  Biso   1.000  H
  H79      1.0000 0.25100  0.55900  0.30800  Biso   1.000  H
  H80      1.0000 0.74900  0.44100  0.69200  Biso   1.000  H
  H81      1.0000 0.24700  0.69000  0.27900  Biso   1.000  H
  H82      1.0000 0.75300  0.31000  0.72100  Biso   1.000  H
  H83      1.0000 0.22800  0.70000  0.39000  Biso   1.000  H
  H84      1.0000 0.77200  0.30000  0.61000  Biso   1.000  H
  H85      1.0000 0.33800  0.78600  0.47300  Biso   1.000  H
  H86      1.0000 0.66200  0.21400  0.52700  Biso   1.000  H
  H87      1.0000 0.35800  0.77600  0.36100  Biso   1.000  H
  H88      1.0000 0.64200  0.22400  0.63900  Biso   1.000  H
  H89      1.0000 0.30800  0.83200  0.40600  Biso   1.000  H
  H90      1.0000 0.69200  0.16800  0.59400  Biso   1.000  H
  H91      1.0000 0.42900  0.59500  0.46500  Biso   1.000  H
  H92      1.0000 0.57100  0.40500  0.53500  Biso   1.000  H
  H93      1.0000 0.41900  0.50300  0.47100  Biso   1.000  H
  H94      1.0000 0.58100  0.49700  0.52900  Biso   1.000  H
  H95      1.0000 0.37700  0.44300  0.28800  Biso   1.000  H
  H96      1.0000 0.62300  0.55700  0.71200  Biso   1.000  H
  H97      1.0000 0.40100  0.53700  0.28800  Biso   1.000  H
  H98      1.0000 0.59900  0.46300  0.71200  Biso   1.000  H
  H99      1.0000 0.49400  0.46300  0.35900  Biso   1.000  H
  H100     1.0000 0.50600  0.53700  0.64100  Biso   1.000  H
  H101     1.0000 0.47800  0.44100  0.23800  Biso   1.000  H
  H102     1.0000 0.52200  0.55900  0.76200  Biso   1.000  H
  H103     1.0000 0.51000  0.58900  0.26900  Biso   1.000  H
  H104     1.0000 0.49000  0.41100  0.73100  Biso   1.000  H
  H105     1.0000 0.52600  0.61000  0.39000  Biso   1.000  H
  H106     1.0000 0.47400  0.39000  0.61000  Biso   1.000  H
  H107     1.0000 0.56800  0.55900  0.31300  Biso   1.000  H
  H108     1.0000 0.43200  0.44100  0.68700  Biso   1.000  H
  H109     1.0000 0.31700  0.11300  0.57900  Biso   1.000  H
  H110     1.0000 0.68300  0.88700  0.42100  Biso   1.000  H
  H111     1.0000 0.33900  0.21500  0.63300  Biso   1.000  H
  H112     1.0000 0.66100  0.78500  0.36700  Biso   1.000  H
  H113     1.0000 0.45000  0.20500  0.65300  Biso   1.000  H
  H114     1.0000 0.55000  0.79500  0.34700  Biso   1.000  H
  H115     1.0000 0.42600  0.10400  0.59300  Biso   1.000  H
  H116     1.0000 0.57400  0.89600  0.40700  Biso   1.000  H
  H117     1.0000 0.38600  0.12100  0.44300  Biso   1.000  H
  H118     1.0000 0.61400  0.87900  0.55700  Biso   1.000  H
  H119     1.0000 0.40400  0.22300  0.50300  Biso   1.000  H
  H120     1.0000 0.59600  0.77700  0.49700  Biso   1.000  H
  H121     1.0000 0.51900  0.22600  0.51500  Biso   1.000  H
  H122     1.0000 0.48100  0.77400  0.48500  Biso   1.000  H
  H123     1.0000 0.50200  0.12400  0.45600  Biso   1.000  H
  H124     1.0000 0.49800  0.87600  0.54400  Biso   1.000  H
  H125     1.0000 0.48800  0.18400  0.39600  Biso   1.000  H
  H126     1.0000 0.51200  0.81600  0.60400  Biso   1.000  H
  H127     1.0000 0.33500  0.28400  0.81800  Biso   1.000  H
  H128     1.0000 0.66500  0.71600  0.18200  Biso   1.000  H
  H129     1.0000 0.32900  0.23000  0.89000  Biso   1.000  H
  H130     1.0000 0.67100  0.77000  0.11000  Biso   1.000  H
  H131     1.0000 0.43200  0.22200  0.88000  Biso   1.000  H
  H132     1.0000 0.56800  0.77800  0.12000  Biso   1.000  H
  H133     1.0000 0.43800  0.28100  0.81300  Biso   1.000  H
  H134     1.0000 0.56200  0.71900  0.18700  Biso   1.000  H
  H135     1.0000 0.39600  0.35500  0.04300  Biso   1.000  H
  H136     1.0000 0.60400  0.64500  0.95700  Biso   1.000  H
  H137     1.0000 0.46700  0.39500  0.02900  Biso   1.000  H
  H138     1.0000 0.53300  0.60500  0.97100  Biso   1.000  H
  H139     1.0000 0.42600  0.44000  0.91100  Biso   1.000  H
  H140     1.0000 0.57400  0.56000  0.08900  Biso   1.000  H
  H141     1.0000 0.35400  0.40000  0.92400  Biso   1.000  H
  H142     1.0000 0.64600  0.60000  0.07600  Biso   1.000  H
  H143     1.0000 0.40200  0.47500  0.02100  Biso   1.000  H
  H144     1.0000 0.59800  0.52500  0.97900  Biso   1.000  H
  H145     1.0000 0.10200  0.02300  0.11600  Biso   1.000  H
  H146     1.0000 0.89800  0.97700  0.88400  Biso   1.000  H
  H147     1.0000 0.10500  0.12300  0.16100  Biso   1.000  H
  H148     1.0000 0.89500  0.87700  0.83900  Biso   1.000  H
  H149     1.0000 0.21200  0.14400  0.10700  Biso   1.000  H
  H150     1.0000 0.78800  0.85600  0.89300  Biso   1.000  H
  H151     1.0000 0.19200  0.04400  0.04000  Biso   1.000  H
  H152     1.0000 0.80800  0.95600  0.96000  Biso   1.000  H
  H153     1.0000 0.12900  0.17000  0.00500  Biso   1.000  H
  H154     1.0000 0.87100  0.83000  0.99500  Biso   1.000  H
  H155     1.0000 0.16300  0.11000  0.92200  Biso   1.000  H
  H156     1.0000 0.83700  0.89000  0.07800  Biso   1.000  H
  H157     1.0000 0.07900  0.99600  0.89200  Biso   1.000  H
  H158     1.0000 0.92100  0.00400  0.10800  Biso   1.000  H
  H159     1.0000 0.04500  0.05600  0.97600  Biso   1.000  H
  H160     1.0000 0.95500  0.94400  0.02400  Biso   1.000  H
  H161     1.0000 0.04900  0.06400  0.86700  Biso   1.000  H
  H162     1.0000 0.95100  0.93600  0.13300  Biso   1.000  H
  H163     1.0000 0.19400  0.02000  0.33100  Biso   1.000  H
  H164     1.0000 0.80600  0.98000  0.66900  Biso   1.000  H
  H165     1.0000 0.15000  0.96200  0.22200  Biso   1.000  H
  H166     1.0000 0.85000  0.03800  0.77800  Biso   1.000  H
  H167     1.0000 0.24000  0.98700  0.13800  Biso   1.000  H
  H168     1.0000 0.76000  0.01300  0.86200  Biso   1.000  H
  H169     1.0000 0.28400  0.04400  0.24900  Biso   1.000  H
  H170     1.0000 0.71600  0.95600  0.75100  Biso   1.000  H
  H171     1.0000 0.30800  0.90900  0.20700  Biso   1.000  H
  H172     1.0000 0.69200  0.09100  0.79300  Biso   1.000  H
  H173     1.0000 0.26000  0.91100  0.29000  Biso   1.000  H
  H174     1.0000 0.74000  0.08900  0.71000  Biso   1.000  H
  H175     1.0000 0.17100  0.83500  0.15500  Biso   1.000  H
  H176     1.0000 0.82900  0.16500  0.84500  Biso   1.000  H
  H177     1.0000 0.21900  0.83300  0.07100  Biso   1.000  H
  H178     1.0000 0.78100  0.16700  0.92900  Biso   1.000  H
  H179     1.0000 0.22500  0.78200  0.14600  Biso   1.000  H
  H180     1.0000 0.77500  0.21800  0.85400  Biso   1.000  H
  H181     1.0000 0.51800  0.93400  0.89400  Biso   1.000  H
  H182     1.0000 0.48200  0.06600  0.10600  Biso   1.000  H
  H183     1.0000 0.54000  0.91800  0.99500  Biso   1.000  H
  H184     1.0000 0.46000  0.08200  0.00500  Biso   1.000  H
  H185     1.0000 0.53400  0.77500  0.89700  Biso   1.000  H
  H186     1.0000 0.46600  0.22500  0.10300  Biso   1.000  H
  H187     1.0000 0.50200  0.78300  0.79600  Biso   1.000  H
  H188     1.0000 0.49800  0.21700  0.20400  Biso   1.000  H
  H189     1.0000 0.60400  0.88300  0.79500  Biso   1.000  H
  H190     1.0000 0.39600  0.11700  0.20500  Biso   1.000  H
  H191     1.0000 0.63500  0.87600  0.89800  Biso   1.000  H
  H192     1.0000 0.36500  0.12400  0.10200  Biso   1.000  H
  H193     1.0000 0.63000  0.73000  0.80400  Biso   1.000  H
  H194     1.0000 0.37000  0.27000  0.19600  Biso   1.000  H
  H195     1.0000 0.59800  0.73600  0.70200  Biso   1.000  H
  H196     1.0000 0.40200  0.26400  0.29800  Biso   1.000  H
  H197     1.0000 0.67100  0.78600  0.75000  Biso   1.000  H
  H198     1.0000 0.32900  0.21400  0.25000  Biso   1.000  H
  H199     1.0000 0.38500  0.81600  0.02200  Biso   1.000  H
  H200     1.0000 0.61500  0.18400  0.97800  Biso   1.000  H
  H201     1.0000 0.45700  0.80900  0.03700  Biso   1.000  H
  H202     1.0000 0.54300  0.19100  0.96300  Biso   1.000  H
  H203     1.0000 0.48200  0.93500  0.14400  Biso   1.000  H
  H204     1.0000 0.51800  0.06500  0.85600  Biso   1.000  H
  H205     1.0000 0.40700  0.93400  0.13200  Biso   1.000  H
  H206     1.0000 0.59300  0.06600  0.86800  Biso   1.000  H
  H207     1.0000 0.38400  0.81300  0.20200  Biso   1.000  H
  H208     1.0000 0.61600  0.18700  0.79800  Biso   1.000  H
  H209     1.0000 0.46000  0.82000  0.21800  Biso   1.000  H
  H210     1.0000 0.54000  0.18000  0.78200  Biso   1.000  H
  H211     1.0000 0.48000  0.97600  0.34700  Biso   1.000  H
  H212     1.0000 0.52000  0.02400  0.65300  Biso   1.000  H
  H213     1.0000 0.40400  0.97000  0.32900  Biso   1.000  H
  H214     1.0000 0.59600  0.03000  0.67100  Biso   1.000  H
  H215     1.0000 0.43100  0.91100  0.38300  Biso   1.000  H
  H216     1.0000 0.56900  0.08900  0.61700  Biso   1.000  H
  H217     1.0000 0.46800  0.88000  0.09000  Biso   1.000  H
  H218     1.0000 0.53200  0.12000  0.91000  Biso   1.000  H
  H219     1.0000 0.39200  0.86700  0.06000  Biso   1.000  H
  H220     1.0000 0.60800  0.13300  0.94000  Biso   1.000  H
  H221     1.0000 0.38200  0.73700  0.97900  Biso   1.000  H
  H222     1.0000 0.61800  0.26300  0.02100  Biso   1.000  H
  H223     1.0000 0.45800  0.75000  0.00600  Biso   1.000  H
  H224     1.0000 0.54200  0.25000  0.99400  Biso   1.000  H
  H225     1.0000 0.45100  0.78700  0.19200  Biso   1.000  H
  H226     1.0000 0.54900  0.21300  0.80800  Biso   1.000  H
  H227     1.0000 0.37800  0.79200  0.17500  Biso   1.000  H
  H228     1.0000 0.62200  0.20800  0.82500  Biso   1.000  H
  H229     1.0000 0.34600  0.63800  0.06500  Biso   1.000  H
  H230     1.0000 0.65400  0.36200  0.93500  Biso   1.000  H
  H231     1.0000 0.41900  0.63300  0.08400  Biso   1.000  H
  H232     1.0000 0.58100  0.36700  0.91600  Biso   1.000  H
  H233     1.0000 0.38100  0.65700  0.18100  Biso   1.000  H
  H234     1.0000 0.61900  0.34300  0.81900  Biso   1.000  H
