data_image0
_cell_length_a       17.824
_cell_length_b       14.478
_cell_length_c       11.518
_cell_angle_alpha    90
_cell_angle_beta     90
_cell_angle_gamma    90

_symmetry_space_group_name_H-M    "P 1"
_symmetry_int_tables_number       1

loop_
  _symmetry_equiv_pos_as_xyz
  'x, y, z'

loop_
  _atom_site_label
  _atom_site_occupancy
  _atom_site_fract_x
  _atom_site_fract_y
  _atom_site_fract_z
  _atom_site_thermal_displace_type
  _atom_site_B_iso_or_equiv
  _atom_site_type_symbol
  Br1      1.0000 0.99920  0.00030  0.22120  Biso   1.000  Br
  Br2      1.0000 0.49920  0.49970  0.77880  Biso   1.000  Br
  Br3      1.0000 0.00080  0.50030  0.27880  Biso   1.000  Br
  Br4      1.0000 0.50080  0.99970  0.72120  Biso   1.000  Br
  Br5      1.0000 0.11350  0.99650  0.53100  Biso   1.000  Br
  Br6      1.0000 0.61350  0.50350  0.46900  Biso   1.000  Br
  Br7      1.0000 0.88650  0.49650  0.96900  Biso   1.000  Br
  Br8      1.0000 0.38650  0.00350  0.03100  Biso   1.000  Br
  Br9      1.0000 0.87780  0.01140  0.52720  Biso   1.000  Br
  Br10     1.0000 0.37780  0.48860  0.47280  Biso   1.000  Br
  Br11     1.0000 0.12220  0.51140  0.97280  Biso   1.000  Br
  Br12     1.0000 0.62220  0.98860  0.02720  Biso   1.000  Br
  Cu1      1.0000 0.09240  0.06790  0.34700  Biso   1.000  Cu
  Cu2      1.0000 0.59240  0.43210  0.65300  Biso   1.000  Cu
  Cu3      1.0000 0.90760  0.56790  0.15300  Biso   1.000  Cu
  Cu4      1.0000 0.40760  0.93210  0.84700  Biso   1.000  Cu
  Cu5      1.0000 0.99070  0.93390  0.56530  Biso   1.000  Cu
  Cu6      1.0000 0.49070  0.56610  0.43470  Biso   1.000  Cu
  Cu7      1.0000 0.00930  0.43390  0.93470  Biso   1.000  Cu
  Cu8      1.0000 0.50930  0.06610  0.06530  Biso   1.000  Cu
  N1       1.0000 0.00130  0.82020  0.67130  Biso   1.000  N
  N2       1.0000 0.50130  0.67980  0.32870  Biso   1.000  N
  N3       1.0000 0.99870  0.32020  0.82870  Biso   1.000  N
  N4       1.0000 0.49870  0.17980  0.17130  Biso   1.000  N
  C1       1.0000 0.01370  0.76480  0.73830  Biso   1.000  C
  C2       1.0000 0.51370  0.73520  0.26170  Biso   1.000  C
  C3       1.0000 0.98630  0.26480  0.76170  Biso   1.000  C
  C4       1.0000 0.48630  0.23520  0.23830  Biso   1.000  C
  C5       1.0000 0.02610  0.68980  0.81260  Biso   1.000  C
  C6       1.0000 0.52610  0.81020  0.18740  Biso   1.000  C
  C7       1.0000 0.97390  0.18980  0.68740  Biso   1.000  C
  C8       1.0000 0.47390  0.31020  0.31260  Biso   1.000  C
  Cu9      1.0000 0.90510  0.93470  0.34600  Biso   1.000  Cu
  Cu10     1.0000 0.40510  0.56530  0.65400  Biso   1.000  Cu
  Cu11     1.0000 0.09490  0.43470  0.15400  Biso   1.000  Cu
  Cu12     1.0000 0.59490  0.06530  0.84600  Biso   1.000  Cu
  Co1      1.0000 0.18890  0.24980  0.25190  Biso   1.000  Co
  Co2      1.0000 0.68890  0.25020  0.74810  Biso   1.000  Co
  Co3      1.0000 0.81110  0.74980  0.24810  Biso   1.000  Co
  Co4      1.0000 0.31110  0.75020  0.75190  Biso   1.000  Co
  S1       1.0000 0.19930  0.09580  0.22500  Biso   1.000  S
  S2       1.0000 0.69930  0.40420  0.77500  Biso   1.000  S
  S3       1.0000 0.80070  0.59580  0.27500  Biso   1.000  S
  S4       1.0000 0.30070  0.90420  0.72500  Biso   1.000  S
  S5       1.0000 0.27600  0.20880  0.38650  Biso   1.000  S
  S6       1.0000 0.77600  0.29120  0.61350  Biso   1.000  S
  S7       1.0000 0.72400  0.70880  0.11350  Biso   1.000  S
  S8       1.0000 0.22400  0.79120  0.88650  Biso   1.000  S
  C9       1.0000 0.26600  0.11100  0.33600  Biso   1.000  C
  C10      1.0000 0.76600  0.38900  0.66400  Biso   1.000  C
  C11      1.0000 0.73400  0.61100  0.16400  Biso   1.000  C
  C12      1.0000 0.23400  0.88900  0.83600  Biso   1.000  C
  N5       1.0000 0.30800  0.03100  0.35900  Biso   1.000  N
  N6       1.0000 0.80800  0.46900  0.64100  Biso   1.000  N
  N7       1.0000 0.69200  0.53100  0.14100  Biso   1.000  N
  N8       1.0000 0.19200  0.96900  0.85900  Biso   1.000  N
  C13      1.0000 0.29200  0.93100  0.32100  Biso   1.000  C
  C14      1.0000 0.79200  0.56900  0.67900  Biso   1.000  C
  C15      1.0000 0.70800  0.43100  0.17900  Biso   1.000  C
  C16      1.0000 0.20800  0.06900  0.82100  Biso   1.000  C
  C17      1.0000 0.34400  0.87400  0.39600  Biso   1.000  C
  C18      1.0000 0.84400  0.62600  0.60400  Biso   1.000  C
  C19      1.0000 0.65600  0.37400  0.10400  Biso   1.000  C
  C20      1.0000 0.15600  0.12600  0.89600  Biso   1.000  C
  C21      1.0000 0.40500  0.94000  0.43300  Biso   1.000  C
  C22      1.0000 0.90500  0.56000  0.56700  Biso   1.000  C
  C23      1.0000 0.59500  0.44000  0.06700  Biso   1.000  C
  C24      1.0000 0.09500  0.06000  0.93300  Biso   1.000  C
  C25      1.0000 0.37200  0.03600  0.44600  Biso   1.000  C
  C26      1.0000 0.87200  0.46400  0.55400  Biso   1.000  C
  C27      1.0000 0.62800  0.53600  0.05400  Biso   1.000  C
  C28      1.0000 0.12800  0.96400  0.94600  Biso   1.000  C
  S9       1.0000 0.08970  0.27100  0.13020  Biso   1.000  S
  S10      1.0000 0.58970  0.22900  0.86980  Biso   1.000  S
  S11      1.0000 0.91030  0.77100  0.36980  Biso   1.000  S
  S12      1.0000 0.41030  0.72900  0.63020  Biso   1.000  S
  S13      1.0000 0.08680  0.23320  0.37260  Biso   1.000  S
  S14      1.0000 0.58680  0.26680  0.62740  Biso   1.000  S
  S15      1.0000 0.91320  0.73320  0.12740  Biso   1.000  S
  S16      1.0000 0.41320  0.76680  0.87260  Biso   1.000  S
  C29      1.0000 0.03300  0.24500  0.25400  Biso   1.000  C
  C30      1.0000 0.53300  0.25500  0.74600  Biso   1.000  C
  C31      1.0000 0.96700  0.74500  0.24600  Biso   1.000  C
  C32      1.0000 0.46700  0.75500  0.75400  Biso   1.000  C
  N9       1.0000 0.96200  0.26000  0.24400  Biso   1.000  N
  N10      1.0000 0.46200  0.24000  0.75600  Biso   1.000  N
  N11      1.0000 0.03800  0.76000  0.25600  Biso   1.000  N
  N12      1.0000 0.53800  0.74000  0.74400  Biso   1.000  N
  C33      1.0000 0.91600  0.23800  0.34800  Biso   1.000  C
  C34      1.0000 0.41600  0.26200  0.65200  Biso   1.000  C
  C35      1.0000 0.08400  0.73800  0.15200  Biso   1.000  C
  C36      1.0000 0.58400  0.76200  0.84800  Biso   1.000  C
  C37      1.0000 0.83500  0.27300  0.30900  Biso   1.000  C
  C38      1.0000 0.33500  0.22700  0.69100  Biso   1.000  C
  C39      1.0000 0.16500  0.77300  0.19100  Biso   1.000  C
  C40      1.0000 0.66500  0.72700  0.80900  Biso   1.000  C
  C41      1.0000 0.83900  0.23700  0.18800  Biso   1.000  C
  C42      1.0000 0.33900  0.26300  0.81200  Biso   1.000  C
  C43      1.0000 0.16100  0.73700  0.31200  Biso   1.000  C
  C44      1.0000 0.66100  0.76300  0.68800  Biso   1.000  C
  C45      1.0000 0.91700  0.25100  0.14000  Biso   1.000  C
  C46      1.0000 0.41700  0.24900  0.86000  Biso   1.000  C
  C47      1.0000 0.08300  0.75100  0.36000  Biso   1.000  C
  C48      1.0000 0.58300  0.74900  0.64000  Biso   1.000  C
  S17      1.0000 0.27810  0.29090  0.12070  Biso   1.000  S
  S18      1.0000 0.77810  0.20910  0.87930  Biso   1.000  S
  S19      1.0000 0.72190  0.79090  0.37930  Biso   1.000  S
  S20      1.0000 0.22190  0.70910  0.62070  Biso   1.000  S
  S21      1.0000 0.20150  0.40540  0.27750  Biso   1.000  S
  S22      1.0000 0.70150  0.09460  0.72250  Biso   1.000  S
  S23      1.0000 0.79850  0.90540  0.22250  Biso   1.000  S
  S24      1.0000 0.29850  0.59460  0.77750  Biso   1.000  S
  C49      1.0000 0.26900  0.40400  0.17300  Biso   1.000  C
  C50      1.0000 0.76900  0.09600  0.82700  Biso   1.000  C
  C51      1.0000 0.73100  0.90400  0.32700  Biso   1.000  C
  C52      1.0000 0.23100  0.59600  0.67300  Biso   1.000  C
  N13      1.0000 0.30600  0.47400  0.13700  Biso   1.000  N
  N14      1.0000 0.80600  0.02600  0.86300  Biso   1.000  N
  N15      1.0000 0.69400  0.97400  0.36300  Biso   1.000  N
  N16      1.0000 0.19400  0.52600  0.63700  Biso   1.000  N
  C53      1.0000 0.36700  0.47600  0.05400  Biso   1.000  C
  C54      1.0000 0.86700  0.02400  0.94600  Biso   1.000  C
  C55      1.0000 0.63300  0.97600  0.44600  Biso   1.000  C
  C56      1.0000 0.13300  0.52400  0.55400  Biso   1.000  C
  C57      1.0000 0.40900  0.56300  0.08100  Biso   1.000  C
  C58      1.0000 0.90900  0.93700  0.91900  Biso   1.000  C
  C59      1.0000 0.59100  0.06300  0.41900  Biso   1.000  C
  C60      1.0000 0.09100  0.43700  0.58100  Biso   1.000  C
  C61      1.0000 0.34300  0.62900  0.10900  Biso   1.000  C
  C62      1.0000 0.84300  0.87100  0.89100  Biso   1.000  C
  C63      1.0000 0.65700  0.12900  0.39100  Biso   1.000  C
  C64      1.0000 0.15700  0.37100  0.60900  Biso   1.000  C
  C65      1.0000 0.29500  0.56300  0.18500  Biso   1.000  C
  C66      1.0000 0.79500  0.93700  0.81500  Biso   1.000  C
  C67      1.0000 0.70500  0.06300  0.31500  Biso   1.000  C
  C68      1.0000 0.20500  0.43700  0.68500  Biso   1.000  C
  H1       1.0000 0.07000  0.67200  0.83500  Biso   1.000  H
  H2       1.0000 0.57000  0.82800  0.16500  Biso   1.000  H
  H3       1.0000 0.93000  0.17200  0.66500  Biso   1.000  H
  H4       1.0000 0.43000  0.32800  0.33500  Biso   1.000  H
  H5       1.0000 0.00500  0.63200  0.77700  Biso   1.000  H
  H6       1.0000 0.50500  0.86800  0.22300  Biso   1.000  H
  H7       1.0000 0.99500  0.13200  0.72300  Biso   1.000  H
  H8       1.0000 0.49500  0.36800  0.27700  Biso   1.000  H
  H9       1.0000 0.99700  0.69600  0.88400  Biso   1.000  H
  H10      1.0000 0.49700  0.80400  0.11600  Biso   1.000  H
  H11      1.0000 0.00300  0.19600  0.61600  Biso   1.000  H
  H12      1.0000 0.50300  0.30400  0.38400  Biso   1.000  H
  H13      1.0000 0.24700  0.91600  0.32900  Biso   1.000  H
  H14      1.0000 0.74700  0.58400  0.67100  Biso   1.000  H
  H15      1.0000 0.75300  0.41600  0.17100  Biso   1.000  H
  H16      1.0000 0.25300  0.08400  0.82900  Biso   1.000  H
  H17      1.0000 0.31000  0.92500  0.23700  Biso   1.000  H
  H18      1.0000 0.81000  0.57500  0.76300  Biso   1.000  H
  H19      1.0000 0.69000  0.42500  0.26300  Biso   1.000  H
  H20      1.0000 0.19000  0.07500  0.73700  Biso   1.000  H
  H21      1.0000 0.32400  0.84800  0.45700  Biso   1.000  H
  H22      1.0000 0.82400  0.65200  0.54300  Biso   1.000  H
  H23      1.0000 0.67600  0.34800  0.04300  Biso   1.000  H
  H24      1.0000 0.17600  0.15200  0.95700  Biso   1.000  H
  H25      1.0000 0.36500  0.81700  0.34600  Biso   1.000  H
  H26      1.0000 0.86500  0.68300  0.65400  Biso   1.000  H
  H27      1.0000 0.63500  0.31700  0.15400  Biso   1.000  H
  H28      1.0000 0.13500  0.18300  0.84600  Biso   1.000  H
  H29      1.0000 0.44900  0.92300  0.47000  Biso   1.000  H
  H30      1.0000 0.94900  0.57700  0.53000  Biso   1.000  H
  H31      1.0000 0.55100  0.42300  0.03000  Biso   1.000  H
  H32      1.0000 0.05100  0.07700  0.97000  Biso   1.000  H
  H33      1.0000 0.44100  0.96100  0.34500  Biso   1.000  H
  H34      1.0000 0.94100  0.53900  0.65500  Biso   1.000  H
  H35      1.0000 0.55900  0.46100  0.15500  Biso   1.000  H
  H36      1.0000 0.05900  0.03900  0.84500  Biso   1.000  H
  H37      1.0000 0.35700  0.01100  0.53200  Biso   1.000  H
  H38      1.0000 0.85700  0.48900  0.46800  Biso   1.000  H
  H39      1.0000 0.64300  0.51100  0.96800  Biso   1.000  H
  H40      1.0000 0.14300  0.98900  0.03200  Biso   1.000  H
  H41      1.0000 0.40800  0.07500  0.45700  Biso   1.000  H
  H42      1.0000 0.90800  0.42500  0.54300  Biso   1.000  H
  H43      1.0000 0.59200  0.57500  0.04300  Biso   1.000  H
  H44      1.0000 0.09200  0.92500  0.95700  Biso   1.000  H
  H45      1.0000 0.91300  0.18000  0.37900  Biso   1.000  H
  H46      1.0000 0.41300  0.32000  0.62100  Biso   1.000  H
  H47      1.0000 0.08700  0.68000  0.12100  Biso   1.000  H
  H48      1.0000 0.58700  0.82000  0.87900  Biso   1.000  H
  H49      1.0000 0.92900  0.28300  0.40900  Biso   1.000  H
  H50      1.0000 0.42900  0.21700  0.59100  Biso   1.000  H
  H51      1.0000 0.07100  0.78300  0.09100  Biso   1.000  H
  H52      1.0000 0.57100  0.71700  0.90900  Biso   1.000  H
  H53      1.0000 0.80300  0.23800  0.35400  Biso   1.000  H
  H54      1.0000 0.30300  0.26200  0.64600  Biso   1.000  H
  H55      1.0000 0.19700  0.73800  0.14600  Biso   1.000  H
  H56      1.0000 0.69700  0.76200  0.85400  Biso   1.000  H
  H57      1.0000 0.83500  0.33200  0.31100  Biso   1.000  H
  H58      1.0000 0.33500  0.16800  0.68900  Biso   1.000  H
  H59      1.0000 0.16500  0.83200  0.18900  Biso   1.000  H
  H60      1.0000 0.66500  0.66800  0.81100  Biso   1.000  H
  H61      1.0000 0.82700  0.16800  0.17900  Biso   1.000  H
  H62      1.0000 0.32700  0.33200  0.82100  Biso   1.000  H
  H63      1.0000 0.17300  0.66800  0.32100  Biso   1.000  H
  H64      1.0000 0.67300  0.83200  0.67900  Biso   1.000  H
  H65      1.0000 0.79600  0.26300  0.14100  Biso   1.000  H
  H66      1.0000 0.29600  0.23700  0.85900  Biso   1.000  H
  H67      1.0000 0.20400  0.76300  0.35900  Biso   1.000  H
  H68      1.0000 0.70400  0.73700  0.64100  Biso   1.000  H
  H69      1.0000 0.94100  0.22400  0.07300  Biso   1.000  H
  H70      1.0000 0.44100  0.27600  0.92700  Biso   1.000  H
  H71      1.0000 0.05900  0.72400  0.42700  Biso   1.000  H
  H72      1.0000 0.55900  0.77600  0.57300  Biso   1.000  H
  H73      1.0000 0.92500  0.32600  0.10500  Biso   1.000  H
  H74      1.0000 0.42500  0.17400  0.89500  Biso   1.000  H
  H75      1.0000 0.07500  0.82600  0.39500  Biso   1.000  H
  H76      1.0000 0.57500  0.67400  0.60500  Biso   1.000  H
  H77      1.0000 0.40300  0.42200  0.07500  Biso   1.000  H
  H78      1.0000 0.90300  0.07800  0.92500  Biso   1.000  H
  H79      1.0000 0.59700  0.92200  0.42500  Biso   1.000  H
  H80      1.0000 0.09700  0.57800  0.57500  Biso   1.000  H
  H81      1.0000 0.34800  0.45700  0.98000  Biso   1.000  H
  H82      1.0000 0.84800  0.04300  0.02000  Biso   1.000  H
  H83      1.0000 0.65200  0.95700  0.52000  Biso   1.000  H
  H84      1.0000 0.15200  0.54300  0.48000  Biso   1.000  H
  H85      1.0000 0.44600  0.57100  0.11500  Biso   1.000  H
  H86      1.0000 0.94600  0.92900  0.88500  Biso   1.000  H
  H87      1.0000 0.55400  0.07100  0.38500  Biso   1.000  H
  H88      1.0000 0.05400  0.42900  0.61500  Biso   1.000  H
  H89      1.0000 0.42700  0.58500  0.98400  Biso   1.000  H
  H90      1.0000 0.92700  0.91500  0.01600  Biso   1.000  H
  H91      1.0000 0.57300  0.08500  0.51600  Biso   1.000  H
  H92      1.0000 0.07300  0.41500  0.48400  Biso   1.000  H
  H93      1.0000 0.35900  0.67800  0.12300  Biso   1.000  H
  H94      1.0000 0.85900  0.82200  0.87700  Biso   1.000  H
  H95      1.0000 0.64100  0.17800  0.37700  Biso   1.000  H
  H96      1.0000 0.14100  0.32200  0.62300  Biso   1.000  H
  H97      1.0000 0.31300  0.63200  0.02300  Biso   1.000  H
  H98      1.0000 0.81300  0.86800  0.97700  Biso   1.000  H
  H99      1.0000 0.68700  0.13200  0.47700  Biso   1.000  H
  H100     1.0000 0.18700  0.36800  0.52300  Biso   1.000  H
  H101     1.0000 0.31100  0.58300  0.25600  Biso   1.000  H
  H102     1.0000 0.81100  0.91700  0.74400  Biso   1.000  H
  H103     1.0000 0.68900  0.08300  0.24400  Biso   1.000  H
  H104     1.0000 0.18900  0.41700  0.75600  Biso   1.000  H
  H105     1.0000 0.24200  0.58900  0.17200  Biso   1.000  H
  H106     1.0000 0.74200  0.91100  0.82800  Biso   1.000  H
  H107     1.0000 0.75800  0.08900  0.32800  Biso   1.000  H
  H108     1.0000 0.25800  0.41100  0.67200  Biso   1.000  H
