data_image0
_cell_length_a       13.5662
_cell_length_b       13.5662
_cell_length_c       20.1867
_cell_angle_alpha    90
_cell_angle_beta     90
_cell_angle_gamma    120

_symmetry_space_group_name_H-M    "P 1"
_symmetry_int_tables_number       1

loop_
  _symmetry_equiv_pos_as_xyz
  'x, y, z'

loop_
  _atom_site_label
  _atom_site_occupancy
  _atom_site_fract_x
  _atom_site_fract_y
  _atom_site_fract_z
  _atom_site_thermal_displace_type
  _atom_site_B_iso_or_equiv
  _atom_site_type_symbol
  I1       1.0000 0.00000  0.00000  0.50004  Biso   1.000  I
  I2       1.0000 0.00000  0.00000  0.00004  Biso   1.000  I
  I3       1.0000 0.31191  0.33999  0.52284  Biso   1.000  I
  I4       1.0000 0.68809  0.66001  0.02284  Biso   1.000  I
  I5       1.0000 0.66001  0.97192  0.52284  Biso   1.000  I
  I6       1.0000 0.33999  0.02808  0.02284  Biso   1.000  I
  I7       1.0000 0.02808  0.68809  0.52284  Biso   1.000  I
  I8       1.0000 0.97192  0.31191  0.02284  Biso   1.000  I
  I9       1.0000 0.33330  0.66670  0.53549  Biso   1.000  I
  I10      1.0000 0.66670  0.33330  0.03549  Biso   1.000  I
  Cu1      1.0000 0.17328  0.14147  0.57830  Biso   1.000  Cu
  Cu2      1.0000 0.82672  0.85853  0.07830  Biso   1.000  Cu
  Cu3      1.0000 0.85853  0.03181  0.57830  Biso   1.000  Cu
  Cu4      1.0000 0.14147  0.96819  0.07830  Biso   1.000  Cu
  Cu5      1.0000 0.96819  0.82672  0.57830  Biso   1.000  Cu
  Cu6      1.0000 0.03181  0.17328  0.07830  Biso   1.000  Cu
  Cu7      1.0000 0.27525  0.48959  0.45981  Biso   1.000  Cu
  Cu8      1.0000 0.72475  0.51041  0.95981  Biso   1.000  Cu
  Cu9      1.0000 0.51041  0.78566  0.45981  Biso   1.000  Cu
  Cu10     1.0000 0.48959  0.21434  0.95981  Biso   1.000  Cu
  Cu11     1.0000 0.21434  0.72475  0.45981  Biso   1.000  Cu
  Cu12     1.0000 0.78566  0.27525  0.95981  Biso   1.000  Cu
  S1       1.0000 0.55564  0.15297  0.86946  Biso   1.000  S
  S2       1.0000 0.44436  0.84703  0.36946  Biso   1.000  S
  S3       1.0000 0.84703  0.40267  0.86946  Biso   1.000  S
  S4       1.0000 0.15297  0.59733  0.36946  Biso   1.000  S
  S5       1.0000 0.59733  0.44436  0.86946  Biso   1.000  S
  S6       1.0000 0.40267  0.55564  0.36946  Biso   1.000  S
  S7       1.0000 0.08514  0.17796  0.66662  Biso   1.000  S
  S8       1.0000 0.91486  0.82204  0.16662  Biso   1.000  S
  S9       1.0000 0.82204  0.90718  0.66662  Biso   1.000  S
  S10      1.0000 0.17796  0.09282  0.16662  Biso   1.000  S
  S11      1.0000 0.09282  0.91486  0.66662  Biso   1.000  S
  S12      1.0000 0.90718  0.08514  0.16662  Biso   1.000  S
  N1       1.0000 0.70040  0.10980  0.93100  Biso   1.000  N
  N2       1.0000 0.29960  0.89020  0.43100  Biso   1.000  N
  N3       1.0000 0.89020  0.59060  0.93100  Biso   1.000  N
  N4       1.0000 0.10980  0.40940  0.43100  Biso   1.000  N
  N5       1.0000 0.40940  0.29960  0.93100  Biso   1.000  N
  N6       1.0000 0.59060  0.70040  0.43100  Biso   1.000  N
  N7       1.0000 0.54530  0.95170  0.87610  Biso   1.000  N
  N8       1.0000 0.45470  0.04830  0.37610  Biso   1.000  N
  N9       1.0000 0.04830  0.59360  0.87610  Biso   1.000  N
  N10      1.0000 0.95170  0.40640  0.37610  Biso   1.000  N
  N11      1.0000 0.40640  0.45470  0.87610  Biso   1.000  N
  N12      1.0000 0.59360  0.54530  0.37610  Biso   1.000  N
  N13      1.0000 0.08550  0.37190  0.64710  Biso   1.000  N
  N14      1.0000 0.91450  0.62810  0.14710  Biso   1.000  N
  N15      1.0000 0.62810  0.71360  0.64710  Biso   1.000  N
  N16      1.0000 0.37190  0.28640  0.14710  Biso   1.000  N
  N17      1.0000 0.28640  0.91450  0.64710  Biso   1.000  N
  N18      1.0000 0.71360  0.08550  0.14710  Biso   1.000  N
  N19      1.0000 0.93110  0.20110  0.60150  Biso   1.000  N
  N20      1.0000 0.06890  0.79890  0.10150  Biso   1.000  N
  N21      1.0000 0.79890  0.73000  0.60150  Biso   1.000  N
  N22      1.0000 0.20110  0.27000  0.10150  Biso   1.000  N
  N23      1.0000 0.27000  0.06890  0.60150  Biso   1.000  N
  N24      1.0000 0.73000  0.93110  0.10150  Biso   1.000  N
  C1       1.0000 0.74290  0.04070  0.94560  Biso   1.000  C
  C2       1.0000 0.25710  0.95930  0.44560  Biso   1.000  C
  C3       1.0000 0.95930  0.70220  0.94560  Biso   1.000  C
  C4       1.0000 0.04070  0.29780  0.44560  Biso   1.000  C
  C5       1.0000 0.29780  0.25710  0.94560  Biso   1.000  C
  C6       1.0000 0.70220  0.74290  0.44560  Biso   1.000  C
  H1       1.0000 0.81180  0.07160  0.96820  Biso   1.000  H
  H2       1.0000 0.18820  0.92840  0.46820  Biso   1.000  H
  H3       1.0000 0.92840  0.74020  0.96820  Biso   1.000  H
  H4       1.0000 0.07160  0.25980  0.46820  Biso   1.000  H
  H5       1.0000 0.25980  0.18820  0.96820  Biso   1.000  H
  H6       1.0000 0.74020  0.81180  0.46820  Biso   1.000  H
  C7       1.0000 0.68970  0.92820  0.92880  Biso   1.000  C
  C8       1.0000 0.31030  0.07180  0.42880  Biso   1.000  C
  C9       1.0000 0.07180  0.76150  0.92880  Biso   1.000  C
  C10      1.0000 0.92820  0.23850  0.42880  Biso   1.000  C
  C11      1.0000 0.23850  0.31030  0.92880  Biso   1.000  C
  C12      1.0000 0.76150  0.68970  0.42880  Biso   1.000  C
  H7       1.0000 0.72070  0.88270  0.93960  Biso   1.000  H
  H8       1.0000 0.27930  0.11730  0.43960  Biso   1.000  H
  H9       1.0000 0.11730  0.83800  0.93960  Biso   1.000  H
  H10      1.0000 0.88270  0.16200  0.43960  Biso   1.000  H
  H11      1.0000 0.16200  0.27930  0.93960  Biso   1.000  H
  H12      1.0000 0.83800  0.72070  0.43960  Biso   1.000  H
  C13      1.0000 0.58500  0.88380  0.89420  Biso   1.000  C
  C14      1.0000 0.41500  0.11620  0.39420  Biso   1.000  C
  C15      1.0000 0.11620  0.70120  0.89420  Biso   1.000  C
  C16      1.0000 0.88380  0.29880  0.39420  Biso   1.000  C
  C17      1.0000 0.29880  0.41500  0.89420  Biso   1.000  C
  C18      1.0000 0.70120  0.58500  0.39420  Biso   1.000  C
  H13      1.0000 0.54380  0.80660  0.88410  Biso   1.000  H
  H14      1.0000 0.45620  0.19340  0.38410  Biso   1.000  H
  H15      1.0000 0.19340  0.73720  0.88410  Biso   1.000  H
  H16      1.0000 0.80660  0.26280  0.38410  Biso   1.000  H
  H17      1.0000 0.26280  0.45620  0.88410  Biso   1.000  H
  H18      1.0000 0.73720  0.54380  0.38410  Biso   1.000  H
  C19      1.0000 0.60430  0.06130  0.89520  Biso   1.000  C
  C20      1.0000 0.39570  0.93870  0.39520  Biso   1.000  C
  C21      1.0000 0.93870  0.54300  0.89520  Biso   1.000  C
  C22      1.0000 0.06130  0.45700  0.39520  Biso   1.000  C
  C23      1.0000 0.45700  0.39570  0.89520  Biso   1.000  C
  C24      1.0000 0.54300  0.60430  0.39520  Biso   1.000  C
  C25      1.0000 0.43040  0.05140  0.82280  Biso   1.000  C
  C26      1.0000 0.56960  0.94860  0.32280  Biso   1.000  C
  C27      1.0000 0.94860  0.37900  0.82280  Biso   1.000  C
  C28      1.0000 0.05140  0.62100  0.32280  Biso   1.000  C
  C29      1.0000 0.62100  0.56960  0.82280  Biso   1.000  C
  C30      1.0000 0.37900  0.43040  0.32280  Biso   1.000  C
  H19      1.0000 0.45260  0.02000  0.78630  Biso   1.000  H
  H20      1.0000 0.54740  0.98000  0.28630  Biso   1.000  H
  H21      1.0000 0.98000  0.43260  0.78630  Biso   1.000  H
  H22      1.0000 0.02000  0.56740  0.28630  Biso   1.000  H
  H23      1.0000 0.56740  0.54740  0.78630  Biso   1.000  H
  H24      1.0000 0.43260  0.45260  0.28630  Biso   1.000  H
  H25      1.0000 0.37850  0.98940  0.85120  Biso   1.000  H
  H26      1.0000 0.62150  0.01060  0.35120  Biso   1.000  H
  H27      1.0000 0.01060  0.38910  0.85120  Biso   1.000  H
  H28      1.0000 0.98940  0.61090  0.35120  Biso   1.000  H
  H29      1.0000 0.61090  0.62150  0.85120  Biso   1.000  H
  H30      1.0000 0.38910  0.37850  0.35120  Biso   1.000  H
  C31      1.0000 0.37230  0.11670  0.79610  Biso   1.000  C
  C32      1.0000 0.62770  0.88330  0.29610  Biso   1.000  C
  C33      1.0000 0.88330  0.25560  0.79610  Biso   1.000  C
  C34      1.0000 0.11670  0.74440  0.29610  Biso   1.000  C
  C35      1.0000 0.74440  0.62770  0.79610  Biso   1.000  C
  C36      1.0000 0.25560  0.37230  0.29610  Biso   1.000  C
  C37      1.0000 0.26770  0.08890  0.81770  Biso   1.000  C
  C38      1.0000 0.73230  0.91110  0.31770  Biso   1.000  C
  C39      1.0000 0.91110  0.17880  0.81770  Biso   1.000  C
  C40      1.0000 0.08890  0.82120  0.31770  Biso   1.000  C
  C41      1.0000 0.82120  0.73230  0.81770  Biso   1.000  C
  C42      1.0000 0.17880  0.26770  0.31770  Biso   1.000  C
  H31      1.0000 0.23290  0.03280  0.84990  Biso   1.000  H
  H32      1.0000 0.76710  0.96720  0.34990  Biso   1.000  H
  H33      1.0000 0.96720  0.20010  0.84990  Biso   1.000  H
  H34      1.0000 0.03280  0.79990  0.34990  Biso   1.000  H
  H35      1.0000 0.79990  0.76710  0.84990  Biso   1.000  H
  H36      1.0000 0.20010  0.23290  0.34990  Biso   1.000  H
  C43      1.0000 0.21110  0.14150  0.79320  Biso   1.000  C
  C44      1.0000 0.78890  0.85850  0.29320  Biso   1.000  C
  C45      1.0000 0.85850  0.06960  0.79320  Biso   1.000  C
  C46      1.0000 0.14150  0.93040  0.29320  Biso   1.000  C
  C47      1.0000 0.93040  0.78890  0.79320  Biso   1.000  C
  C48      1.0000 0.06960  0.21110  0.29320  Biso   1.000  C
  H37      1.0000 0.13820  0.11950  0.80840  Biso   1.000  H
  H38      1.0000 0.86180  0.88050  0.30840  Biso   1.000  H
  H39      1.0000 0.88050  0.01870  0.80840  Biso   1.000  H
  H40      1.0000 0.11950  0.98130  0.30840  Biso   1.000  H
  H41      1.0000 0.98130  0.86180  0.80840  Biso   1.000  H
  H42      1.0000 0.01870  0.13820  0.30840  Biso   1.000  H
  C49      1.0000 0.26060  0.22530  0.74690  Biso   1.000  C
  C50      1.0000 0.73940  0.77470  0.24690  Biso   1.000  C
  C51      1.0000 0.77470  0.03530  0.74690  Biso   1.000  C
  C52      1.0000 0.22530  0.96470  0.24690  Biso   1.000  C
  C53      1.0000 0.96470  0.73940  0.74690  Biso   1.000  C
  C54      1.0000 0.03530  0.26060  0.24690  Biso   1.000  C
  C55      1.0000 0.37030  0.25510  0.72440  Biso   1.000  C
  C56      1.0000 0.62970  0.74490  0.22440  Biso   1.000  C
  C57      1.0000 0.74490  0.11520  0.72440  Biso   1.000  C
  C58      1.0000 0.25510  0.88480  0.22440  Biso   1.000  C
  C59      1.0000 0.88480  0.62970  0.72440  Biso   1.000  C
  C60      1.0000 0.11520  0.37030  0.22440  Biso   1.000  C
  H43      1.0000 0.40570  0.31190  0.69250  Biso   1.000  H
  H44      1.0000 0.59430  0.68810  0.19250  Biso   1.000  H
  H45      1.0000 0.68810  0.09380  0.69250  Biso   1.000  H
  H46      1.0000 0.31190  0.90620  0.19250  Biso   1.000  H
  H47      1.0000 0.90620  0.59430  0.69250  Biso   1.000  H
  H48      1.0000 0.09380  0.40570  0.19250  Biso   1.000  H
  C61      1.0000 0.42560  0.20160  0.74880  Biso   1.000  C
  C62      1.0000 0.57440  0.79840  0.24880  Biso   1.000  C
  C63      1.0000 0.79840  0.22400  0.74880  Biso   1.000  C
  C64      1.0000 0.20160  0.77600  0.24880  Biso   1.000  C
  C65      1.0000 0.77600  0.57440  0.74880  Biso   1.000  C
  C66      1.0000 0.22400  0.42560  0.24880  Biso   1.000  C
  H49      1.0000 0.49820  0.22200  0.73390  Biso   1.000  H
  H50      1.0000 0.50180  0.77800  0.23390  Biso   1.000  H
  H51      1.0000 0.77800  0.27620  0.73390  Biso   1.000  H
  H52      1.0000 0.22200  0.72380  0.23390  Biso   1.000  H
  H53      1.0000 0.72380  0.50180  0.73390  Biso   1.000  H
  H54      1.0000 0.27620  0.49820  0.23390  Biso   1.000  H
  C67      1.0000 0.20040  0.28230  0.71760  Biso   1.000  C
  C68      1.0000 0.79960  0.71770  0.21760  Biso   1.000  C
  C69      1.0000 0.71770  0.91810  0.71760  Biso   1.000  C
  C70      1.0000 0.28230  0.08190  0.21760  Biso   1.000  C
  C71      1.0000 0.08190  0.79960  0.71760  Biso   1.000  C
  C72      1.0000 0.91810  0.20040  0.21760  Biso   1.000  C
  H55      1.0000 0.25270  0.34690  0.69090  Biso   1.000  H
  H56      1.0000 0.74730  0.65310  0.19090  Biso   1.000  H
  H57      1.0000 0.65310  0.90580  0.69090  Biso   1.000  H
  H58      1.0000 0.34690  0.09420  0.19090  Biso   1.000  H
  H59      1.0000 0.09420  0.74730  0.69090  Biso   1.000  H
  H60      1.0000 0.90580  0.25270  0.19090  Biso   1.000  H
  H61      1.0000 0.17050  0.30910  0.75250  Biso   1.000  H
  H62      1.0000 0.82950  0.69090  0.25250  Biso   1.000  H
  H63      1.0000 0.69090  0.86140  0.75250  Biso   1.000  H
  H64      1.0000 0.30910  0.13860  0.25250  Biso   1.000  H
  H65      1.0000 0.13860  0.82950  0.75250  Biso   1.000  H
  H66      1.0000 0.86140  0.17050  0.25250  Biso   1.000  H
  C73      1.0000 0.02870  0.25920  0.63530  Biso   1.000  C
  C74      1.0000 0.97130  0.74080  0.13530  Biso   1.000  C
  C75      1.0000 0.74080  0.76950  0.63530  Biso   1.000  C
  C76      1.0000 0.25920  0.23050  0.13530  Biso   1.000  C
  C77      1.0000 0.23050  0.97130  0.63530  Biso   1.000  C
  C78      1.0000 0.76950  0.02870  0.13530  Biso   1.000  C
  C79      1.0000 0.03610  0.42870  0.62290  Biso   1.000  C
  C80      1.0000 0.96390  0.57130  0.12290  Biso   1.000  C
  C81      1.0000 0.57130  0.60740  0.62290  Biso   1.000  C
  C82      1.0000 0.42870  0.39260  0.12290  Biso   1.000  C
  C83      1.0000 0.39260  0.96390  0.62290  Biso   1.000  C
  C84      1.0000 0.60740  0.03610  0.12290  Biso   1.000  C
  H67      1.0000 0.07260  0.50710  0.62920  Biso   1.000  H
  H68      1.0000 0.92740  0.49290  0.12920  Biso   1.000  H
  H69      1.0000 0.49290  0.56550  0.62920  Biso   1.000  H
  H70      1.0000 0.50710  0.43450  0.12920  Biso   1.000  H
  H71      1.0000 0.43450  0.92740  0.62920  Biso   1.000  H
  H72      1.0000 0.56550  0.07260  0.12920  Biso   1.000  H
  C85      1.0000 0.93380  0.37690  0.58890  Biso   1.000  C
  C86      1.0000 0.06620  0.62310  0.08890  Biso   1.000  C
  C87      1.0000 0.62310  0.55690  0.58890  Biso   1.000  C
  C88      1.0000 0.37690  0.44310  0.08890  Biso   1.000  C
  C89      1.0000 0.44310  0.06620  0.58890  Biso   1.000  C
  C90      1.0000 0.55690  0.93380  0.08890  Biso   1.000  C
  H73      1.0000 0.90080  0.41830  0.57330  Biso   1.000  H
  H74      1.0000 0.09920  0.58170  0.07330  Biso   1.000  H
  H75      1.0000 0.58170  0.48250  0.57330  Biso   1.000  H
  H76      1.0000 0.41830  0.51750  0.07330  Biso   1.000  H
  H77      1.0000 0.51750  0.09920  0.57330  Biso   1.000  H
  H78      1.0000 0.48250  0.90080  0.07330  Biso   1.000  H
  C91      1.0000 0.88340  0.26140  0.57920  Biso   1.000  C
  C92      1.0000 0.11660  0.73860  0.07920  Biso   1.000  C
  C93      1.0000 0.73860  0.62200  0.57920  Biso   1.000  C
  C94      1.0000 0.26140  0.37800  0.07920  Biso   1.000  C
  C95      1.0000 0.37800  0.11660  0.57920  Biso   1.000  C
  C96      1.0000 0.62200  0.88340  0.07920  Biso   1.000  C
  H79      1.0000 0.81450  0.22380  0.55660  Biso   1.000  H
  H80      1.0000 0.18550  0.77620  0.05660  Biso   1.000  H
  H81      1.0000 0.77620  0.59070  0.55660  Biso   1.000  H
  H82      1.0000 0.22380  0.40930  0.05660  Biso   1.000  H
  H83      1.0000 0.40930  0.18550  0.55660  Biso   1.000  H
  H84      1.0000 0.59070  0.81450  0.05660  Biso   1.000  H
  F1       1.0000 0.66670  0.33330  0.57850  Biso   1.000  F
  F2       1.0000 0.33330  0.66670  0.07850  Biso   1.000  F
  F3       1.0000 0.66890  0.24170  0.49310  Biso   1.000  F
  F4       1.0000 0.33110  0.75830  0.99310  Biso   1.000  F
  F5       1.0000 0.75830  0.42720  0.49310  Biso   1.000  F
  F6       1.0000 0.24170  0.57280  0.99310  Biso   1.000  F
  F7       1.0000 0.57280  0.33110  0.49310  Biso   1.000  F
  F8       1.0000 0.42720  0.66890  0.99310  Biso   1.000  F
  B1       1.0000 0.66670  0.33330  0.50990  Biso   1.000  B
  B2       1.0000 0.33330  0.66670  0.00990  Biso   1.000  B
  O1       1.0000 0.66670  0.33330  0.25200  Biso   1.000  O
  O2       1.0000 0.33330  0.66670  0.75200  Biso   1.000  O
