data_image0
_cell_length_a       9.868
_cell_length_b       16.825
_cell_length_c       9.247
_cell_angle_alpha    90
_cell_angle_beta     90.79
_cell_angle_gamma    90

_symmetry_space_group_name_H-M    "P 1"
_symmetry_int_tables_number       1

loop_
  _symmetry_equiv_pos_as_xyz
  'x, y, z'

loop_
  _atom_site_label
  _atom_site_occupancy
  _atom_site_fract_x
  _atom_site_fract_y
  _atom_site_fract_z
  _atom_site_thermal_displace_type
  _atom_site_B_iso_or_equiv
  _atom_site_type_symbol
  Cu1      1.0000 0.25183  0.20944  0.05364  Biso   1.000  Cu
  Cu2      1.0000 0.24817  0.70944  0.44636  Biso   1.000  Cu
  Cu3      1.0000 0.74817  0.79056  0.94636  Biso   1.000  Cu
  Cu4      1.0000 0.75183  0.29056  0.55364  Biso   1.000  Cu
  Cl1      1.0000 0.37820  0.16275  0.86190  Biso   1.000  Cl
  Cl2      1.0000 0.12180  0.66275  0.63810  Biso   1.000  Cl
  Cl3      1.0000 0.62180  0.83725  0.13810  Biso   1.000  Cl
  Cl4      1.0000 0.87820  0.33725  0.36190  Biso   1.000  Cl
  N1       1.0000 0.31240  0.13970  0.22210  Biso   1.000  N
  N2       1.0000 0.18760  0.63970  0.27790  Biso   1.000  N
  N3       1.0000 0.68760  0.86030  0.77790  Biso   1.000  N
  N4       1.0000 0.81240  0.36030  0.72210  Biso   1.000  N
  C1       1.0000 0.27370  0.15090  0.36200  Biso   1.000  C
  C2       1.0000 0.22630  0.65090  0.13800  Biso   1.000  C
  C3       1.0000 0.72630  0.84910  0.63800  Biso   1.000  C
  C4       1.0000 0.77370  0.34910  0.86200  Biso   1.000  C
  C5       1.0000 0.21380  0.22730  0.39650  Biso   1.000  C
  C6       1.0000 0.28620  0.72730  0.10350  Biso   1.000  C
  C7       1.0000 0.78620  0.77270  0.60350  Biso   1.000  C
  C8       1.0000 0.71380  0.27270  0.89650  Biso   1.000  C
  H1       1.0000 0.21500  0.27100  0.33100  Biso   1.000  H
  H2       1.0000 0.28500  0.77100  0.16900  Biso   1.000  H
  H3       1.0000 0.78500  0.72900  0.66900  Biso   1.000  H
  H4       1.0000 0.71500  0.22900  0.83100  Biso   1.000  H
  C9       1.0000 0.16990  0.24930  0.53180  Biso   1.000  C
  C10      1.0000 0.33010  0.74930  0.96820  Biso   1.000  C
  C11      1.0000 0.83010  0.75070  0.46820  Biso   1.000  C
  C12      1.0000 0.66990  0.25070  0.03180  Biso   1.000  C
  H5       1.0000 0.18200  0.21500  0.60400  Biso   1.000  H
  H6       1.0000 0.31800  0.71500  0.89600  Biso   1.000  H
  H7       1.0000 0.81800  0.78500  0.39600  Biso   1.000  H
  H8       1.0000 0.68200  0.28500  0.10400  Biso   1.000  H
  H9       1.0000 0.15600  0.30500  0.54500  Biso   1.000  H
  H10      1.0000 0.34400  0.80500  0.95500  Biso   1.000  H
  H11      1.0000 0.84400  0.69500  0.45500  Biso   1.000  H
  H12      1.0000 0.65600  0.19500  0.04500  Biso   1.000  H
  C13      1.0000 0.29360  0.09080  0.46380  Biso   1.000  C
  C14      1.0000 0.20640  0.59080  0.03620  Biso   1.000  C
  C15      1.0000 0.70640  0.90920  0.53620  Biso   1.000  C
  C16      1.0000 0.79360  0.40920  0.96380  Biso   1.000  C
  H13      1.0000 0.27400  0.09900  0.55200  Biso   1.000  H
  H14      1.0000 0.22600  0.59900  0.94800  Biso   1.000  H
  H15      1.0000 0.72600  0.90100  0.44800  Biso   1.000  H
  H16      1.0000 0.77400  0.40100  0.05200  Biso   1.000  H
  C17      1.0000 0.34890  0.02020  0.42440  Biso   1.000  C
  C18      1.0000 0.15110  0.52020  0.07560  Biso   1.000  C
  C19      1.0000 0.65110  0.97980  0.57560  Biso   1.000  C
  C20      1.0000 0.84890  0.47980  0.92440  Biso   1.000  C
  H17      1.0000 0.36900  0.98100  0.48900  Biso   1.000  H
  H18      1.0000 0.13100  0.48100  0.01100  Biso   1.000  H
  H19      1.0000 0.63100  0.01900  0.51100  Biso   1.000  H
  H20      1.0000 0.86900  0.51900  0.98900  Biso   1.000  H
  C21      1.0000 0.39590  0.01010  0.28470  Biso   1.000  C
  C22      1.0000 0.10410  0.51010  0.21530  Biso   1.000  C
  C23      1.0000 0.60410  0.98990  0.71530  Biso   1.000  C
  C24      1.0000 0.89590  0.48990  0.78470  Biso   1.000  C
  H21      1.0000 0.43600  0.96600  0.26200  Biso   1.000  H
  H22      1.0000 0.06400  0.46600  0.23800  Biso   1.000  H
  H23      1.0000 0.56400  0.03400  0.73800  Biso   1.000  H
  H24      1.0000 0.93600  0.53400  0.76200  Biso   1.000  H
  C25      1.0000 0.37370  0.07130  0.18960  Biso   1.000  C
  C26      1.0000 0.12630  0.57130  0.31040  Biso   1.000  C
  C27      1.0000 0.62630  0.92870  0.81040  Biso   1.000  C
  C28      1.0000 0.87370  0.42870  0.68960  Biso   1.000  C
  H25      1.0000 0.39500  0.06600  0.10100  Biso   1.000  H
  H26      1.0000 0.10500  0.56600  0.39900  Biso   1.000  H
  H27      1.0000 0.60500  0.93400  0.89900  Biso   1.000  H
  H28      1.0000 0.89500  0.43400  0.60100  Biso   1.000  H
  Cu5      1.0000 0.50795  0.29372  0.91528  Biso   1.000  Cu
  Cu6      1.0000 0.99205  0.79372  0.58472  Biso   1.000  Cu
  Cu7      1.0000 0.49205  0.70628  0.08472  Biso   1.000  Cu
  Cu8      1.0000 0.00795  0.20628  0.41528  Biso   1.000  Cu
  Cl5      1.0000 0.37820  0.33921  0.10265  Biso   1.000  Cl
  Cl6      1.0000 0.12180  0.83921  0.39735  Biso   1.000  Cl
  Cl7      1.0000 0.62180  0.66079  0.89735  Biso   1.000  Cl
  Cl8      1.0000 0.87820  0.16079  0.60265  Biso   1.000  Cl
  N5       1.0000 0.44800  0.35790  0.74150  Biso   1.000  N
  N6       1.0000 0.05200  0.85790  0.75850  Biso   1.000  N
  N7       1.0000 0.55200  0.64210  0.25850  Biso   1.000  N
  N8       1.0000 0.94800  0.14210  0.24150  Biso   1.000  N
  C29      1.0000 0.47060  0.33890  0.60210  Biso   1.000  C
  C30      1.0000 0.02940  0.83890  0.89790  Biso   1.000  C
  C31      1.0000 0.52940  0.66110  0.39790  Biso   1.000  C
  C32      1.0000 0.97060  0.16110  0.10210  Biso   1.000  C
  C33      1.0000 0.04270  0.23410  0.07360  Biso   1.000  C
  C34      1.0000 0.45730  0.73410  0.42640  Biso   1.000  C
  C35      1.0000 0.95730  0.76590  0.92640  Biso   1.000  C
  C36      1.0000 0.54270  0.26590  0.57360  Biso   1.000  C
  H29      1.0000 0.03900  0.27300  0.14400  Biso   1.000  H
  H30      1.0000 0.46100  0.77300  0.35600  Biso   1.000  H
  H31      1.0000 0.96100  0.72700  0.85600  Biso   1.000  H
  H32      1.0000 0.53900  0.22700  0.64400  Biso   1.000  H
  C37      1.0000 0.08780  0.25830  0.94020  Biso   1.000  C
  C38      1.0000 0.41220  0.75830  0.55980  Biso   1.000  C
  C39      1.0000 0.91220  0.74170  0.05980  Biso   1.000  C
  C40      1.0000 0.58780  0.24170  0.44020  Biso   1.000  C
  H33      1.0000 0.07400  0.22400  0.86400  Biso   1.000  H
  H34      1.0000 0.42600  0.72400  0.63600  Biso   1.000  H
  H35      1.0000 0.92600  0.77600  0.13600  Biso   1.000  H
  H36      1.0000 0.57400  0.27600  0.36400  Biso   1.000  H
  H37      1.0000 0.12300  0.31200  0.93700  Biso   1.000  H
  H38      1.0000 0.37700  0.81200  0.56300  Biso   1.000  H
  H39      1.0000 0.87700  0.68800  0.06300  Biso   1.000  H
  H40      1.0000 0.62300  0.18800  0.43700  Biso   1.000  H
  C41      1.0000 0.42340  0.38910  0.49100  Biso   1.000  C
  C42      1.0000 0.07660  0.88910  0.00900  Biso   1.000  C
  C43      1.0000 0.57660  0.61090  0.50900  Biso   1.000  C
  C44      1.0000 0.92340  0.11090  0.99100  Biso   1.000  C
  H41      1.0000 0.44800  0.36800  0.39800  Biso   1.000  H
  H42      1.0000 0.05200  0.86800  0.10200  Biso   1.000  H
  H43      1.0000 0.55200  0.63200  0.60200  Biso   1.000  H
  H44      1.0000 0.94800  0.13200  0.89800  Biso   1.000  H
  C45      1.0000 0.35590  0.45680  0.52430  Biso   1.000  C
  C46      1.0000 0.14410  0.95680  0.97570  Biso   1.000  C
  C47      1.0000 0.64410  0.54320  0.47570  Biso   1.000  C
  C48      1.0000 0.85590  0.04320  0.02430  Biso   1.000  C
  H45      1.0000 0.32200  0.48900  0.44800  Biso   1.000  H
  H46      1.0000 0.17800  0.98900  0.05200  Biso   1.000  H
  H47      1.0000 0.67800  0.51100  0.55200  Biso   1.000  H
  H48      1.0000 0.82200  0.01100  0.94800  Biso   1.000  H
  C49      1.0000 0.33110  0.47490  0.66390  Biso   1.000  C
  C50      1.0000 0.16890  0.97490  0.83610  Biso   1.000  C
  C51      1.0000 0.66890  0.52510  0.33610  Biso   1.000  C
  C52      1.0000 0.83110  0.02510  0.16390  Biso   1.000  C
  H49      1.0000 0.29000  0.52300  0.68500  Biso   1.000  H
  H50      1.0000 0.21000  0.02300  0.81500  Biso   1.000  H
  H51      1.0000 0.71000  0.47700  0.31500  Biso   1.000  H
  H52      1.0000 0.79000  0.97700  0.18500  Biso   1.000  H
  C53      1.0000 0.38010  0.42470  0.76750  Biso   1.000  C
  C54      1.0000 0.11990  0.92470  0.73250  Biso   1.000  C
  C55      1.0000 0.61990  0.57530  0.23250  Biso   1.000  C
  C56      1.0000 0.88010  0.07530  0.26750  Biso   1.000  C
  H53      1.0000 0.36100  0.42900  0.85700  Biso   1.000  H
  H54      1.0000 0.13900  0.92900  0.64300  Biso   1.000  H
  H55      1.0000 0.63900  0.57100  0.14300  Biso   1.000  H
  H56      1.0000 0.86100  0.07100  0.35700  Biso   1.000  H
