data_image0
_cell_length_a       4.195
_cell_length_b       14.11
_cell_length_c       14.27
_cell_angle_alpha    90
_cell_angle_beta     99.2
_cell_angle_gamma    90

_symmetry_space_group_name_H-M    "P 1"
_symmetry_int_tables_number       1

loop_
  _symmetry_equiv_pos_as_xyz
  'x, y, z'

loop_
  _atom_site_label
  _atom_site_occupancy
  _atom_site_fract_x
  _atom_site_fract_y
  _atom_site_fract_z
  _atom_site_thermal_displace_type
  _atom_site_B_iso_or_equiv
  _atom_site_type_symbol
  Cu1      1.0000 0.70300  0.08290  0.02330  Biso   1.000  Cu
  Cu2      1.0000 0.79700  0.58290  0.47670  Biso   1.000  Cu
  Cu3      1.0000 0.29700  0.91710  0.97670  Biso   1.000  Cu
  Cu4      1.0000 0.20300  0.41710  0.52330  Biso   1.000  Cu
  I1       1.0000 0.26080  0.03688  0.12844  Biso   1.000  I
  I2       1.0000 0.23920  0.53688  0.37156  Biso   1.000  I
  I3       1.0000 0.73920  0.96312  0.87156  Biso   1.000  I
  I4       1.0000 0.76080  0.46312  0.62844  Biso   1.000  I
  N1       1.0000 0.58000  0.21090  0.95950  Biso   1.000  N
  N2       1.0000 0.92000  0.71090  0.54050  Biso   1.000  N
  N3       1.0000 0.42000  0.78910  0.04050  Biso   1.000  N
  N4       1.0000 0.08000  0.28910  0.45950  Biso   1.000  N
  C1       1.0000 0.70000  0.29740  0.99100  Biso   1.000  C
  C2       1.0000 0.80000  0.79740  0.50900  Biso   1.000  C
  C3       1.0000 0.30000  0.70260  0.00900  Biso   1.000  C
  C4       1.0000 0.20000  0.20260  0.49100  Biso   1.000  C
  C5       1.0000 0.92000  0.29910  0.08060  Biso   1.000  C
  C6       1.0000 0.58000  0.79910  0.41940  Biso   1.000  C
  C7       1.0000 0.08000  0.70090  0.91940  Biso   1.000  C
  C8       1.0000 0.42000  0.20090  0.58060  Biso   1.000  C
  C9       1.0000 0.02500  0.37270  0.12950  Biso   1.000  C
  C10      1.0000 0.47500  0.87270  0.37050  Biso   1.000  C
  C11      1.0000 0.97500  0.62730  0.87050  Biso   1.000  C
  C12      1.0000 0.52500  0.12730  0.62950  Biso   1.000  C
  C13      1.0000 0.60100  0.37870  0.93700  Biso   1.000  C
  C14      1.0000 0.89900  0.87870  0.56300  Biso   1.000  C
  C15      1.0000 0.39900  0.62130  0.06300  Biso   1.000  C
  C16      1.0000 0.10100  0.12130  0.43700  Biso   1.000  C
  C17      1.0000 0.39100  0.37070  0.85370  Biso   1.000  C
  C18      1.0000 0.10900  0.87070  0.64630  Biso   1.000  C
  C19      1.0000 0.60900  0.62930  0.14630  Biso   1.000  C
  C20      1.0000 0.89100  0.12930  0.35370  Biso   1.000  C
  C21      1.0000 0.26700  0.28540  0.82230  Biso   1.000  C
  C22      1.0000 0.23300  0.78540  0.67770  Biso   1.000  C
  C23      1.0000 0.73300  0.71460  0.17770  Biso   1.000  C
  C24      1.0000 0.76700  0.21460  0.32230  Biso   1.000  C
  C25      1.0000 0.37200  0.20810  0.87720  Biso   1.000  C
  C26      1.0000 0.12800  0.70810  0.62280  Biso   1.000  C
  C27      1.0000 0.62800  0.79190  0.12280  Biso   1.000  C
  C28      1.0000 0.87200  0.29190  0.37720  Biso   1.000  C
  H1       1.0000 0.00100  0.23800  0.10900  Biso   1.000  H
  H2       1.0000 0.49900  0.73800  0.39100  Biso   1.000  H
  H3       1.0000 0.99900  0.76200  0.89100  Biso   1.000  H
  H4       1.0000 0.50100  0.26200  0.60900  Biso   1.000  H
  H5       1.0000 0.06200  0.44400  0.10200  Biso   1.000  H
  H6       1.0000 0.43800  0.94400  0.39800  Biso   1.000  H
  H7       1.0000 0.93800  0.55600  0.89800  Biso   1.000  H
  H8       1.0000 0.56200  0.05600  0.60200  Biso   1.000  H
  H9       1.0000 0.07000  0.36900  0.19900  Biso   1.000  H
  H10      1.0000 0.43000  0.86900  0.30100  Biso   1.000  H
  H11      1.0000 0.93000  0.63100  0.80100  Biso   1.000  H
  H12      1.0000 0.57000  0.13100  0.69900  Biso   1.000  H
  H13      1.0000 0.69200  0.44100  0.95900  Biso   1.000  H
  H14      1.0000 0.80800  0.94100  0.54100  Biso   1.000  H
  H15      1.0000 0.30800  0.55900  0.04100  Biso   1.000  H
  H16      1.0000 0.19200  0.05900  0.45900  Biso   1.000  H
  H17      1.0000 0.32300  0.42700  0.81600  Biso   1.000  H
  H18      1.0000 0.17700  0.92700  0.68400  Biso   1.000  H
  H19      1.0000 0.67700  0.57300  0.18400  Biso   1.000  H
  H20      1.0000 0.82300  0.07300  0.31600  Biso   1.000  H
  H21      1.0000 0.10900  0.27900  0.76200  Biso   1.000  H
  H22      1.0000 0.39100  0.77900  0.73800  Biso   1.000  H
  H23      1.0000 0.89100  0.72100  0.23800  Biso   1.000  H
  H24      1.0000 0.60900  0.22100  0.26200  Biso   1.000  H
  H25      1.0000 0.28700  0.14400  0.85500  Biso   1.000  H
  H26      1.0000 0.21300  0.64400  0.64500  Biso   1.000  H
  H27      1.0000 0.71300  0.85600  0.14500  Biso   1.000  H
  H28      1.0000 0.78700  0.35600  0.35500  Biso   1.000  H
