data_image0
_cell_length_a       12.03
_cell_length_b       4.194
_cell_length_c       17.005
_cell_angle_alpha    90
_cell_angle_beta     98.3
_cell_angle_gamma    90

_symmetry_space_group_name_H-M    "P 1"
_symmetry_int_tables_number       1

loop_
  _symmetry_equiv_pos_as_xyz
  'x, y, z'

loop_
  _atom_site_label
  _atom_site_occupancy
  _atom_site_fract_x
  _atom_site_fract_y
  _atom_site_fract_z
  _atom_site_thermal_displace_type
  _atom_site_B_iso_or_equiv
  _atom_site_type_symbol
  Cu1      1.0000 0.30743  0.52150  0.29586  Biso   1.000  Cu
  Cu2      1.0000 0.19257  0.02150  0.20414  Biso   1.000  Cu
  Cu3      1.0000 0.69257  0.47850  0.70414  Biso   1.000  Cu
  Cu4      1.0000 0.80743  0.97850  0.79586  Biso   1.000  Cu
  I1       1.0000 0.21882  0.02940  0.36129  Biso   1.000  I
  I2       1.0000 0.28118  0.52940  0.13871  Biso   1.000  I
  I3       1.0000 0.78118  0.97060  0.63871  Biso   1.000  I
  I4       1.0000 0.71882  0.47060  0.86129  Biso   1.000  I
  N1       1.0000 0.47630  0.54600  0.33320  Biso   1.000  N
  N2       1.0000 0.02370  0.04600  0.16680  Biso   1.000  N
  N3       1.0000 0.52370  0.45400  0.66680  Biso   1.000  N
  N4       1.0000 0.97630  0.95400  0.83320  Biso   1.000  N
  C1       1.0000 0.54340  0.70700  0.29320  Biso   1.000  C
  C2       1.0000 0.95660  0.20700  0.20680  Biso   1.000  C
  C3       1.0000 0.45660  0.29300  0.70680  Biso   1.000  C
  C4       1.0000 0.04340  0.79300  0.79320  Biso   1.000  C
  C5       1.0000 0.65850  0.73800  0.31650  Biso   1.000  C
  C6       1.0000 0.84150  0.23800  0.18350  Biso   1.000  C
  C7       1.0000 0.34150  0.26200  0.68350  Biso   1.000  C
  C8       1.0000 0.15850  0.76200  0.81650  Biso   1.000  C
  C9       1.0000 0.70710  0.59800  0.38640  Biso   1.000  C
  C10      1.0000 0.79290  0.09800  0.11360  Biso   1.000  C
  C11      1.0000 0.29290  0.40200  0.61360  Biso   1.000  C
  C12      1.0000 0.20710  0.90200  0.88640  Biso   1.000  C
  C13      1.0000 0.82880  0.62200  0.41780  Biso   1.000  C
  C14      1.0000 0.67120  0.12200  0.08220  Biso   1.000  C
  C15      1.0000 0.17120  0.37800  0.58220  Biso   1.000  C
  C16      1.0000 0.32880  0.87800  0.91780  Biso   1.000  C
  C17      1.0000 0.90130  0.72000  0.39800  Biso   1.000  C
  C18      1.0000 0.59870  0.22000  0.10200  Biso   1.000  C
  C19      1.0000 0.09870  0.28000  0.60200  Biso   1.000  C
  C20      1.0000 0.40130  0.78000  0.89800  Biso   1.000  C
  C21      1.0000 0.63670  0.42500  0.42800  Biso   1.000  C
  C22      1.0000 0.86330  0.92500  0.07200  Biso   1.000  C
  C23      1.0000 0.36330  0.57500  0.57200  Biso   1.000  C
  C24      1.0000 0.13670  0.07500  0.92800  Biso   1.000  C
  C25      1.0000 0.52360  0.40600  0.40060  Biso   1.000  C
  C26      1.0000 0.97640  0.90600  0.09940  Biso   1.000  C
  C27      1.0000 0.47640  0.59400  0.59940  Biso   1.000  C
  C28      1.0000 0.02360  0.09400  0.90060  Biso   1.000  C
  H1       1.0000 0.50800  0.81400  0.24400  Biso   1.000  H
  H2       1.0000 0.99200  0.31400  0.25600  Biso   1.000  H
  H3       1.0000 0.49200  0.18600  0.75600  Biso   1.000  H
  H4       1.0000 0.00800  0.68600  0.74400  Biso   1.000  H
  H5       1.0000 0.70700  0.85900  0.28500  Biso   1.000  H
  H6       1.0000 0.79300  0.35900  0.21500  Biso   1.000  H
  H7       1.0000 0.29300  0.14100  0.71500  Biso   1.000  H
  H8       1.0000 0.20700  0.64100  0.78500  Biso   1.000  H
  H9       1.0000 0.66800  0.30800  0.47800  Biso   1.000  H
  H10      1.0000 0.83200  0.80800  0.02200  Biso   1.000  H
  H11      1.0000 0.33200  0.69200  0.52200  Biso   1.000  H
  H12      1.0000 0.16800  0.19200  0.97800  Biso   1.000  H
  H13      1.0000 0.47300  0.29100  0.43300  Biso   1.000  H
  H14      1.0000 0.02700  0.79100  0.06700  Biso   1.000  H
  H15      1.0000 0.52700  0.70900  0.56700  Biso   1.000  H
  H16      1.0000 0.97300  0.20900  0.93300  Biso   1.000  H
  H17      1.0000 0.85600  0.50600  0.47200  Biso   1.000  H
  H18      1.0000 0.64400  0.00600  0.02800  Biso   1.000  H
  H19      1.0000 0.14400  0.49400  0.52800  Biso   1.000  H
  H20      1.0000 0.35600  0.99400  0.97200  Biso   1.000  H
  H21      1.0000 0.90700  0.96400  0.39500  Biso   1.000  H
  H22      1.0000 0.59300  0.46400  0.10500  Biso   1.000  H
  H23      1.0000 0.09300  0.03600  0.60500  Biso   1.000  H
  H24      1.0000 0.40700  0.53600  0.89500  Biso   1.000  H
  H25      1.0000 0.95500  0.62400  0.36800  Biso   1.000  H
  H26      1.0000 0.54500  0.12400  0.13200  Biso   1.000  H
  H27      1.0000 0.04500  0.37600  0.63200  Biso   1.000  H
  H28      1.0000 0.45500  0.87600  0.86800  Biso   1.000  H
