data_image0
_cell_length_a       9.913
_cell_length_b       9.532
_cell_length_c       8.872
_cell_angle_alpha    90.52
_cell_angle_beta     105.39
_cell_angle_gamma    91.55

_symmetry_space_group_name_H-M    "P 1"
_symmetry_int_tables_number       1

loop_
  _symmetry_equiv_pos_as_xyz
  'x, y, z'

loop_
  _atom_site_label
  _atom_site_occupancy
  _atom_site_fract_x
  _atom_site_fract_y
  _atom_site_fract_z
  _atom_site_thermal_displace_type
  _atom_site_B_iso_or_equiv
  _atom_site_type_symbol
  Br1      1.0000 0.04470  0.62490  0.18850  Biso   1.000  Br
  Br2      1.0000 0.95530  0.37510  0.81150  Biso   1.000  Br
  Cu1      1.0000 0.14700  0.42520  0.08740  Biso   1.000  Cu
  Cu2      1.0000 0.85300  0.57480  0.91260  Biso   1.000  Cu
  N1       1.0000 0.12400  0.25800  0.22400  Biso   1.000  N
  N2       1.0000 0.87600  0.74200  0.77600  Biso   1.000  N
  C1       1.0000 0.15100  0.12400  0.19100  Biso   1.000  C
  C2       1.0000 0.84900  0.87600  0.80900  Biso   1.000  C
  C3       1.0000 0.16900  0.09200  0.03600  Biso   1.000  C
  C4       1.0000 0.83100  0.90800  0.96400  Biso   1.000  C
  C5       1.0000 0.19900  0.96400  0.98800  Biso   1.000  C
  C6       1.0000 0.80100  0.03600  0.01200  Biso   1.000  C
  C7       1.0000 0.16300  0.02200  0.30600  Biso   1.000  C
  C8       1.0000 0.83700  0.97800  0.69400  Biso   1.000  C
  C9       1.0000 0.14500  0.05900  0.44800  Biso   1.000  C
  C10      1.0000 0.85500  0.94100  0.55200  Biso   1.000  C
  C11      1.0000 0.11200  0.19700  0.47500  Biso   1.000  C
  C12      1.0000 0.88800  0.80300  0.52500  Biso   1.000  C
  C13      1.0000 0.10200  0.28900  0.36200  Biso   1.000  C
  C14      1.0000 0.89800  0.71100  0.63800  Biso   1.000  C
  Cu3      1.0000 0.38770  0.07620  0.07680  Biso   1.000  Cu
  Cu4      1.0000 0.61230  0.92380  0.92320  Biso   1.000  Cu
  Br3      1.0000 0.53430  0.87720  0.18280  Biso   1.000  Br
  Br4      1.0000 0.46570  0.12280  0.81720  Biso   1.000  Br
  N3       1.0000 0.47800  0.24400  0.21500  Biso   1.000  N
  N4       1.0000 0.52200  0.75600  0.78500  Biso   1.000  N
  C15      1.0000 0.45200  0.37800  0.18200  Biso   1.000  C
  C16      1.0000 0.54800  0.62200  0.81800  Biso   1.000  C
  C17      1.0000 0.34400  0.41200  0.03700  Biso   1.000  C
  C18      1.0000 0.65600  0.58800  0.96300  Biso   1.000  C
  C19      1.0000 0.29200  0.53900  0.99400  Biso   1.000  C
  C20      1.0000 0.70800  0.46100  0.00600  Biso   1.000  C
  C21      1.0000 0.52300  0.48700  0.28600  Biso   1.000  C
  C22      1.0000 0.47700  0.51300  0.71400  Biso   1.000  C
  C23      1.0000 0.62600  0.45200  0.41800  Biso   1.000  C
  C24      1.0000 0.37400  0.54800  0.58200  Biso   1.000  C
  C25      1.0000 0.64800  0.31400  0.44800  Biso   1.000  C
  C26      1.0000 0.35200  0.68600  0.55200  Biso   1.000  C
  C27      1.0000 0.57400  0.21300  0.34800  Biso   1.000  C
  C28      1.0000 0.42600  0.78700  0.65200  Biso   1.000  C
  H1       1.0000 0.15800  0.16700  0.96000  Biso   1.000  H
  H2       1.0000 0.84200  0.83300  0.04000  Biso   1.000  H
  H3       1.0000 0.20900  0.88900  0.06000  Biso   1.000  H
  H4       1.0000 0.79100  0.11100  0.94000  Biso   1.000  H
  H5       1.0000 0.21000  0.94800  0.88600  Biso   1.000  H
  H6       1.0000 0.79000  0.05200  0.11400  Biso   1.000  H
  H7       1.0000 0.18300  0.92600  0.28500  Biso   1.000  H
  H8       1.0000 0.81700  0.07400  0.71500  Biso   1.000  H
  H9       1.0000 0.15700  0.99100  0.53200  Biso   1.000  H
  H10      1.0000 0.84300  0.00900  0.46800  Biso   1.000  H
  H11      1.0000 0.09500  0.22500  0.57600  Biso   1.000  H
  H12      1.0000 0.90500  0.77500  0.42400  Biso   1.000  H
  H13      1.0000 0.07600  0.38400  0.38200  Biso   1.000  H
  H14      1.0000 0.92400  0.61600  0.61800  Biso   1.000  H
  H15      1.0000 0.30700  0.33500  0.96300  Biso   1.000  H
  H16      1.0000 0.69300  0.66500  0.03700  Biso   1.000  H
  H17      1.0000 0.32800  0.61600  0.06400  Biso   1.000  H
  H18      1.0000 0.67200  0.38400  0.93600  Biso   1.000  H
  H19      1.0000 0.22200  0.55200  0.89900  Biso   1.000  H
  H20      1.0000 0.77800  0.44800  0.10100  Biso   1.000  H
  H21      1.0000 0.50000  0.58500  0.26500  Biso   1.000  H
  H22      1.0000 0.50000  0.41500  0.73500  Biso   1.000  H
  H23      1.0000 0.68100  0.52400  0.48900  Biso   1.000  H
  H24      1.0000 0.31900  0.47600  0.51100  Biso   1.000  H
  H25      1.0000 0.71600  0.28700  0.54300  Biso   1.000  H
  H26      1.0000 0.28400  0.71300  0.45700  Biso   1.000  H
  H27      1.0000 0.59200  0.11500  0.37500  Biso   1.000  H
  H28      1.0000 0.40800  0.88500  0.62500  Biso   1.000  H
