data_image0
_cell_length_a       14.76
_cell_length_b       9.689
_cell_length_c       3.9
_cell_angle_alpha    84.16
_cell_angle_beta     80.42
_cell_angle_gamma    86.81

_symmetry_space_group_name_H-M    "P 1"
_symmetry_int_tables_number       1

loop_
  _symmetry_equiv_pos_as_xyz
  'x, y, z'

loop_
  _atom_site_label
  _atom_site_occupancy
  _atom_site_fract_x
  _atom_site_fract_y
  _atom_site_fract_z
  _atom_site_thermal_displace_type
  _atom_site_B_iso_or_equiv
  _atom_site_type_symbol
  Br1      1.0000 0.25000  0.25000  0.25000  Biso   1.000  Br
  Br2      1.0000 0.75000  0.75000  0.75000  Biso   1.000  Br
  Cu1      1.0000 0.24780  0.39710  0.70600  Biso   1.000  Cu
  Cu2      1.0000 0.74780  0.89710  0.20600  Biso   1.000  Cu
  N1       1.0000 0.25000  0.59900  0.71600  Biso   1.000  N
  N2       1.0000 0.75000  0.09900  0.21600  Biso   1.000  N
  C1       1.0000 0.32500  0.67000  0.55900  Biso   1.000  C
  C2       1.0000 0.82500  0.17000  0.05900  Biso   1.000  C
  C3       1.0000 0.40100  0.60200  0.37400  Biso   1.000  C
  C4       1.0000 0.90100  0.10200  0.87400  Biso   1.000  C
  C5       1.0000 0.47600  0.66900  0.22100  Biso   1.000  C
  C6       1.0000 0.97600  0.16900  0.72100  Biso   1.000  C
  C7       1.0000 0.48100  0.81200  0.23400  Biso   1.000  C
  C8       1.0000 0.98100  0.31200  0.73400  Biso   1.000  C
  C9       1.0000 0.41000  0.88400  0.41000  Biso   1.000  C
  C10      1.0000 0.91000  0.38400  0.91000  Biso   1.000  C
  C11      1.0000 0.33000  0.81700  0.57900  Biso   1.000  C
  C12      1.0000 0.83000  0.31700  0.07900  Biso   1.000  C
  C13      1.0000 0.25700  0.88600  0.76400  Biso   1.000  C
  C14      1.0000 0.75700  0.38600  0.26400  Biso   1.000  C
  C15      1.0000 0.17700  0.67200  0.89300  Biso   1.000  C
  C16      1.0000 0.67700  0.17200  0.39300  Biso   1.000  C
  C17      1.0000 0.09800  0.60300  0.05800  Biso   1.000  C
  C18      1.0000 0.59800  0.10300  0.55800  Biso   1.000  C
  C19      1.0000 0.02500  0.67300  0.22900  Biso   1.000  C
  C20      1.0000 0.52500  0.17300  0.72900  Biso   1.000  C
  C21      1.0000 0.03000  0.81400  0.25800  Biso   1.000  C
  C22      1.0000 0.53000  0.31400  0.75800  Biso   1.000  C
  C23      1.0000 0.10200  0.88800  0.11800  Biso   1.000  C
  C24      1.0000 0.60200  0.38800  0.61800  Biso   1.000  C
  C25      1.0000 0.18100  0.81800  0.92400  Biso   1.000  C
  C26      1.0000 0.68100  0.31800  0.42400  Biso   1.000  C
  H1       1.0000 0.39900  0.50300  0.36400  Biso   1.000  H
  H2       1.0000 0.89900  0.00300  0.86400  Biso   1.000  H
  H3       1.0000 0.52700  0.61600  0.09400  Biso   1.000  H
  H4       1.0000 0.02700  0.11600  0.59400  Biso   1.000  H
  H5       1.0000 0.53500  0.86000  0.12900  Biso   1.000  H
  H6       1.0000 0.03500  0.36000  0.62900  Biso   1.000  H
  H7       1.0000 0.41400  0.98200  0.41300  Biso   1.000  H
  H8       1.0000 0.91400  0.48200  0.91300  Biso   1.000  H
  H9       1.0000 0.26100  0.98500  0.78700  Biso   1.000  H
  H10      1.0000 0.76100  0.48500  0.28700  Biso   1.000  H
  H11      1.0000 0.09500  0.50400  0.04900  Biso   1.000  H
  H12      1.0000 0.59500  0.00400  0.54900  Biso   1.000  H
  H13      1.0000 0.97000  0.62300  0.32300  Biso   1.000  H
  H14      1.0000 0.47000  0.12300  0.82300  Biso   1.000  H
  H15      1.0000 0.97800  0.86100  0.39100  Biso   1.000  H
  H16      1.0000 0.47800  0.36100  0.89100  Biso   1.000  H
  H17      1.0000 0.10200  0.98500  0.14200  Biso   1.000  H
  H18      1.0000 0.60200  0.48500  0.64200  Biso   1.000  H
