data_image0
_cell_length_a       7.4937
_cell_length_b       6.817
_cell_length_c       7.725
_cell_angle_alpha    90
_cell_angle_beta     104.23
_cell_angle_gamma    90

_symmetry_space_group_name_H-M    "P 1"
_symmetry_int_tables_number       1

loop_
  _symmetry_equiv_pos_as_xyz
  'x, y, z'

loop_
  _atom_site_label
  _atom_site_occupancy
  _atom_site_fract_x
  _atom_site_fract_y
  _atom_site_fract_z
  _atom_site_thermal_displace_type
  _atom_site_B_iso_or_equiv
  _atom_site_type_symbol
  Cu1      1.0000 0.51660  0.75000  0.84220  Biso   1.000  Cu
  Cu2      1.0000 0.48340  0.25000  0.15780  Biso   1.000  Cu
  Br1      1.0000 0.51340  0.87710  0.13200  Biso   1.000  Br
  Br2      1.0000 0.48660  0.37710  0.86800  Biso   1.000  Br
  N1       1.0000 0.78160  0.78000  0.81400  Biso   1.000  N
  N2       1.0000 0.21840  0.28000  0.18600  Biso   1.000  N
  C1       1.0000 0.86800  0.64000  0.75000  Biso   1.000  C
  C2       1.0000 0.13200  0.14000  0.25000  Biso   1.000  C
  C3       1.0000 0.03300  0.66500  0.70100  Biso   1.000  C
  C4       1.0000 0.96700  0.16500  0.29900  Biso   1.000  C
  C5       1.0000 0.11600  0.84900  0.72100  Biso   1.000  C
  C6       1.0000 0.88400  0.34900  0.27900  Biso   1.000  C
  C7       1.0000 0.28700  0.89100  0.66600  Biso   1.000  C
  C8       1.0000 0.71300  0.39100  0.33400  Biso   1.000  C
  C9       1.0000 0.37000  0.77100  0.57100  Biso   1.000  C
  C10      1.0000 0.63000  0.27100  0.42900  Biso   1.000  C
  C11      1.0000 0.02900  0.99600  0.79200  Biso   1.000  C
  C12      1.0000 0.97100  0.49600  0.20800  Biso   1.000  C
  C13      1.0000 0.86300  0.95800  0.83700  Biso   1.000  C
  C14      1.0000 0.13700  0.45800  0.16300  Biso   1.000  C
  H1       1.0000 0.80700  0.54200  0.70700  Biso   1.000  H
  H2       1.0000 0.19300  0.04200  0.29300  Biso   1.000  H
  H3       1.0000 0.05500  0.55300  0.65900  Biso   1.000  H
  H4       1.0000 0.94500  0.05300  0.34100  Biso   1.000  H
  H5       1.0000 0.08300  0.11700  0.81100  Biso   1.000  H
  H6       1.0000 0.91700  0.61700  0.18900  Biso   1.000  H
  H7       1.0000 0.78100  0.04100  0.88900  Biso   1.000  H
  H8       1.0000 0.21900  0.54100  0.11100  Biso   1.000  H
  H9       1.0000 0.33000  0.02300  0.69100  Biso   1.000  H
  H10      1.0000 0.67000  0.52300  0.30900  Biso   1.000  H
  H11      1.0000 0.46900  0.82600  0.50200  Biso   1.000  H
  H12      1.0000 0.53100  0.32600  0.49800  Biso   1.000  H
  H13      1.0000 0.31700  0.58700  0.53700  Biso   1.000  H
  H14      1.0000 0.68300  0.08700  0.46300  Biso   1.000  H
