data_image0
_cell_length_a       7.505
_cell_length_b       6.501
_cell_length_c       7.597
_cell_angle_alpha    90
_cell_angle_beta     102.28
_cell_angle_gamma    90

_symmetry_space_group_name_H-M    "P 1"
_symmetry_int_tables_number       1

loop_
  _symmetry_equiv_pos_as_xyz
  'x, y, z'

loop_
  _atom_site_label
  _atom_site_occupancy
  _atom_site_fract_x
  _atom_site_fract_y
  _atom_site_fract_z
  _atom_site_thermal_displace_type
  _atom_site_B_iso_or_equiv
  _atom_site_type_symbol
  Cu1      1.0000 0.51330  0.25000  0.84500  Biso   1.000  Cu
  Cu2      1.0000 0.48670  0.75000  0.15500  Biso   1.000  Cu
  Cl1      1.0000 0.50910  0.12280  0.12370  Biso   1.000  Cl
  Cl2      1.0000 0.49090  0.62280  0.87630  Biso   1.000  Cl
  N1       1.0000 0.77960  0.21800  0.81670  Biso   1.000  N
  N2       1.0000 0.22040  0.71800  0.18330  Biso   1.000  N
  C1       1.0000 0.86700  0.36700  0.75400  Biso   1.000  C
  C2       1.0000 0.13300  0.86700  0.24600  Biso   1.000  C
  H1       1.0000 0.81200  0.45900  0.70200  Biso   1.000  H
  H2       1.0000 0.18800  0.95900  0.29800  Biso   1.000  H
  C3       1.0000 0.03800  0.34000  0.70700  Biso   1.000  C
  C4       1.0000 0.96200  0.84000  0.29300  Biso   1.000  C
  H3       1.0000 0.07000  0.41600  0.64200  Biso   1.000  H
  H4       1.0000 0.93000  0.91600  0.35800  Biso   1.000  H
  C5       1.0000 0.11900  0.15100  0.72200  Biso   1.000  C
  C6       1.0000 0.88100  0.65100  0.27800  Biso   1.000  C
  C7       1.0000 0.29100  0.10600  0.66800  Biso   1.000  C
  C8       1.0000 0.70900  0.60600  0.33200  Biso   1.000  C
  H5       1.0000 0.33900  0.99900  0.69000  Biso   1.000  H
  H6       1.0000 0.66100  0.49900  0.31000  Biso   1.000  H
  C9       1.0000 0.37900  0.23400  0.57600  Biso   1.000  C
  C10      1.0000 0.62100  0.73400  0.42400  Biso   1.000  C
  H7       1.0000 0.32200  0.34800  0.54200  Biso   1.000  H
  H8       1.0000 0.67800  0.84800  0.45800  Biso   1.000  H
  H9       1.0000 0.46000  0.19800  0.52000  Biso   1.000  H
  H10      1.0000 0.54000  0.69800  0.48000  Biso   1.000  H
  C11      1.0000 0.02800  0.99400  0.79100  Biso   1.000  C
  C12      1.0000 0.97200  0.49400  0.20900  Biso   1.000  C
  H11      1.0000 0.06800  0.85800  0.80000  Biso   1.000  H
  H12      1.0000 0.93200  0.35800  0.20000  Biso   1.000  H
  C13      1.0000 0.86100  0.03400  0.83400  Biso   1.000  C
  C14      1.0000 0.13900  0.53400  0.16600  Biso   1.000  C
  H13      1.0000 0.80000  0.95600  0.84700  Biso   1.000  H
  H14      1.0000 0.20000  0.45600  0.15300  Biso   1.000  H
