data_image0
_cell_length_a       25.841
_cell_length_b       9.392
_cell_length_c       3.803
_cell_angle_alpha    90
_cell_angle_beta     90
_cell_angle_gamma    90

_symmetry_space_group_name_H-M    "P 1"
_symmetry_int_tables_number       1

loop_
  _symmetry_equiv_pos_as_xyz
  'x, y, z'

loop_
  _atom_site_label
  _atom_site_occupancy
  _atom_site_fract_x
  _atom_site_fract_y
  _atom_site_fract_z
  _atom_site_thermal_displace_type
  _atom_site_B_iso_or_equiv
  _atom_site_type_symbol
  Cl1      1.0000 0.37162  0.88740  0.76930  Biso   1.000  Cl
  Cl2      1.0000 0.87162  0.61260  0.23070  Biso   1.000  Cl
  Cl3      1.0000 0.62838  0.38740  0.73070  Biso   1.000  Cl
  Cl4      1.0000 0.12838  0.11260  0.26930  Biso   1.000  Cl
  Cu1      1.0000 0.36482  0.01800  0.26040  Biso   1.000  Cu
  Cu2      1.0000 0.86482  0.48200  0.73960  Biso   1.000  Cu
  Cu3      1.0000 0.63518  0.51800  0.23960  Biso   1.000  Cu
  Cu4      1.0000 0.13518  0.98200  0.76040  Biso   1.000  Cu
  N1       1.0000 0.35560  0.22630  0.29900  Biso   1.000  N
  N2       1.0000 0.85560  0.27370  0.70100  Biso   1.000  N
  N3       1.0000 0.64440  0.72630  0.20100  Biso   1.000  N
  N4       1.0000 0.14440  0.77370  0.79900  Biso   1.000  N
  C1       1.0000 0.31360  0.28540  0.43700  Biso   1.000  C
  C2       1.0000 0.81360  0.21460  0.56300  Biso   1.000  C
  C3       1.0000 0.68640  0.78540  0.06300  Biso   1.000  C
  C4       1.0000 0.18640  0.71460  0.93700  Biso   1.000  C
  C5       1.0000 0.27060  0.18710  0.54100  Biso   1.000  C
  C6       1.0000 0.77060  0.31290  0.45900  Biso   1.000  C
  C7       1.0000 0.72940  0.68710  0.95900  Biso   1.000  C
  C8       1.0000 0.22940  0.81290  0.04100  Biso   1.000  C
  C9       1.0000 0.30950  0.43010  0.49000  Biso   1.000  C
  C10      1.0000 0.80950  0.06990  0.51000  Biso   1.000  C
  C11      1.0000 0.69050  0.93010  0.01000  Biso   1.000  C
  C12      1.0000 0.19050  0.56990  0.99000  Biso   1.000  C
  C13      1.0000 0.34810  0.52010  0.40700  Biso   1.000  C
  C14      1.0000 0.84810  0.97990  0.59300  Biso   1.000  C
  C15      1.0000 0.65190  0.02010  0.09300  Biso   1.000  C
  C16      1.0000 0.15190  0.47990  0.90700  Biso   1.000  C
  C17      1.0000 0.39350  0.46300  0.26000  Biso   1.000  C
  C18      1.0000 0.89350  0.03700  0.74000  Biso   1.000  C
  C19      1.0000 0.60650  0.96300  0.24000  Biso   1.000  C
  C20      1.0000 0.10650  0.53700  0.76000  Biso   1.000  C
  C21      1.0000 0.43680  0.54900  0.15000  Biso   1.000  C
  C22      1.0000 0.93680  0.95100  0.85000  Biso   1.000  C
  C23      1.0000 0.56320  0.04900  0.35000  Biso   1.000  C
  C24      1.0000 0.06320  0.45100  0.65000  Biso   1.000  C
  C25      1.0000 0.47960  0.48600  0.01600  Biso   1.000  C
  C26      1.0000 0.97960  0.01400  0.98400  Biso   1.000  C
  C27      1.0000 0.52040  0.98600  0.48400  Biso   1.000  C
  C28      1.0000 0.02040  0.51400  0.51600  Biso   1.000  C
  C29      1.0000 0.48150  0.33920  0.96300  Biso   1.000  C
  C30      1.0000 0.98150  0.16080  0.03700  Biso   1.000  C
  C31      1.0000 0.51850  0.83920  0.53700  Biso   1.000  C
  C32      1.0000 0.01850  0.66080  0.46300  Biso   1.000  C
  C33      1.0000 0.44090  0.25480  0.05000  Biso   1.000  C
  C34      1.0000 0.94090  0.24520  0.95000  Biso   1.000  C
  C35      1.0000 0.55910  0.75480  0.45000  Biso   1.000  C
  C36      1.0000 0.05910  0.74520  0.55000  Biso   1.000  C
  C37      1.0000 0.39600  0.31580  0.20800  Biso   1.000  C
  C38      1.0000 0.89600  0.18420  0.79200  Biso   1.000  C
  C39      1.0000 0.60400  0.81580  0.29200  Biso   1.000  C
  C40      1.0000 0.10400  0.68420  0.70800  Biso   1.000  C
  H1       1.0000 0.28600  0.11500  0.64000  Biso   1.000  H
  H2       1.0000 0.78600  0.38500  0.36000  Biso   1.000  H
  H3       1.0000 0.71400  0.61500  0.86000  Biso   1.000  H
  H4       1.0000 0.21400  0.88500  0.14000  Biso   1.000  H
  H5       1.0000 0.25200  0.15500  0.34100  Biso   1.000  H
  H6       1.0000 0.75200  0.34500  0.65900  Biso   1.000  H
  H7       1.0000 0.74800  0.65500  0.15900  Biso   1.000  H
  H8       1.0000 0.24800  0.84500  0.84100  Biso   1.000  H
  H9       1.0000 0.24800  0.23000  0.70300  Biso   1.000  H
  H10      1.0000 0.74800  0.27000  0.29700  Biso   1.000  H
  H11      1.0000 0.75200  0.73000  0.79700  Biso   1.000  H
  H12      1.0000 0.25200  0.77000  0.20300  Biso   1.000  H
  H13      1.0000 0.27800  0.46900  0.60000  Biso   1.000  H
  H14      1.0000 0.77800  0.03100  0.40000  Biso   1.000  H
  H15      1.0000 0.72200  0.96900  0.90000  Biso   1.000  H
  H16      1.0000 0.22200  0.53100  0.10000  Biso   1.000  H
  H17      1.0000 0.34500  0.62300  0.45400  Biso   1.000  H
  H18      1.0000 0.84500  0.87700  0.54600  Biso   1.000  H
  H19      1.0000 0.65500  0.12300  0.04600  Biso   1.000  H
  H20      1.0000 0.15500  0.37700  0.95400  Biso   1.000  H
  H21      1.0000 0.43500  0.65400  0.18500  Biso   1.000  H
  H22      1.0000 0.93500  0.84600  0.81500  Biso   1.000  H
  H23      1.0000 0.56500  0.15400  0.31500  Biso   1.000  H
  H24      1.0000 0.06500  0.34600  0.68500  Biso   1.000  H
  H25      1.0000 0.50900  0.54600  0.94800  Biso   1.000  H
  H26      1.0000 0.00900  0.95400  0.05200  Biso   1.000  H
  H27      1.0000 0.49100  0.04600  0.55200  Biso   1.000  H
  H28      1.0000 0.99100  0.45400  0.44800  Biso   1.000  H
  H29      1.0000 0.51300  0.29700  0.86000  Biso   1.000  H
  H30      1.0000 0.01300  0.20300  0.14000  Biso   1.000  H
  H31      1.0000 0.48700  0.79700  0.64000  Biso   1.000  H
  H32      1.0000 0.98700  0.70300  0.36000  Biso   1.000  H
  H33      1.0000 0.44300  0.15100  0.01200  Biso   1.000  H
  H34      1.0000 0.94300  0.34900  0.98800  Biso   1.000  H
  H35      1.0000 0.55700  0.65100  0.48800  Biso   1.000  H
  H36      1.0000 0.05700  0.84900  0.51200  Biso   1.000  H
