data_image0
_cell_length_a       9.134
_cell_length_b       15.419
_cell_length_c       3.802
_cell_angle_alpha    90
_cell_angle_beta     93.94
_cell_angle_gamma    90

_symmetry_space_group_name_H-M    "P 1"
_symmetry_int_tables_number       1

loop_
  _symmetry_equiv_pos_as_xyz
  'x, y, z'

loop_
  _atom_site_label
  _atom_site_occupancy
  _atom_site_fract_x
  _atom_site_fract_y
  _atom_site_fract_z
  _atom_site_thermal_displace_type
  _atom_site_B_iso_or_equiv
  _atom_site_type_symbol
  Cl1      1.0000 0.16060  0.07060  0.82780  Biso   1.000  Cl
  Cl2      1.0000 0.83940  0.57060  0.17220  Biso   1.000  Cl
  Cu1      1.0000 0.23830  0.00000  0.36760  Biso   1.000  Cu
  Cu2      1.0000 0.76170  0.50000  0.63240  Biso   1.000  Cu
  N1       1.0000 0.36000  0.89900  0.29000  Biso   1.000  N
  N2       1.0000 0.64000  0.39900  0.71000  Biso   1.000  N
  C1       1.0000 0.50500  0.90000  0.38700  Biso   1.000  C
  C2       1.0000 0.49500  0.40000  0.61300  Biso   1.000  C
  C3       1.0000 0.56900  0.97600  0.55300  Biso   1.000  C
  C4       1.0000 0.43100  0.47600  0.44700  Biso   1.000  C
  C5       1.0000 0.71700  0.97900  0.63800  Biso   1.000  C
  C6       1.0000 0.28300  0.47900  0.36200  Biso   1.000  C
  C7       1.0000 0.81400  0.90800  0.56700  Biso   1.000  C
  C8       1.0000 0.18600  0.40800  0.43300  Biso   1.000  C
  C9       1.0000 0.75100  0.83800  0.40100  Biso   1.000  C
  C10      1.0000 0.24900  0.33800  0.59900  Biso   1.000  C
  C11      1.0000 0.60100  0.83200  0.29500  Biso   1.000  C
  C12      1.0000 0.39900  0.33200  0.70500  Biso   1.000  C
  C13      1.0000 0.53900  0.76000  0.14100  Biso   1.000  C
  C14      1.0000 0.46100  0.26000  0.85900  Biso   1.000  C
  C15      1.0000 0.30000  0.82900  0.13100  Biso   1.000  C
  C16      1.0000 0.70000  0.32900  0.86900  Biso   1.000  C
  C17      1.0000 0.14700  0.82500  0.04700  Biso   1.000  C
  C18      1.0000 0.85300  0.32500  0.95300  Biso   1.000  C
  C19      1.0000 0.08500  0.75400  0.89200  Biso   1.000  C
  C20      1.0000 0.91500  0.25400  0.10800  Biso   1.000  C
  C21      1.0000 0.17400  0.67900  0.80100  Biso   1.000  C
  C22      1.0000 0.82600  0.17900  0.19900  Biso   1.000  C
  C23      1.0000 0.31500  0.68100  0.89800  Biso   1.000  C
  C24      1.0000 0.68500  0.18100  0.10200  Biso   1.000  C
  C25      1.0000 0.39000  0.75300  0.03500  Biso   1.000  C
  C26      1.0000 0.61000  0.25300  0.96500  Biso   1.000  C
  H1       1.0000 0.50600  0.02500  0.60500  Biso   1.000  H
  H2       1.0000 0.49400  0.52500  0.39500  Biso   1.000  H
  H3       1.0000 0.76000  0.02900  0.76300  Biso   1.000  H
  H4       1.0000 0.24000  0.52900  0.23700  Biso   1.000  H
  H5       1.0000 0.92100  0.91100  0.62600  Biso   1.000  H
  H6       1.0000 0.07900  0.41100  0.37400  Biso   1.000  H
  H7       1.0000 0.81700  0.79000  0.35700  Biso   1.000  H
  H8       1.0000 0.18300  0.29000  0.64300  Biso   1.000  H
  H9       1.0000 0.59900  0.70800  0.09100  Biso   1.000  H
  H10      1.0000 0.40100  0.20800  0.90900  Biso   1.000  H
  H11      1.0000 0.08700  0.87500  0.10100  Biso   1.000  H
  H12      1.0000 0.91300  0.37500  0.89900  Biso   1.000  H
  H13      1.0000 0.98000  0.75600  0.84600  Biso   1.000  H
  H14      1.0000 0.02000  0.25600  0.15400  Biso   1.000  H
  H15      1.0000 0.12700  0.63200  0.66200  Biso   1.000  H
  H16      1.0000 0.87300  0.13200  0.33800  Biso   1.000  H
  H17      1.0000 0.37100  0.62800  0.87500  Biso   1.000  H
  H18      1.0000 0.62900  0.12800  0.12500  Biso   1.000  H
