data_image0
_cell_length_a       10.679
_cell_length_b       9.755
_cell_length_c       3.869
_cell_angle_alpha    90
_cell_angle_beta     90
_cell_angle_gamma    90

_symmetry_space_group_name_H-M    "P 1"
_symmetry_int_tables_number       1

loop_
  _symmetry_equiv_pos_as_xyz
  'x, y, z'

loop_
  _atom_site_label
  _atom_site_occupancy
  _atom_site_fract_x
  _atom_site_fract_y
  _atom_site_fract_z
  _atom_site_thermal_displace_type
  _atom_site_B_iso_or_equiv
  _atom_site_type_symbol
  Cl1      1.0000 0.01500  0.50000  0.06400  Biso   1.000  Cl
  Cl2      1.0000 0.51500  0.00000  0.93600  Biso   1.000  Cl
  Cu1      1.0000 0.89200  0.50000  0.61600  Biso   1.000  Cu
  Cu2      1.0000 0.39200  0.00000  0.38400  Biso   1.000  Cu
  N1       1.0000 0.72300  0.50000  0.43500  Biso   1.000  N
  N2       1.0000 0.22300  0.00000  0.56500  Biso   1.000  N
  C1       1.0000 0.66400  0.38200  0.37300  Biso   1.000  C
  C2       1.0000 0.66400  0.61800  0.37300  Biso   1.000  C
  C3       1.0000 0.16400  0.88200  0.62700  Biso   1.000  C
  C4       1.0000 0.16400  0.11800  0.62700  Biso   1.000  C
  C5       1.0000 0.73400  0.25600  0.44300  Biso   1.000  C
  C6       1.0000 0.73400  0.74400  0.44300  Biso   1.000  C
  C7       1.0000 0.23400  0.75600  0.55700  Biso   1.000  C
  C8       1.0000 0.23400  0.24400  0.55700  Biso   1.000  C
  C9       1.0000 0.54800  0.37700  0.21700  Biso   1.000  C
  C10      1.0000 0.54800  0.62300  0.21700  Biso   1.000  C
  C11      1.0000 0.04800  0.87700  0.78300  Biso   1.000  C
  C12      1.0000 0.04800  0.12300  0.78300  Biso   1.000  C
  C13      1.0000 0.48900  0.50000  0.17000  Biso   1.000  C
  C14      1.0000 0.98900  0.00000  0.83000  Biso   1.000  C
  H1       1.0000 0.76000  0.24200  0.68000  Biso   1.000  H
  H2       1.0000 0.76000  0.75800  0.68000  Biso   1.000  H
  H3       1.0000 0.26000  0.74200  0.32000  Biso   1.000  H
  H4       1.0000 0.26000  0.25800  0.32000  Biso   1.000  H
  H5       1.0000 0.81000  0.24200  0.30400  Biso   1.000  H
  H6       1.0000 0.81000  0.75800  0.30400  Biso   1.000  H
  H7       1.0000 0.31000  0.74200  0.69600  Biso   1.000  H
  H8       1.0000 0.31000  0.25800  0.69600  Biso   1.000  H
  H9       1.0000 0.68300  0.17800  0.38100  Biso   1.000  H
  H10      1.0000 0.68300  0.82200  0.38100  Biso   1.000  H
  H11      1.0000 0.18300  0.67800  0.61900  Biso   1.000  H
  H12      1.0000 0.18300  0.32200  0.61900  Biso   1.000  H
  H13      1.0000 0.51500  0.28800  0.14200  Biso   1.000  H
  H14      1.0000 0.51500  0.71200  0.14200  Biso   1.000  H
  H15      1.0000 0.01500  0.78800  0.85800  Biso   1.000  H
  H16      1.0000 0.01500  0.21200  0.85800  Biso   1.000  H
  H17      1.0000 0.39800  0.50000  0.13100  Biso   1.000  H
  H18      1.0000 0.89800  0.00000  0.86900  Biso   1.000  H
