data_image0
_cell_length_a       9.868
_cell_length_b       25.23
_cell_length_c       4.116
_cell_angle_alpha    90
_cell_angle_beta     96.37
_cell_angle_gamma    90

_symmetry_space_group_name_H-M    "P 1"
_symmetry_int_tables_number       1

loop_
  _symmetry_equiv_pos_as_xyz
  'x, y, z'

loop_
  _atom_site_label
  _atom_site_occupancy
  _atom_site_fract_x
  _atom_site_fract_y
  _atom_site_fract_z
  _atom_site_thermal_displace_type
  _atom_site_B_iso_or_equiv
  _atom_site_type_symbol
  I1       1.0000 0.23460  0.13574  0.41220  Biso   1.000  I
  I2       1.0000 0.26540  0.63574  0.08780  Biso   1.000  I
  I3       1.0000 0.76540  0.86426  0.58780  Biso   1.000  I
  I4       1.0000 0.73460  0.36426  0.91220  Biso   1.000  I
  Cu1      1.0000 0.08420  0.13690  0.86540  Biso   1.000  Cu
  Cu2      1.0000 0.41580  0.63690  0.63460  Biso   1.000  Cu
  Cu3      1.0000 0.91580  0.86310  0.13460  Biso   1.000  Cu
  Cu4      1.0000 0.58420  0.36310  0.36540  Biso   1.000  Cu
  N1       1.0000 0.88200  0.14220  0.86800  Biso   1.000  N
  N2       1.0000 0.61800  0.64220  0.63200  Biso   1.000  N
  N3       1.0000 0.11800  0.85780  0.13200  Biso   1.000  N
  N4       1.0000 0.38200  0.35780  0.36800  Biso   1.000  N
  C1       1.0000 0.82300  0.18520  0.75100  Biso   1.000  C
  C2       1.0000 0.67700  0.68520  0.74900  Biso   1.000  C
  C3       1.0000 0.17700  0.81480  0.24900  Biso   1.000  C
  C4       1.0000 0.32300  0.31480  0.25100  Biso   1.000  C
  C5       1.0000 0.89500  0.22800  0.60600  Biso   1.000  C
  C6       1.0000 0.60500  0.72800  0.89400  Biso   1.000  C
  C7       1.0000 0.10500  0.77200  0.39400  Biso   1.000  C
  C8       1.0000 0.39500  0.27200  0.10600  Biso   1.000  C
  C9       1.0000 0.67700  0.19090  0.77600  Biso   1.000  C
  C10      1.0000 0.82300  0.69090  0.72400  Biso   1.000  C
  C11      1.0000 0.32300  0.80910  0.22400  Biso   1.000  C
  C12      1.0000 0.17700  0.30910  0.27600  Biso   1.000  C
  C13      1.0000 0.61100  0.15090  0.90700  Biso   1.000  C
  C14      1.0000 0.88900  0.65090  0.59300  Biso   1.000  C
  C15      1.0000 0.38900  0.84910  0.09300  Biso   1.000  C
  C16      1.0000 0.11100  0.34910  0.40700  Biso   1.000  C
  C17      1.0000 0.67200  0.10650  0.02200  Biso   1.000  C
  C18      1.0000 0.82800  0.60650  0.47800  Biso   1.000  C
  C19      1.0000 0.32800  0.89350  0.97800  Biso   1.000  C
  C20      1.0000 0.17200  0.39350  0.52200  Biso   1.000  C
  C21      1.0000 0.60400  0.06430  0.16100  Biso   1.000  C
  C22      1.0000 0.89600  0.56430  0.33900  Biso   1.000  C
  C23      1.0000 0.39600  0.93570  0.83900  Biso   1.000  C
  C24      1.0000 0.10400  0.43570  0.66100  Biso   1.000  C
  C25      1.0000 0.67300  0.02040  0.26900  Biso   1.000  C
  C26      1.0000 0.82700  0.52040  0.23100  Biso   1.000  C
  C27      1.0000 0.32700  0.97960  0.73100  Biso   1.000  C
  C28      1.0000 0.17300  0.47960  0.76900  Biso   1.000  C
  C29      1.0000 0.81200  0.01570  0.23800  Biso   1.000  C
  C30      1.0000 0.68800  0.51570  0.26200  Biso   1.000  C
  C31      1.0000 0.18800  0.98430  0.76200  Biso   1.000  C
  C32      1.0000 0.31200  0.48430  0.73800  Biso   1.000  C
  C33      1.0000 0.88000  0.05660  0.11200  Biso   1.000  C
  C34      1.0000 0.62000  0.55660  0.38800  Biso   1.000  C
  C35      1.0000 0.12000  0.94340  0.88800  Biso   1.000  C
  C36      1.0000 0.38000  0.44340  0.61200  Biso   1.000  C
  C37      1.0000 0.81600  0.10120  0.99800  Biso   1.000  C
  C38      1.0000 0.68400  0.60120  0.50200  Biso   1.000  C
  C39      1.0000 0.18400  0.89880  0.00200  Biso   1.000  C
  C40      1.0000 0.31600  0.39880  0.49800  Biso   1.000  C
  H1       1.0000 0.85200  0.23500  0.39200  Biso   1.000  H
  H2       1.0000 0.64800  0.73500  0.10800  Biso   1.000  H
  H3       1.0000 0.14800  0.76500  0.60800  Biso   1.000  H
  H4       1.0000 0.35200  0.26500  0.89200  Biso   1.000  H
  H5       1.0000 0.88900  0.25900  0.73800  Biso   1.000  H
  H6       1.0000 0.61100  0.75900  0.76200  Biso   1.000  H
  H7       1.0000 0.11100  0.74100  0.26200  Biso   1.000  H
  H8       1.0000 0.38900  0.24100  0.23800  Biso   1.000  H
  H9       1.0000 0.99100  0.22500  0.58300  Biso   1.000  H
  H10      1.0000 0.50900  0.72500  0.91700  Biso   1.000  H
  H11      1.0000 0.00900  0.77500  0.41700  Biso   1.000  H
  H12      1.0000 0.49100  0.27500  0.08300  Biso   1.000  H
  H13      1.0000 0.63000  0.22500  0.70900  Biso   1.000  H
  H14      1.0000 0.87000  0.72500  0.79100  Biso   1.000  H
  H15      1.0000 0.37000  0.77500  0.29100  Biso   1.000  H
  H16      1.0000 0.13000  0.27500  0.20900  Biso   1.000  H
  H17      1.0000 0.51100  0.15300  0.93200  Biso   1.000  H
  H18      1.0000 0.98900  0.65300  0.56800  Biso   1.000  H
  H19      1.0000 0.48900  0.84700  0.06800  Biso   1.000  H
  H20      1.0000 0.01100  0.34700  0.43200  Biso   1.000  H
  H21      1.0000 0.50600  0.06800  0.18100  Biso   1.000  H
  H22      1.0000 0.99400  0.56800  0.31900  Biso   1.000  H
  H23      1.0000 0.49400  0.93200  0.81900  Biso   1.000  H
  H24      1.0000 0.00600  0.43200  0.68100  Biso   1.000  H
  H25      1.0000 0.62400  0.99200  0.37300  Biso   1.000  H
  H26      1.0000 0.87600  0.49200  0.12700  Biso   1.000  H
  H27      1.0000 0.37600  0.00800  0.62700  Biso   1.000  H
  H28      1.0000 0.12400  0.50800  0.87300  Biso   1.000  H
  H29      1.0000 0.86200  0.98200  0.30700  Biso   1.000  H
  H30      1.0000 0.63800  0.48200  0.19300  Biso   1.000  H
  H31      1.0000 0.13800  0.01800  0.69300  Biso   1.000  H
  H32      1.0000 0.36200  0.51800  0.80700  Biso   1.000  H
  H33      1.0000 0.97900  0.05400  0.10900  Biso   1.000  H
  H34      1.0000 0.52100  0.55400  0.39100  Biso   1.000  H
  H35      1.0000 0.02100  0.94600  0.89100  Biso   1.000  H
  H36      1.0000 0.47900  0.44600  0.60900  Biso   1.000  H
