data_image0
_cell_length_a       25.205
_cell_length_b       9.735
_cell_length_c       3.898
_cell_angle_alpha    90
_cell_angle_beta     90
_cell_angle_gamma    90

_symmetry_space_group_name_H-M    "P 1"
_symmetry_int_tables_number       1

loop_
  _symmetry_equiv_pos_as_xyz
  'x, y, z'

loop_
  _atom_site_label
  _atom_site_occupancy
  _atom_site_fract_x
  _atom_site_fract_y
  _atom_site_fract_z
  _atom_site_thermal_displace_type
  _atom_site_B_iso_or_equiv
  _atom_site_type_symbol
  Br1      1.0000 0.13520  0.14030  0.57350  Biso   1.000  Br
  Br2      1.0000 0.36480  0.64030  0.07350  Biso   1.000  Br
  Br3      1.0000 0.63520  0.14030  0.92650  Biso   1.000  Br
  Br4      1.0000 0.86480  0.64030  0.42650  Biso   1.000  Br
  Cu1      1.0000 0.13760  0.00000  0.07400  Biso   1.000  Cu
  Cu2      1.0000 0.36240  0.50000  0.57400  Biso   1.000  Cu
  Cu3      1.0000 0.63760  0.00000  0.42600  Biso   1.000  Cu
  Cu4      1.0000 0.86240  0.50000  0.92600  Biso   1.000  Cu
  N1       1.0000 0.14500  0.80200  0.09500  Biso   1.000  N
  N2       1.0000 0.35500  0.30200  0.59500  Biso   1.000  N
  N3       1.0000 0.64500  0.80200  0.40500  Biso   1.000  N
  N4       1.0000 0.85500  0.30200  0.90500  Biso   1.000  N
  C1       1.0000 0.18700  0.73500  0.21900  Biso   1.000  C
  C2       1.0000 0.31300  0.23500  0.71900  Biso   1.000  C
  C3       1.0000 0.68700  0.73500  0.28100  Biso   1.000  C
  C4       1.0000 0.81300  0.23500  0.78100  Biso   1.000  C
  C5       1.0000 0.23000  0.82000  0.34500  Biso   1.000  C
  C6       1.0000 0.27000  0.32000  0.84500  Biso   1.000  C
  C7       1.0000 0.73000  0.82000  0.15500  Biso   1.000  C
  C8       1.0000 0.77000  0.32000  0.65500  Biso   1.000  C
  C9       1.0000 0.19100  0.59200  0.22100  Biso   1.000  C
  C10      1.0000 0.30900  0.09200  0.72100  Biso   1.000  C
  C11      1.0000 0.69100  0.59200  0.27900  Biso   1.000  C
  C12      1.0000 0.80900  0.09200  0.77900  Biso   1.000  C
  C13      1.0000 0.15100  0.52300  0.12700  Biso   1.000  C
  C14      1.0000 0.34900  0.02300  0.62700  Biso   1.000  C
  C15      1.0000 0.65100  0.52300  0.37300  Biso   1.000  C
  C16      1.0000 0.84900  0.02300  0.87300  Biso   1.000  C
  C17      1.0000 0.10300  0.58100  0.98900  Biso   1.000  C
  C18      1.0000 0.39700  0.08100  0.48900  Biso   1.000  C
  C19      1.0000 0.60300  0.58100  0.51100  Biso   1.000  C
  C20      1.0000 0.89700  0.08100  0.01100  Biso   1.000  C
  C21      1.0000 0.06000  0.50900  0.86500  Biso   1.000  C
  C22      1.0000 0.44000  0.00900  0.36500  Biso   1.000  C
  C23      1.0000 0.56000  0.50900  0.63500  Biso   1.000  C
  C24      1.0000 0.94000  0.00900  0.13500  Biso   1.000  C
  C25      1.0000 0.01700  0.55900  0.74200  Biso   1.000  C
  C26      1.0000 0.48300  0.05900  0.24200  Biso   1.000  C
  C27      1.0000 0.51700  0.55900  0.75800  Biso   1.000  C
  C28      1.0000 0.98300  0.05900  0.25800  Biso   1.000  C
  C29      1.0000 0.01500  0.70500  0.72400  Biso   1.000  C
  C30      1.0000 0.48500  0.20500  0.22400  Biso   1.000  C
  C31      1.0000 0.51500  0.70500  0.77600  Biso   1.000  C
  C32      1.0000 0.98500  0.20500  0.27600  Biso   1.000  C
  C33      1.0000 0.05700  0.78300  0.83800  Biso   1.000  C
  C34      1.0000 0.44300  0.28300  0.33800  Biso   1.000  C
  C35      1.0000 0.55700  0.78300  0.66200  Biso   1.000  C
  C36      1.0000 0.94300  0.28300  0.16200  Biso   1.000  C
  C37      1.0000 0.10300  0.72600  0.97500  Biso   1.000  C
  C38      1.0000 0.39700  0.22600  0.47500  Biso   1.000  C
  C39      1.0000 0.60300  0.72600  0.52500  Biso   1.000  C
  C40      1.0000 0.89700  0.22600  0.02500  Biso   1.000  C
  H1       1.0000 0.22400  0.91800  0.31100  Biso   1.000  H
  H2       1.0000 0.27600  0.41800  0.81100  Biso   1.000  H
  H3       1.0000 0.72400  0.91800  0.18900  Biso   1.000  H
  H4       1.0000 0.77600  0.41800  0.68900  Biso   1.000  H
  H5       1.0000 0.23600  0.80400  0.58000  Biso   1.000  H
  H6       1.0000 0.26400  0.30400  0.08000  Biso   1.000  H
  H7       1.0000 0.73600  0.80400  0.92000  Biso   1.000  H
  H8       1.0000 0.76400  0.30400  0.42000  Biso   1.000  H
  H9       1.0000 0.26300  0.79400  0.22300  Biso   1.000  H
  H10      1.0000 0.23700  0.29400  0.72300  Biso   1.000  H
  H11      1.0000 0.76300  0.79400  0.27700  Biso   1.000  H
  H12      1.0000 0.73700  0.29400  0.77700  Biso   1.000  H
  H13      1.0000 0.22400  0.55500  0.32500  Biso   1.000  H
  H14      1.0000 0.27600  0.05500  0.82500  Biso   1.000  H
  H15      1.0000 0.72400  0.55500  0.17500  Biso   1.000  H
  H16      1.0000 0.77600  0.05500  0.67500  Biso   1.000  H
  H17      1.0000 0.15600  0.42300  0.12700  Biso   1.000  H
  H18      1.0000 0.34400  0.92300  0.62700  Biso   1.000  H
  H19      1.0000 0.65600  0.42300  0.37300  Biso   1.000  H
  H20      1.0000 0.84400  0.92300  0.87300  Biso   1.000  H
  H21      1.0000 0.06200  0.40700  0.87500  Biso   1.000  H
  H22      1.0000 0.43800  0.90700  0.37500  Biso   1.000  H
  H23      1.0000 0.56200  0.40700  0.62500  Biso   1.000  H
  H24      1.0000 0.93800  0.90700  0.12500  Biso   1.000  H
  H25      1.0000 0.98700  0.50900  0.66100  Biso   1.000  H
  H26      1.0000 0.51300  0.00900  0.16100  Biso   1.000  H
  H27      1.0000 0.48700  0.50900  0.83900  Biso   1.000  H
  H28      1.0000 0.01300  0.00900  0.33900  Biso   1.000  H
  H29      1.0000 0.98600  0.76200  0.62400  Biso   1.000  H
  H30      1.0000 0.51400  0.26200  0.12400  Biso   1.000  H
  H31      1.0000 0.48600  0.76200  0.87600  Biso   1.000  H
  H32      1.0000 0.01400  0.26200  0.37600  Biso   1.000  H
  H33      1.0000 0.05800  0.88100  0.82800  Biso   1.000  H
  H34      1.0000 0.44200  0.38100  0.32800  Biso   1.000  H
  H35      1.0000 0.55800  0.88100  0.67200  Biso   1.000  H
  H36      1.0000 0.94200  0.38100  0.17200  Biso   1.000  H
