data_image0
_cell_length_a       14.67
_cell_length_b       14.65
_cell_length_c       3.963
_cell_angle_alpha    90
_cell_angle_beta     90
_cell_angle_gamma    90

_symmetry_space_group_name_H-M    "P 1"
_symmetry_int_tables_number       1

loop_
  _symmetry_equiv_pos_as_xyz
  'x, y, z'

loop_
  _atom_site_label
  _atom_site_occupancy
  _atom_site_fract_x
  _atom_site_fract_y
  _atom_site_fract_z
  _atom_site_thermal_displace_type
  _atom_site_B_iso_or_equiv
  _atom_site_type_symbol
  Br1      1.0000 0.22780  0.00000  0.03950  Biso   1.000  Br
  Br2      1.0000 0.27220  0.50000  0.03950  Biso   1.000  Br
  Br3      1.0000 0.72780  0.00000  0.96050  Biso   1.000  Br
  Br4      1.0000 0.77220  0.50000  0.96050  Biso   1.000  Br
  Cu1      1.0000 0.16560  0.06970  0.57290  Biso   1.000  Cu
  Cu2      1.0000 0.33440  0.56970  0.57290  Biso   1.000  Cu
  Cu3      1.0000 0.66560  0.06970  0.42710  Biso   1.000  Cu
  Cu4      1.0000 0.83440  0.56970  0.42710  Biso   1.000  Cu
  N1       1.0000 0.07980  0.16400  0.42100  Biso   1.000  N
  N2       1.0000 0.42020  0.66400  0.42100  Biso   1.000  N
  N3       1.0000 0.57980  0.16400  0.57900  Biso   1.000  N
  N4       1.0000 0.92020  0.66400  0.57900  Biso   1.000  N
  C1       1.0000 0.11000  0.25100  0.35500  Biso   1.000  C
  C2       1.0000 0.39000  0.75100  0.35500  Biso   1.000  C
  C3       1.0000 0.61000  0.25100  0.64500  Biso   1.000  C
  C4       1.0000 0.89000  0.75100  0.64500  Biso   1.000  C
  C5       1.0000 0.20400  0.27000  0.45100  Biso   1.000  C
  C6       1.0000 0.29600  0.77000  0.45100  Biso   1.000  C
  C7       1.0000 0.70400  0.27000  0.54900  Biso   1.000  C
  C8       1.0000 0.79600  0.77000  0.54900  Biso   1.000  C
  C9       1.0000 0.05400  0.31400  0.21000  Biso   1.000  C
  C10      1.0000 0.44600  0.81400  0.21000  Biso   1.000  C
  C11      1.0000 0.55400  0.31400  0.79000  Biso   1.000  C
  C12      1.0000 0.94600  0.81400  0.79000  Biso   1.000  C
  C13      1.0000 0.96900  0.29100  0.12100  Biso   1.000  C
  C14      1.0000 0.53100  0.79100  0.12100  Biso   1.000  C
  C15      1.0000 0.46900  0.29100  0.87900  Biso   1.000  C
  C16      1.0000 0.03100  0.79100  0.87900  Biso   1.000  C
  C17      1.0000 0.93600  0.20500  0.18300  Biso   1.000  C
  C18      1.0000 0.56400  0.70500  0.18300  Biso   1.000  C
  C19      1.0000 0.43600  0.20500  0.81700  Biso   1.000  C
  C20      1.0000 0.06400  0.70500  0.81700  Biso   1.000  C
  C21      1.0000 0.99700  0.14200  0.33600  Biso   1.000  C
  C22      1.0000 0.50300  0.64200  0.33600  Biso   1.000  C
  C23      1.0000 0.49700  0.14200  0.66400  Biso   1.000  C
  C24      1.0000 0.00300  0.64200  0.66400  Biso   1.000  C
  C25      1.0000 0.97000  0.04400  0.39900  Biso   1.000  C
  C26      1.0000 0.53000  0.54400  0.39900  Biso   1.000  C
  C27      1.0000 0.47000  0.04400  0.60100  Biso   1.000  C
  C28      1.0000 0.03000  0.54400  0.60100  Biso   1.000  C
  H1       1.0000 0.20500  0.28400  0.71300  Biso   1.000  H
  H2       1.0000 0.29500  0.78400  0.71300  Biso   1.000  H
  H3       1.0000 0.70500  0.28400  0.28700  Biso   1.000  H
  H4       1.0000 0.79500  0.78400  0.28700  Biso   1.000  H
  H5       1.0000 0.21200  0.34400  0.39900  Biso   1.000  H
  H6       1.0000 0.28800  0.84400  0.39900  Biso   1.000  H
  H7       1.0000 0.71200  0.34400  0.60100  Biso   1.000  H
  H8       1.0000 0.78800  0.84400  0.60100  Biso   1.000  H
  H9       1.0000 0.24700  0.24000  0.38500  Biso   1.000  H
  H10      1.0000 0.25300  0.74000  0.38500  Biso   1.000  H
  H11      1.0000 0.74700  0.24000  0.61500  Biso   1.000  H
  H12      1.0000 0.75300  0.74000  0.61500  Biso   1.000  H
  H13      1.0000 0.06400  0.35500  0.08100  Biso   1.000  H
  H14      1.0000 0.43600  0.85500  0.08100  Biso   1.000  H
  H15      1.0000 0.56400  0.35500  0.91900  Biso   1.000  H
  H16      1.0000 0.93600  0.85500  0.91900  Biso   1.000  H
  H17      1.0000 0.91900  0.32800  0.00400  Biso   1.000  H
  H18      1.0000 0.58100  0.82800  0.00400  Biso   1.000  H
  H19      1.0000 0.41900  0.32800  0.99600  Biso   1.000  H
  H20      1.0000 0.08100  0.82800  0.99600  Biso   1.000  H
  H21      1.0000 0.87300  0.18000  0.12400  Biso   1.000  H
  H22      1.0000 0.62700  0.68000  0.12400  Biso   1.000  H
  H23      1.0000 0.37300  0.18000  0.87600  Biso   1.000  H
  H24      1.0000 0.12700  0.68000  0.87600  Biso   1.000  H
  H25      1.0000 0.91400  0.05300  0.53600  Biso   1.000  H
  H26      1.0000 0.58600  0.55300  0.53600  Biso   1.000  H
  H27      1.0000 0.41400  0.05300  0.46400  Biso   1.000  H
  H28      1.0000 0.08600  0.55300  0.46400  Biso   1.000  H
  H29      1.0000 0.95700  0.01200  0.19700  Biso   1.000  H
  H30      1.0000 0.54300  0.51200  0.19700  Biso   1.000  H
  H31      1.0000 0.45700  0.01200  0.80300  Biso   1.000  H
  H32      1.0000 0.04300  0.51200  0.80300  Biso   1.000  H
  H33      1.0000 0.01500  0.01200  0.52500  Biso   1.000  H
  H34      1.0000 0.48500  0.51200  0.52500  Biso   1.000  H
  H35      1.0000 0.51500  0.01200  0.47500  Biso   1.000  H
  H36      1.0000 0.98500  0.51200  0.47500  Biso   1.000  H
