data_image0
_cell_length_a       16.134
_cell_length_b       14.604
_cell_length_c       3.963
_cell_angle_alpha    90
_cell_angle_beta     90
_cell_angle_gamma    90

_symmetry_space_group_name_H-M    "P 1"
_symmetry_int_tables_number       1

loop_
  _symmetry_equiv_pos_as_xyz
  'x, y, z'

loop_
  _atom_site_label
  _atom_site_occupancy
  _atom_site_fract_x
  _atom_site_fract_y
  _atom_site_fract_z
  _atom_site_thermal_displace_type
  _atom_site_B_iso_or_equiv
  _atom_site_type_symbol
  Br1      1.0000 0.90490  0.50000  0.83690  Biso   1.000  Br
  Br2      1.0000 0.59510  0.00000  0.83690  Biso   1.000  Br
  Br3      1.0000 0.40490  0.50000  0.16310  Biso   1.000  Br
  Br4      1.0000 0.09510  0.00000  0.16310  Biso   1.000  Br
  Cu1      1.0000 0.97860  0.44980  0.29600  Biso   1.000  Cu
  Cu2      1.0000 0.52140  0.94980  0.29600  Biso   1.000  Cu
  Cu3      1.0000 0.47860  0.44980  0.70400  Biso   1.000  Cu
  Cu4      1.0000 0.02140  0.94980  0.70400  Biso   1.000  Cu
  N1       1.0000 0.07300  0.37500  0.46800  Biso   1.000  N
  N2       1.0000 0.42700  0.87500  0.46800  Biso   1.000  N
  N3       1.0000 0.57300  0.37500  0.53200  Biso   1.000  N
  N4       1.0000 0.92700  0.87500  0.53200  Biso   1.000  N
  C1       1.0000 0.14500  0.42000  0.51700  Biso   1.000  C
  C2       1.0000 0.35500  0.92000  0.51700  Biso   1.000  C
  C3       1.0000 0.64500  0.42000  0.48300  Biso   1.000  C
  C4       1.0000 0.85500  0.92000  0.48300  Biso   1.000  C
  C5       1.0000 0.15400  0.52400  0.44300  Biso   1.000  C
  C6       1.0000 0.34600  0.02400  0.44300  Biso   1.000  C
  C7       1.0000 0.65400  0.52400  0.55700  Biso   1.000  C
  C8       1.0000 0.84600  0.02400  0.55700  Biso   1.000  C
  C9       1.0000 0.20900  0.37600  0.70000  Biso   1.000  C
  C10      1.0000 0.29100  0.87600  0.70000  Biso   1.000  C
  C11      1.0000 0.70900  0.37600  0.30000  Biso   1.000  C
  C12      1.0000 0.79100  0.87600  0.30000  Biso   1.000  C
  C13      1.0000 0.20200  0.28600  0.77900  Biso   1.000  C
  C14      1.0000 0.29800  0.78600  0.77900  Biso   1.000  C
  C15      1.0000 0.70200  0.28600  0.22100  Biso   1.000  C
  C16      1.0000 0.79800  0.78600  0.22100  Biso   1.000  C
  C17      1.0000 0.27000  0.23600  0.97000  Biso   1.000  C
  C18      1.0000 0.23000  0.73600  0.97000  Biso   1.000  C
  C19      1.0000 0.77000  0.23600  0.03000  Biso   1.000  C
  C20      1.0000 0.73000  0.73600  0.03000  Biso   1.000  C
  C21      1.0000 0.12900  0.24100  0.70900  Biso   1.000  C
  C22      1.0000 0.37100  0.74100  0.70900  Biso   1.000  C
  C23      1.0000 0.62900  0.24100  0.29100  Biso   1.000  C
  C24      1.0000 0.87100  0.74100  0.29100  Biso   1.000  C
  C25      1.0000 0.07000  0.28800  0.53400  Biso   1.000  C
  C26      1.0000 0.43000  0.78800  0.53400  Biso   1.000  C
  C27      1.0000 0.57000  0.28800  0.46600  Biso   1.000  C
  C28      1.0000 0.93000  0.78800  0.46600  Biso   1.000  C
  C29      1.0000 0.98600  0.24300  0.44900  Biso   1.000  C
  C30      1.0000 0.51400  0.74300  0.44900  Biso   1.000  C
  C31      1.0000 0.48600  0.24300  0.55100  Biso   1.000  C
  C32      1.0000 0.01400  0.74300  0.55100  Biso   1.000  C
  H1       1.0000 0.12000  0.52700  0.23500  Biso   1.000  H
  H2       1.0000 0.38000  0.02700  0.23500  Biso   1.000  H
  H3       1.0000 0.62000  0.52700  0.76500  Biso   1.000  H
  H4       1.0000 0.88000  0.02700  0.76500  Biso   1.000  H
  H5       1.0000 0.21000  0.53500  0.38900  Biso   1.000  H
  H6       1.0000 0.29000  0.03500  0.38900  Biso   1.000  H
  H7       1.0000 0.71000  0.53500  0.61100  Biso   1.000  H
  H8       1.0000 0.79000  0.03500  0.61100  Biso   1.000  H
  H9       1.0000 0.13200  0.55600  0.60300  Biso   1.000  H
  H10      1.0000 0.36800  0.05600  0.60300  Biso   1.000  H
  H11      1.0000 0.63200  0.55600  0.39700  Biso   1.000  H
  H12      1.0000 0.86800  0.05600  0.39700  Biso   1.000  H
  H13      1.0000 0.26000  0.40500  0.75900  Biso   1.000  H
  H14      1.0000 0.24000  0.90500  0.75900  Biso   1.000  H
  H15      1.0000 0.76000  0.40500  0.24100  Biso   1.000  H
  H16      1.0000 0.74000  0.90500  0.24100  Biso   1.000  H
  H17      1.0000 0.30600  0.27700  0.06000  Biso   1.000  H
  H18      1.0000 0.19400  0.77700  0.06000  Biso   1.000  H
  H19      1.0000 0.80600  0.27700  0.94000  Biso   1.000  H
  H20      1.0000 0.69400  0.77700  0.94000  Biso   1.000  H
  H21      1.0000 0.30100  0.19600  0.81100  Biso   1.000  H
  H22      1.0000 0.19900  0.69600  0.81100  Biso   1.000  H
  H23      1.0000 0.80100  0.19600  0.18900  Biso   1.000  H
  H24      1.0000 0.69900  0.69600  0.18900  Biso   1.000  H
  H25      1.0000 0.24900  0.19600  0.14900  Biso   1.000  H
  H26      1.0000 0.25100  0.69600  0.14900  Biso   1.000  H
  H27      1.0000 0.74900  0.19600  0.85100  Biso   1.000  H
  H28      1.0000 0.75100  0.69600  0.85100  Biso   1.000  H
  H29      1.0000 0.11800  0.17100  0.78900  Biso   1.000  H
  H30      1.0000 0.38200  0.67100  0.78900  Biso   1.000  H
  H31      1.0000 0.61800  0.17100  0.21100  Biso   1.000  H
  H32      1.0000 0.88200  0.67100  0.21100  Biso   1.000  H
  H33      1.0000 0.94300  0.27000  0.57500  Biso   1.000  H
  H34      1.0000 0.55700  0.77000  0.57500  Biso   1.000  H
  H35      1.0000 0.44300  0.27000  0.42500  Biso   1.000  H
  H36      1.0000 0.05700  0.77000  0.42500  Biso   1.000  H
  H37      1.0000 0.97300  0.25200  0.20800  Biso   1.000  H
  H38      1.0000 0.52700  0.75200  0.20800  Biso   1.000  H
  H39      1.0000 0.47300  0.25200  0.79200  Biso   1.000  H
  H40      1.0000 0.02700  0.75200  0.79200  Biso   1.000  H
  H41      1.0000 0.98100  0.17700  0.47700  Biso   1.000  H
  H42      1.0000 0.51900  0.67700  0.47700  Biso   1.000  H
  H43      1.0000 0.48100  0.17700  0.52300  Biso   1.000  H
  H44      1.0000 0.01900  0.67700  0.52300  Biso   1.000  H
