data_image0
_cell_length_a       12.519
_cell_length_b       12.519
_cell_length_c       10.257
_cell_angle_alpha    90
_cell_angle_beta     90
_cell_angle_gamma    120

_symmetry_space_group_name_H-M    "P 1"
_symmetry_int_tables_number       1

loop_
  _symmetry_equiv_pos_as_xyz
  'x, y, z'

loop_
  _atom_site_label
  _atom_site_occupancy
  _atom_site_fract_x
  _atom_site_fract_y
  _atom_site_fract_z
  _atom_site_thermal_displace_type
  _atom_site_B_iso_or_equiv
  _atom_site_type_symbol
  Cu1      1.0000 0.07461  0.99758  0.43878  Biso   1.000  Cu
  Cu2      1.0000 0.00242  0.07703  0.77211  Biso   1.000  Cu
  Cu3      1.0000 0.92297  0.92539  0.10545  Biso   1.000  Cu
  P1       1.0000 0.22624  0.17620  0.51882  Biso   1.000  P
  P2       1.0000 0.82380  0.05004  0.85215  Biso   1.000  P
  P3       1.0000 0.94996  0.77376  0.18549  Biso   1.000  P
  Cl1      1.0000 0.94385  0.92043  0.61768  Biso   1.000  Cl
  Cl2      1.0000 0.07957  0.02342  0.95101  Biso   1.000  Cl
  Cl3      1.0000 0.97658  0.05615  0.28435  Biso   1.000  Cl
  S1       1.0000 0.31424  0.33315  0.39652  Biso   1.000  S
  S2       1.0000 0.66685  0.98109  0.72985  Biso   1.000  S
  S3       1.0000 0.01891  0.68576  0.06319  Biso   1.000  S
  S4       1.0000 0.37805  0.19415  0.62503  Biso   1.000  S
  S5       1.0000 0.80585  0.18390  0.95836  Biso   1.000  S
  S6       1.0000 0.81610  0.62195  0.29170  Biso   1.000  S
  S7       1.0000 0.14013  0.24865  0.64837  Biso   1.000  S
  S8       1.0000 0.75135  0.89148  0.98170  Biso   1.000  S
  S9       1.0000 0.10852  0.85987  0.31504  Biso   1.000  S
  C1       1.0000 0.38340  0.27560  0.28690  Biso   1.000  C
  C2       1.0000 0.72440  0.10780  0.62023  Biso   1.000  C
  C3       1.0000 0.89220  0.61660  0.95357  Biso   1.000  C
  C4       1.0000 0.31590  0.19680  0.18530  Biso   1.000  C
  C5       1.0000 0.80320  0.11910  0.51863  Biso   1.000  C
  C6       1.0000 0.88090  0.68410  0.85197  Biso   1.000  C
  H1       1.0000 0.23110  0.17120  0.17430  Biso   1.000  H
  H2       1.0000 0.82880  0.05990  0.50763  Biso   1.000  H
  H3       1.0000 0.94010  0.76890  0.84097  Biso   1.000  H
  C7       1.0000 0.37380  0.15630  0.10080  Biso   1.000  C
  C8       1.0000 0.84370  0.21750  0.43413  Biso   1.000  C
  C9       1.0000 0.78250  0.62620  0.76747  Biso   1.000  C
  H4       1.0000 0.32770  0.10200  0.03180  Biso   1.000  H
  H5       1.0000 0.89800  0.22570  0.36513  Biso   1.000  H
  H6       1.0000 0.77430  0.67230  0.69847  Biso   1.000  H
  C10      1.0000 0.49630  0.19260  0.11380  Biso   1.000  C
  C11      1.0000 0.80740  0.30370  0.44713  Biso   1.000  C
  C12      1.0000 0.69630  0.50370  0.78047  Biso   1.000  C
  H7       1.0000 0.53480  0.16510  0.05330  Biso   1.000  H
  H8       1.0000 0.83490  0.36970  0.38663  Biso   1.000  H
  H9       1.0000 0.63030  0.46520  0.71997  Biso   1.000  H
  C13      1.0000 0.56330  0.26900  0.21500  Biso   1.000  C
  C14      1.0000 0.73100  0.29430  0.54833  Biso   1.000  C
  C15      1.0000 0.70570  0.43670  0.88167  Biso   1.000  C
  H10      1.0000 0.64790  0.29310  0.22480  Biso   1.000  H
  H11      1.0000 0.70690  0.35480  0.55813  Biso   1.000  H
  H12      1.0000 0.64520  0.35210  0.89147  Biso   1.000  H
  C16      1.0000 0.50820  0.31110  0.30280  Biso   1.000  C
  C17      1.0000 0.68890  0.19710  0.63613  Biso   1.000  C
  C18      1.0000 0.80290  0.49180  0.96947  Biso   1.000  C
  H13      1.0000 0.55450  0.36350  0.37290  Biso   1.000  H
  H14      1.0000 0.63650  0.19100  0.70623  Biso   1.000  H
  H15      1.0000 0.80900  0.44550  0.03957  Biso   1.000  H
  C19      1.0000 0.34430  0.03730  0.63670  Biso   1.000  C
  C20      1.0000 0.96270  0.30700  0.97003  Biso   1.000  C
  C21      1.0000 0.69300  0.65570  0.30337  Biso   1.000  C
  C22      1.0000 0.27970  0.96660  0.74160  Biso   1.000  C
  C23      1.0000 0.03340  0.31310  0.07493  Biso   1.000  C
  C24      1.0000 0.68690  0.72030  0.40827  Biso   1.000  C
  H16      1.0000 0.24380  0.99640  0.80270  Biso   1.000  H
  H17      1.0000 0.00360  0.24740  0.13603  Biso   1.000  H
  H18      1.0000 0.75260  0.75620  0.46937  Biso   1.000  H
  C25      1.0000 0.26750  0.84990  0.75740  Biso   1.000  C
  C26      1.0000 0.15010  0.41760  0.09073  Biso   1.000  C
  C27      1.0000 0.58240  0.73250  0.42407  Biso   1.000  C
  H19      1.0000 0.22260  0.79930  0.82910  Biso   1.000  H
  H20      1.0000 0.20070  0.42330  0.16243  Biso   1.000  H
  H21      1.0000 0.57670  0.77740  0.49577  Biso   1.000  H
  C28      1.0000 0.32170  0.80900  0.66720  Biso   1.000  C
  C29      1.0000 0.19100  0.51270  0.00053  Biso   1.000  C
  C30      1.0000 0.48730  0.67830  0.33387  Biso   1.000  C
  H22      1.0000 0.31600  0.73110  0.67910  Biso   1.000  H
  H23      1.0000 0.26890  0.58490  0.01243  Biso   1.000  H
  H24      1.0000 0.41510  0.68400  0.34577  Biso   1.000  H
  C31      1.0000 0.38350  0.87980  0.56120  Biso   1.000  C
  C32      1.0000 0.12020  0.50370  0.89453  Biso   1.000  C
  C33      1.0000 0.49630  0.61650  0.22787  Biso   1.000  C
  H25      1.0000 0.41910  0.85030  0.49940  Biso   1.000  H
  H26      1.0000 0.14970  0.56880  0.83273  Biso   1.000  H
  H27      1.0000 0.43120  0.58090  0.16607  Biso   1.000  H
  C34      1.0000 0.39360  0.99310  0.54440  Biso   1.000  C
  C35      1.0000 0.00690  0.40050  0.87773  Biso   1.000  C
  C36      1.0000 0.59950  0.60640  0.21107  Biso   1.000  C
  H28      1.0000 0.43440  0.04130  0.46980  Biso   1.000  H
  H29      1.0000 0.95870  0.39310  0.80313  Biso   1.000  H
  H30      1.0000 0.60690  0.56560  0.13647  Biso   1.000  H
  C37      1.0000 0.27010  0.36630  0.73590  Biso   1.000  C
  C38      1.0000 0.63370  0.90380  0.06923  Biso   1.000  C
  C39      1.0000 0.09620  0.72990  0.40257  Biso   1.000  C
  C40      1.0000 0.33500  0.48510  0.68300  Biso   1.000  C
  C41      1.0000 0.51490  0.84990  0.01633  Biso   1.000  C
  C42      1.0000 0.15010  0.66500  0.34967  Biso   1.000  C
  H31      1.0000 0.31040  0.50340  0.60230  Biso   1.000  H
  H32      1.0000 0.49660  0.80700  0.93563  Biso   1.000  H
  H33      1.0000 0.19300  0.68960  0.26897  Biso   1.000  H
  C43      1.0000 0.43720  0.57680  0.75110  Biso   1.000  C
  C44      1.0000 0.42320  0.86040  0.08443  Biso   1.000  C
  C45      1.0000 0.13960  0.56280  0.41777  Biso   1.000  C
  H34      1.0000 0.48250  0.65800  0.71670  Biso   1.000  H
  H35      1.0000 0.34200  0.82450  0.05003  Biso   1.000  H
  H36      1.0000 0.17550  0.51750  0.38337  Biso   1.000  H
  C46      1.0000 0.47110  0.54850  0.86740  Biso   1.000  C
  C47      1.0000 0.45150  0.92260  0.20073  Biso   1.000  C
  C48      1.0000 0.07740  0.52890  0.53407  Biso   1.000  C
  H37      1.0000 0.54120  0.61020  0.91250  Biso   1.000  H
  H38      1.0000 0.38980  0.93100  0.24583  Biso   1.000  H
  H39      1.0000 0.06900  0.45880  0.57917  Biso   1.000  H
  C49      1.0000 0.40450  0.43100  0.92000  Biso   1.000  C
  C50      1.0000 0.56900  0.97350  0.25333  Biso   1.000  C
  C51      1.0000 0.02650  0.59550  0.58667  Biso   1.000  C
  H40      1.0000 0.42860  0.41340  0.00140  Biso   1.000  H
  H41      1.0000 0.58660  0.01520  0.33473  Biso   1.000  H
  H42      1.0000 0.98480  0.57140  0.66807  Biso   1.000  H
  C52      1.0000 0.30290  0.33890  0.85490  Biso   1.000  C
  C53      1.0000 0.66110  0.96400  0.18823  Biso   1.000  C
  C54      1.0000 0.03600  0.69710  0.52157  Biso   1.000  C
  H43      1.0000 0.25680  0.25860  0.89130  Biso   1.000  H
  H44      1.0000 0.74140  0.99820  0.22463  Biso   1.000  H
  H45      1.0000 0.00180  0.74320  0.55797  Biso   1.000  H
