data_image0
_cell_length_a       8.4594
_cell_length_b       8.4594
_cell_length_c       32.3006
_cell_angle_alpha    90
_cell_angle_beta     90
_cell_angle_gamma    90

_symmetry_space_group_name_H-M    "P 1"
_symmetry_int_tables_number       1

loop_
  _symmetry_equiv_pos_as_xyz
  'x, y, z'

loop_
  _atom_site_label
  _atom_site_occupancy
  _atom_site_fract_x
  _atom_site_fract_y
  _atom_site_fract_z
  _atom_site_thermal_displace_type
  _atom_site_B_iso_or_equiv
  _atom_site_type_symbol
  I1       1.0000 0.26440  0.30050  0.59142  Biso   1.000  I
  I2       1.0000 0.19950  0.76440  0.84142  Biso   1.000  I
  I3       1.0000 0.73560  0.69950  0.09142  Biso   1.000  I
  I4       1.0000 0.80050  0.23560  0.34142  Biso   1.000  I
  I5       1.0000 0.76440  0.19950  0.15858  Biso   1.000  I
  I6       1.0000 0.23560  0.80050  0.65858  Biso   1.000  I
  I7       1.0000 0.30050  0.26440  0.40858  Biso   1.000  I
  I8       1.0000 0.69950  0.73560  0.90858  Biso   1.000  I
  Cu1      1.0000 0.16922  0.59500  0.59410  Biso   1.000  Cu
  Cu2      1.0000 0.90500  0.66922  0.84410  Biso   1.000  Cu
  Cu3      1.0000 0.83078  0.40500  0.09410  Biso   1.000  Cu
  Cu4      1.0000 0.09500  0.33078  0.34410  Biso   1.000  Cu
  Cu5      1.0000 0.66922  0.90500  0.15590  Biso   1.000  Cu
  Cu6      1.0000 0.33078  0.09500  0.65590  Biso   1.000  Cu
  Cu7      1.0000 0.59500  0.16922  0.40590  Biso   1.000  Cu
  Cu8      1.0000 0.40500  0.83078  0.90590  Biso   1.000  Cu
  N1       1.0000 0.23700  0.69300  0.54050  Biso   1.000  N
  N2       1.0000 0.80700  0.73700  0.79050  Biso   1.000  N
  N3       1.0000 0.76300  0.30700  0.04050  Biso   1.000  N
  N4       1.0000 0.19300  0.26300  0.29050  Biso   1.000  N
  N5       1.0000 0.73700  0.80700  0.20950  Biso   1.000  N
  N6       1.0000 0.26300  0.19300  0.70950  Biso   1.000  N
  N7       1.0000 0.69300  0.23700  0.45950  Biso   1.000  N
  N8       1.0000 0.30700  0.76300  0.95950  Biso   1.000  N
  C1       1.0000 0.24100  0.86400  0.53600  Biso   1.000  C
  C2       1.0000 0.63600  0.74100  0.78600  Biso   1.000  C
  C3       1.0000 0.75900  0.13600  0.03600  Biso   1.000  C
  C4       1.0000 0.36400  0.25900  0.28600  Biso   1.000  C
  C5       1.0000 0.74100  0.63600  0.21400  Biso   1.000  C
  C6       1.0000 0.25900  0.36400  0.71400  Biso   1.000  C
  C7       1.0000 0.86400  0.24100  0.46400  Biso   1.000  C
  C8       1.0000 0.13600  0.75900  0.96400  Biso   1.000  C
  H1       1.0000 0.22050  0.92410  0.56020  Biso   1.000  H
  H2       1.0000 0.57590  0.72050  0.81020  Biso   1.000  H
  H3       1.0000 0.77950  0.07590  0.06020  Biso   1.000  H
  H4       1.0000 0.42410  0.27950  0.31020  Biso   1.000  H
  H5       1.0000 0.72050  0.57590  0.18980  Biso   1.000  H
  H6       1.0000 0.27950  0.42410  0.68980  Biso   1.000  H
  H7       1.0000 0.92410  0.22050  0.43980  Biso   1.000  H
  H8       1.0000 0.07590  0.77950  0.93980  Biso   1.000  H
  C9       1.0000 0.26400  0.93200  0.50710  Biso   1.000  C
  C10      1.0000 0.56800  0.76400  0.75710  Biso   1.000  C
  C11      1.0000 0.73600  0.06800  0.00710  Biso   1.000  C
  C12      1.0000 0.43200  0.23600  0.25710  Biso   1.000  C
  C13      1.0000 0.76400  0.56800  0.24290  Biso   1.000  C
  C14      1.0000 0.23600  0.43200  0.74290  Biso   1.000  C
  C15      1.0000 0.93200  0.26400  0.49290  Biso   1.000  C
  C16      1.0000 0.06800  0.73600  0.99290  Biso   1.000  C
  H9       1.0000 0.27900  0.04280  0.50850  Biso   1.000  H
  H10      1.0000 0.45720  0.77900  0.75850  Biso   1.000  H
  H11      1.0000 0.72100  0.95720  0.00850  Biso   1.000  H
  H12      1.0000 0.54280  0.22100  0.25850  Biso   1.000  H
  H13      1.0000 0.77900  0.45720  0.24150  Biso   1.000  H
  H14      1.0000 0.22100  0.54280  0.74150  Biso   1.000  H
  H15      1.0000 0.04280  0.27900  0.49150  Biso   1.000  H
  H16      1.0000 0.95720  0.72100  0.99150  Biso   1.000  H
  C17      1.0000 0.27370  0.85040  0.46700  Biso   1.000  C
  C18      1.0000 0.64960  0.77370  0.71700  Biso   1.000  C
  C19      1.0000 0.72630  0.14960  0.96700  Biso   1.000  C
  C20      1.0000 0.35040  0.22630  0.21700  Biso   1.000  C
  C21      1.0000 0.77370  0.64960  0.28300  Biso   1.000  C
  C22      1.0000 0.22630  0.35040  0.78300  Biso   1.000  C
  C23      1.0000 0.85040  0.27370  0.53300  Biso   1.000  C
  C24      1.0000 0.14960  0.72630  0.03300  Biso   1.000  C
  H17      1.0000 0.28380  0.90680  0.44170  Biso   1.000  H
  H18      1.0000 0.59320  0.78380  0.69170  Biso   1.000  H
  H19      1.0000 0.71620  0.09320  0.94170  Biso   1.000  H
  H20      1.0000 0.40680  0.21620  0.19170  Biso   1.000  H
  H21      1.0000 0.78380  0.59320  0.30830  Biso   1.000  H
  H22      1.0000 0.21620  0.40680  0.80830  Biso   1.000  H
  H23      1.0000 0.90680  0.28380  0.55830  Biso   1.000  H
  H24      1.0000 0.09320  0.71620  0.05830  Biso   1.000  H
  C25      1.0000 0.26700  0.68980  0.46820  Biso   1.000  C
  C26      1.0000 0.81020  0.76700  0.71820  Biso   1.000  C
  C27      1.0000 0.73300  0.31020  0.96820  Biso   1.000  C
  C28      1.0000 0.18980  0.23300  0.21820  Biso   1.000  C
  C29      1.0000 0.76700  0.81020  0.28180  Biso   1.000  C
  C30      1.0000 0.23300  0.18980  0.78180  Biso   1.000  C
  C31      1.0000 0.68980  0.26700  0.53180  Biso   1.000  C
  C32      1.0000 0.31020  0.73300  0.03180  Biso   1.000  C
  H25      1.0000 0.28040  0.63100  0.44340  Biso   1.000  H
  H26      1.0000 0.86900  0.78040  0.69340  Biso   1.000  H
  H27      1.0000 0.71960  0.36900  0.94340  Biso   1.000  H
  H28      1.0000 0.13100  0.21960  0.19340  Biso   1.000  H
  H29      1.0000 0.78040  0.86900  0.30660  Biso   1.000  H
  H30      1.0000 0.21960  0.13100  0.80660  Biso   1.000  H
  H31      1.0000 0.63100  0.28040  0.55660  Biso   1.000  H
  H32      1.0000 0.36900  0.71960  0.05660  Biso   1.000  H
  C33      1.0000 0.24100  0.61200  0.50470  Biso   1.000  C
  C34      1.0000 0.88800  0.74100  0.75470  Biso   1.000  C
  C35      1.0000 0.75900  0.38800  0.00470  Biso   1.000  C
  C36      1.0000 0.11200  0.25900  0.25470  Biso   1.000  C
  C37      1.0000 0.74100  0.88800  0.24530  Biso   1.000  C
  C38      1.0000 0.25900  0.11200  0.74530  Biso   1.000  C
  C39      1.0000 0.61200  0.24100  0.49530  Biso   1.000  C
  C40      1.0000 0.38800  0.75900  0.99530  Biso   1.000  C
  H33      1.0000 0.22600  0.50060  0.50470  Biso   1.000  H
  H34      1.0000 0.99940  0.72600  0.75470  Biso   1.000  H
  H35      1.0000 0.77400  0.49940  0.00470  Biso   1.000  H
  H36      1.0000 0.00060  0.27400  0.25470  Biso   1.000  H
  H37      1.0000 0.72600  0.99940  0.24530  Biso   1.000  H
  H38      1.0000 0.27400  0.00060  0.74530  Biso   1.000  H
  H39      1.0000 0.50060  0.22600  0.49530  Biso   1.000  H
  H40      1.0000 0.49940  0.77400  0.99530  Biso   1.000  H
  N9       1.0000 0.92410  0.60320  0.59207  Biso   1.000  N
  N10      1.0000 0.89680  0.42410  0.84207  Biso   1.000  N
  N11      1.0000 0.07590  0.39680  0.09207  Biso   1.000  N
  N12      1.0000 0.10320  0.57590  0.34207  Biso   1.000  N
  N13      1.0000 0.42410  0.89680  0.15793  Biso   1.000  N
  N14      1.0000 0.57590  0.10320  0.65793  Biso   1.000  N
  N15      1.0000 0.60320  0.92410  0.40793  Biso   1.000  N
  N16      1.0000 0.39680  0.07590  0.90793  Biso   1.000  N
  C41      1.0000 0.83900  0.53430  0.62415  Biso   1.000  C
  C42      1.0000 0.96570  0.33900  0.87415  Biso   1.000  C
  C43      1.0000 0.16100  0.46570  0.12415  Biso   1.000  C
  C44      1.0000 0.03430  0.66100  0.37415  Biso   1.000  C
  C45      1.0000 0.33900  0.96570  0.12585  Biso   1.000  C
  C46      1.0000 0.66100  0.03430  0.62585  Biso   1.000  C
  C47      1.0000 0.53430  0.83900  0.37585  Biso   1.000  C
  C48      1.0000 0.46570  0.16100  0.87585  Biso   1.000  C
  H41      1.0000 0.89310  0.48200  0.64600  Biso   1.000  H
  H42      1.0000 0.01800  0.39310  0.89600  Biso   1.000  H
  H43      1.0000 0.10690  0.51800  0.14600  Biso   1.000  H
  H44      1.0000 0.98200  0.60690  0.39600  Biso   1.000  H
  H45      1.0000 0.39310  0.01800  0.10400  Biso   1.000  H
  H46      1.0000 0.60690  0.98200  0.60400  Biso   1.000  H
  H47      1.0000 0.48200  0.89310  0.35400  Biso   1.000  H
  H48      1.0000 0.51800  0.10690  0.85400  Biso   1.000  H
  C49      1.0000 0.67490  0.54170  0.62425  Biso   1.000  C
  C50      1.0000 0.95830  0.17490  0.87425  Biso   1.000  C
  C51      1.0000 0.32510  0.45830  0.12425  Biso   1.000  C
  C52      1.0000 0.04170  0.82510  0.37425  Biso   1.000  C
  C53      1.0000 0.17490  0.95830  0.12575  Biso   1.000  C
  C54      1.0000 0.82510  0.04170  0.62575  Biso   1.000  C
  C55      1.0000 0.54170  0.67490  0.37575  Biso   1.000  C
  C56      1.0000 0.45830  0.32510  0.87575  Biso   1.000  C
  H49      1.0000 0.61670  0.49450  0.64620  Biso   1.000  H
  H50      1.0000 0.00550  0.11670  0.89620  Biso   1.000  H
  H51      1.0000 0.38330  0.50550  0.14620  Biso   1.000  H
  H52      1.0000 0.99450  0.88330  0.39620  Biso   1.000  H
  H53      1.0000 0.11670  0.00550  0.10380  Biso   1.000  H
  H54      1.0000 0.88330  0.99450  0.60380  Biso   1.000  H
  H55      1.0000 0.49450  0.61670  0.35380  Biso   1.000  H
  H56      1.0000 0.50550  0.38330  0.85380  Biso   1.000  H
  C57      1.0000 0.59580  0.61800  0.59227  Biso   1.000  C
  C58      1.0000 0.88200  0.09580  0.84227  Biso   1.000  C
  C59      1.0000 0.40420  0.38200  0.09227  Biso   1.000  C
  C60      1.0000 0.11800  0.90420  0.34227  Biso   1.000  C
  C61      1.0000 0.09580  0.88200  0.15773  Biso   1.000  C
  C62      1.0000 0.90420  0.11800  0.65773  Biso   1.000  C
  C63      1.0000 0.61800  0.59580  0.40773  Biso   1.000  C
  C64      1.0000 0.38200  0.40420  0.90773  Biso   1.000  C
  H57      1.0000 0.48360  0.62310  0.59230  Biso   1.000  H
  H58      1.0000 0.87690  0.98360  0.84230  Biso   1.000  H
  H59      1.0000 0.51640  0.37690  0.09230  Biso   1.000  H
  H60      1.0000 0.12310  0.01640  0.34230  Biso   1.000  H
  H61      1.0000 0.98360  0.87690  0.15770  Biso   1.000  H
  H62      1.0000 0.01640  0.12310  0.65770  Biso   1.000  H
  H63      1.0000 0.62310  0.48360  0.40770  Biso   1.000  H
  H64      1.0000 0.37690  0.51640  0.90770  Biso   1.000  H
  C65      1.0000 0.68090  0.68700  0.56019  Biso   1.000  C
  C66      1.0000 0.81300  0.18090  0.81019  Biso   1.000  C
  C67      1.0000 0.31910  0.31300  0.06019  Biso   1.000  C
  C68      1.0000 0.18700  0.81910  0.31019  Biso   1.000  C
  C69      1.0000 0.18090  0.81300  0.18981  Biso   1.000  C
  C70      1.0000 0.81910  0.18700  0.68981  Biso   1.000  C
  C71      1.0000 0.68700  0.68090  0.43981  Biso   1.000  C
  C72      1.0000 0.31300  0.31910  0.93981  Biso   1.000  C
  H65      1.0000 0.62680  0.73920  0.53830  Biso   1.000  H
  H66      1.0000 0.76080  0.12680  0.78830  Biso   1.000  H
  H67      1.0000 0.37320  0.26080  0.03830  Biso   1.000  H
  H68      1.0000 0.23920  0.87320  0.28830  Biso   1.000  H
  H69      1.0000 0.12680  0.76080  0.21170  Biso   1.000  H
  H70      1.0000 0.87320  0.23920  0.71170  Biso   1.000  H
  H71      1.0000 0.73920  0.62680  0.46170  Biso   1.000  H
  H72      1.0000 0.26080  0.37320  0.96170  Biso   1.000  H
  C73      1.0000 0.84500  0.67960  0.56009  Biso   1.000  C
  C74      1.0000 0.82040  0.34500  0.81009  Biso   1.000  C
  C75      1.0000 0.15500  0.32040  0.06009  Biso   1.000  C
  C76      1.0000 0.17960  0.65500  0.31009  Biso   1.000  C
  C77      1.0000 0.34500  0.82040  0.18991  Biso   1.000  C
  C78      1.0000 0.65500  0.17960  0.68991  Biso   1.000  C
  C79      1.0000 0.67960  0.84500  0.43991  Biso   1.000  C
  C80      1.0000 0.32040  0.15500  0.93991  Biso   1.000  C
  H73      1.0000 0.90320  0.72680  0.53820  Biso   1.000  H
  H74      1.0000 0.77320  0.40320  0.78820  Biso   1.000  H
  H75      1.0000 0.09680  0.27320  0.03820  Biso   1.000  H
  H76      1.0000 0.22680  0.59680  0.28820  Biso   1.000  H
  H77      1.0000 0.40320  0.77320  0.21180  Biso   1.000  H
  H78      1.0000 0.59680  0.22680  0.71180  Biso   1.000  H
  H79      1.0000 0.72680  0.90320  0.46180  Biso   1.000  H
  H80      1.0000 0.27320  0.09680  0.96180  Biso   1.000  H
  I9       1.0000 0.26450  0.26790  0.59051  Biso   1.000  I
  I10      1.0000 0.23210  0.76450  0.84051  Biso   1.000  I
  I11      1.0000 0.73550  0.73210  0.09051  Biso   1.000  I
  I12      1.0000 0.76790  0.23550  0.34051  Biso   1.000  I
  I13      1.0000 0.76450  0.23210  0.15949  Biso   1.000  I
  I14      1.0000 0.23550  0.76790  0.65949  Biso   1.000  I
  I15      1.0000 0.26790  0.26450  0.40949  Biso   1.000  I
  I16      1.0000 0.73210  0.73550  0.90949  Biso   1.000  I
  Cu9      1.0000 0.32940  0.47220  0.65813  Biso   1.000  Cu
  Cu10     1.0000 0.02780  0.82940  0.90813  Biso   1.000  Cu
  Cu11     1.0000 0.67060  0.52780  0.15813  Biso   1.000  Cu
  Cu12     1.0000 0.97220  0.17060  0.40813  Biso   1.000  Cu
  Cu13     1.0000 0.82940  0.02780  0.09187  Biso   1.000  Cu
  Cu14     1.0000 0.17060  0.97220  0.59187  Biso   1.000  Cu
  Cu15     1.0000 0.47220  0.32940  0.34187  Biso   1.000  Cu
  Cu16     1.0000 0.52780  0.67060  0.84187  Biso   1.000  Cu
  N17      1.0000 0.23300  0.85100  0.54140  Biso   1.000  N
  N18      1.0000 0.64900  0.73300  0.79140  Biso   1.000  N
  N19      1.0000 0.76700  0.14900  0.04140  Biso   1.000  N
  N20      1.0000 0.35100  0.26700  0.29140  Biso   1.000  N
  N21      1.0000 0.73300  0.64900  0.20860  Biso   1.000  N
  N22      1.0000 0.26700  0.35100  0.70860  Biso   1.000  N
  N23      1.0000 0.85100  0.23300  0.45860  Biso   1.000  N
  N24      1.0000 0.14900  0.76700  0.95860  Biso   1.000  N
  C81      1.0000 0.23500  0.70800  0.53950  Biso   1.000  C
  C82      1.0000 0.79200  0.73500  0.78950  Biso   1.000  C
  C83      1.0000 0.76500  0.29200  0.03950  Biso   1.000  C
  C84      1.0000 0.20800  0.26500  0.28950  Biso   1.000  C
  C85      1.0000 0.73500  0.79200  0.21050  Biso   1.000  C
  C86      1.0000 0.26500  0.20800  0.71050  Biso   1.000  C
  C87      1.0000 0.70800  0.23500  0.46050  Biso   1.000  C
  C88      1.0000 0.29200  0.76500  0.96050  Biso   1.000  C
  H81      1.0000 0.19380  0.65150  0.56250  Biso   1.000  H
  H82      1.0000 0.84850  0.69380  0.81250  Biso   1.000  H
  H83      1.0000 0.80620  0.34850  0.06250  Biso   1.000  H
  H84      1.0000 0.15150  0.30620  0.31250  Biso   1.000  H
  H85      1.0000 0.69380  0.84850  0.18750  Biso   1.000  H
  H86      1.0000 0.30620  0.15150  0.68750  Biso   1.000  H
  H87      1.0000 0.65150  0.19380  0.43750  Biso   1.000  H
  H88      1.0000 0.34850  0.80620  0.93750  Biso   1.000  H
  C89      1.0000 0.29490  0.61800  0.50610  Biso   1.000  C
  C90      1.0000 0.88200  0.79490  0.75610  Biso   1.000  C
  C91      1.0000 0.70510  0.38200  0.00610  Biso   1.000  C
  C92      1.0000 0.11800  0.20510  0.25610  Biso   1.000  C
  C93      1.0000 0.79490  0.88200  0.24390  Biso   1.000  C
  C94      1.0000 0.20510  0.11800  0.74390  Biso   1.000  C
  C95      1.0000 0.61800  0.29490  0.49390  Biso   1.000  C
  C96      1.0000 0.38200  0.70510  0.99390  Biso   1.000  C
  H89      1.0000 0.30690  0.50730  0.50890  Biso   1.000  H
  H90      1.0000 0.99270  0.80690  0.75890  Biso   1.000  H
  H91      1.0000 0.69310  0.49270  0.00890  Biso   1.000  H
  H92      1.0000 0.00730  0.19310  0.25890  Biso   1.000  H
  H93      1.0000 0.80690  0.99270  0.24110  Biso   1.000  H
  H94      1.0000 0.19310  0.00730  0.74110  Biso   1.000  H
  H95      1.0000 0.50730  0.30690  0.49110  Biso   1.000  H
  H96      1.0000 0.49270  0.69310  0.99110  Biso   1.000  H
  C97      1.0000 0.33630  0.69200  0.46900  Biso   1.000  C
  C98      1.0000 0.80800  0.83630  0.71900  Biso   1.000  C
  C99      1.0000 0.66370  0.30800  0.96900  Biso   1.000  C
  C100     1.0000 0.19200  0.16370  0.21900  Biso   1.000  C
  C101     1.0000 0.83630  0.80800  0.28100  Biso   1.000  C
  C102     1.0000 0.16370  0.19200  0.78100  Biso   1.000  C
  C103     1.0000 0.69200  0.33630  0.53100  Biso   1.000  C
  C104     1.0000 0.30800  0.66370  0.03100  Biso   1.000  C
  H97      1.0000 0.36700  0.63250  0.44540  Biso   1.000  H
  H98      1.0000 0.86750  0.86700  0.69540  Biso   1.000  H
  H99      1.0000 0.63300  0.36750  0.94540  Biso   1.000  H
  H100     1.0000 0.13250  0.13300  0.19540  Biso   1.000  H
  H101     1.0000 0.86700  0.86750  0.30460  Biso   1.000  H
  H102     1.0000 0.13300  0.13250  0.80460  Biso   1.000  H
  H103     1.0000 0.63250  0.36700  0.55460  Biso   1.000  H
  H104     1.0000 0.36750  0.63300  0.05460  Biso   1.000  H
  C105     1.0000 0.33060  0.85700  0.46810  Biso   1.000  C
  C106     1.0000 0.64300  0.83060  0.71810  Biso   1.000  C
  C107     1.0000 0.66940  0.14300  0.96810  Biso   1.000  C
  C108     1.0000 0.35700  0.16940  0.21810  Biso   1.000  C
  C109     1.0000 0.83060  0.64300  0.28190  Biso   1.000  C
  C110     1.0000 0.16940  0.35700  0.78190  Biso   1.000  C
  C111     1.0000 0.85700  0.33060  0.53190  Biso   1.000  C
  C112     1.0000 0.14300  0.66940  0.03190  Biso   1.000  C
  H105     1.0000 0.36800  0.91270  0.44440  Biso   1.000  H
  H106     1.0000 0.58730  0.86800  0.69440  Biso   1.000  H
  H107     1.0000 0.63200  0.08730  0.94440  Biso   1.000  H
  H108     1.0000 0.41270  0.13200  0.19440  Biso   1.000  H
  H109     1.0000 0.86800  0.58730  0.30560  Biso   1.000  H
  H110     1.0000 0.13200  0.41270  0.80560  Biso   1.000  H
  H111     1.0000 0.91270  0.36800  0.55560  Biso   1.000  H
  H112     1.0000 0.08730  0.63200  0.05560  Biso   1.000  H
  C113     1.0000 0.27400  0.93600  0.49950  Biso   1.000  C
  C114     1.0000 0.56400  0.77400  0.74950  Biso   1.000  C
  C115     1.0000 0.72600  0.06400  0.99950  Biso   1.000  C
  C116     1.0000 0.43600  0.22600  0.24950  Biso   1.000  C
  C117     1.0000 0.77400  0.56400  0.25050  Biso   1.000  C
  C118     1.0000 0.22600  0.43600  0.75050  Biso   1.000  C
  C119     1.0000 0.93600  0.27400  0.50050  Biso   1.000  C
  C120     1.0000 0.06400  0.72600  0.00050  Biso   1.000  C
  H113     1.0000 0.25820  0.04680  0.49700  Biso   1.000  H
  H114     1.0000 0.45320  0.75820  0.74700  Biso   1.000  H
  H115     1.0000 0.74180  0.95320  0.99700  Biso   1.000  H
  H116     1.0000 0.54680  0.24180  0.24700  Biso   1.000  H
  H117     1.0000 0.75820  0.45320  0.25300  Biso   1.000  H
  H118     1.0000 0.24180  0.54680  0.75300  Biso   1.000  H
  H119     1.0000 0.04680  0.25820  0.50300  Biso   1.000  H
  H120     1.0000 0.95320  0.74180  0.00300  Biso   1.000  H
  N25      1.0000 0.57450  0.47830  0.66099  Biso   1.000  N
  N26      1.0000 0.02170  0.07450  0.91099  Biso   1.000  N
  N27      1.0000 0.42550  0.52170  0.16099  Biso   1.000  N
  N28      1.0000 0.97830  0.92550  0.41099  Biso   1.000  N
  N29      1.0000 0.07450  0.02170  0.08901  Biso   1.000  N
  N30      1.0000 0.92550  0.97830  0.58901  Biso   1.000  N
  N31      1.0000 0.47830  0.57450  0.33901  Biso   1.000  N
  N32      1.0000 0.52170  0.42550  0.83901  Biso   1.000  N
  C121     1.0000 0.65700  0.39570  0.69127  Biso   1.000  C
  C122     1.0000 0.10430  0.15700  0.94127  Biso   1.000  C
  C123     1.0000 0.34300  0.60430  0.19127  Biso   1.000  C
  C124     1.0000 0.89570  0.84300  0.44127  Biso   1.000  C
  C125     1.0000 0.15700  0.10430  0.05873  Biso   1.000  C
  C126     1.0000 0.84300  0.89570  0.55873  Biso   1.000  C
  C127     1.0000 0.39570  0.65700  0.30873  Biso   1.000  C
  C128     1.0000 0.60430  0.34300  0.80873  Biso   1.000  C
  H121     1.0000 0.60100  0.33890  0.71200  Biso   1.000  H
  H122     1.0000 0.16110  0.10100  0.96200  Biso   1.000  H
  H123     1.0000 0.39900  0.66110  0.21200  Biso   1.000  H
  H124     1.0000 0.83890  0.89900  0.46200  Biso   1.000  H
  H125     1.0000 0.10100  0.16110  0.03800  Biso   1.000  H
  H126     1.0000 0.89900  0.83890  0.53800  Biso   1.000  H
  H127     1.0000 0.33890  0.60100  0.28800  Biso   1.000  H
  H128     1.0000 0.66110  0.39900  0.78800  Biso   1.000  H
  C129     1.0000 0.82130  0.39610  0.69125  Biso   1.000  C
  C130     1.0000 0.10390  0.32130  0.94125  Biso   1.000  C
  C131     1.0000 0.17870  0.60390  0.19125  Biso   1.000  C
  C132     1.0000 0.89610  0.67870  0.44125  Biso   1.000  C
  C133     1.0000 0.32130  0.10390  0.05875  Biso   1.000  C
  C134     1.0000 0.67870  0.89610  0.55875  Biso   1.000  C
  C135     1.0000 0.39610  0.82130  0.30875  Biso   1.000  C
  C136     1.0000 0.60390  0.17870  0.80875  Biso   1.000  C
  H129     1.0000 0.87760  0.33960  0.71190  Biso   1.000  H
  H130     1.0000 0.16040  0.37760  0.96190  Biso   1.000  H
  H131     1.0000 0.12240  0.66040  0.21190  Biso   1.000  H
  H132     1.0000 0.83960  0.62240  0.46190  Biso   1.000  H
  H133     1.0000 0.37760  0.16040  0.03810  Biso   1.000  H
  H134     1.0000 0.62240  0.83960  0.53810  Biso   1.000  H
  H135     1.0000 0.33960  0.87760  0.28810  Biso   1.000  H
  H136     1.0000 0.66040  0.12240  0.78810  Biso   1.000  H
  C137     1.0000 0.90310  0.47920  0.66095  Biso   1.000  C
  C138     1.0000 0.02080  0.40310  0.91095  Biso   1.000  C
  C139     1.0000 0.09690  0.52080  0.16095  Biso   1.000  C
  C140     1.0000 0.97920  0.59690  0.41095  Biso   1.000  C
  C141     1.0000 0.40310  0.02080  0.08905  Biso   1.000  C
  C142     1.0000 0.59690  0.97920  0.58905  Biso   1.000  C
  C143     1.0000 0.47920  0.90310  0.33905  Biso   1.000  C
  C144     1.0000 0.52080  0.09690  0.83905  Biso   1.000  C
  H137     1.0000 0.01540  0.47960  0.66090  Biso   1.000  H
  H138     1.0000 0.02040  0.51540  0.91090  Biso   1.000  H
  H139     1.0000 0.98460  0.52040  0.16090  Biso   1.000  H
  H140     1.0000 0.97960  0.48460  0.41090  Biso   1.000  H
  H141     1.0000 0.51540  0.02040  0.08910  Biso   1.000  H
  H142     1.0000 0.48460  0.97960  0.58910  Biso   1.000  H
  H143     1.0000 0.47960  0.01540  0.33910  Biso   1.000  H
  H144     1.0000 0.52040  0.98460  0.83910  Biso   1.000  H
  C145     1.0000 0.82070  0.56190  0.63067  Biso   1.000  C
  C146     1.0000 0.93810  0.32070  0.88067  Biso   1.000  C
  C147     1.0000 0.17930  0.43810  0.13067  Biso   1.000  C
  C148     1.0000 0.06190  0.67930  0.38067  Biso   1.000  C
  C149     1.0000 0.32070  0.93810  0.11933  Biso   1.000  C
  C150     1.0000 0.67930  0.06190  0.61933  Biso   1.000  C
  C151     1.0000 0.56190  0.82070  0.36933  Biso   1.000  C
  C152     1.0000 0.43810  0.17930  0.86933  Biso   1.000  C
  H145     1.0000 0.87670  0.61870  0.61000  Biso   1.000  H
  H146     1.0000 0.88130  0.37670  0.86000  Biso   1.000  H
  H147     1.0000 0.12330  0.38130  0.11000  Biso   1.000  H
  H148     1.0000 0.11870  0.62330  0.36000  Biso   1.000  H
  H149     1.0000 0.37670  0.88130  0.14000  Biso   1.000  H
  H150     1.0000 0.62330  0.11870  0.64000  Biso   1.000  H
  H151     1.0000 0.61870  0.87670  0.39000  Biso   1.000  H
  H152     1.0000 0.38130  0.12330  0.89000  Biso   1.000  H
  C153     1.0000 0.65640  0.56150  0.63069  Biso   1.000  C
  C154     1.0000 0.93850  0.15640  0.88069  Biso   1.000  C
  C155     1.0000 0.34360  0.43850  0.13069  Biso   1.000  C
  C156     1.0000 0.06150  0.84360  0.38069  Biso   1.000  C
  C157     1.0000 0.15640  0.93850  0.11931  Biso   1.000  C
  C158     1.0000 0.84360  0.06150  0.61931  Biso   1.000  C
  C159     1.0000 0.56150  0.65640  0.36931  Biso   1.000  C
  C160     1.0000 0.43850  0.34360  0.86931  Biso   1.000  C
  H153     1.0000 0.60000  0.61800  0.61000  Biso   1.000  H
  H154     1.0000 0.88200  0.10000  0.86000  Biso   1.000  H
  H155     1.0000 0.40000  0.38200  0.11000  Biso   1.000  H
  H156     1.0000 0.11800  0.90000  0.36000  Biso   1.000  H
  H157     1.0000 0.10000  0.88200  0.14000  Biso   1.000  H
  H158     1.0000 0.90000  0.11800  0.64000  Biso   1.000  H
  H159     1.0000 0.61800  0.60000  0.39000  Biso   1.000  H
  H160     1.0000 0.38200  0.40000  0.89000  Biso   1.000  H
