data_image0
_cell_length_a       8.4825
_cell_length_b       8.4825
_cell_length_c       32.4333
_cell_angle_alpha    90
_cell_angle_beta     90
_cell_angle_gamma    90

_symmetry_space_group_name_H-M    "P 1"
_symmetry_int_tables_number       1

loop_
  _symmetry_equiv_pos_as_xyz
  'x, y, z'

loop_
  _atom_site_label
  _atom_site_occupancy
  _atom_site_fract_x
  _atom_site_fract_y
  _atom_site_fract_z
  _atom_site_thermal_displace_type
  _atom_site_B_iso_or_equiv
  _atom_site_type_symbol
  I1       1.0000 0.26410  0.30160  0.59147  Biso   1.000  I
  I2       1.0000 0.19840  0.76410  0.84147  Biso   1.000  I
  I3       1.0000 0.73590  0.69840  0.09147  Biso   1.000  I
  I4       1.0000 0.80160  0.23590  0.34147  Biso   1.000  I
  I5       1.0000 0.76410  0.19840  0.15853  Biso   1.000  I
  I6       1.0000 0.23590  0.80160  0.65853  Biso   1.000  I
  I7       1.0000 0.30160  0.26410  0.40853  Biso   1.000  I
  I8       1.0000 0.69840  0.73590  0.90853  Biso   1.000  I
  Cu1      1.0000 0.16913  0.59534  0.59410  Biso   1.000  Cu
  Cu2      1.0000 0.90466  0.66913  0.84410  Biso   1.000  Cu
  Cu3      1.0000 0.83087  0.40466  0.09410  Biso   1.000  Cu
  Cu4      1.0000 0.09534  0.33087  0.34410  Biso   1.000  Cu
  Cu5      1.0000 0.66913  0.90466  0.15590  Biso   1.000  Cu
  Cu6      1.0000 0.33087  0.09534  0.65590  Biso   1.000  Cu
  Cu7      1.0000 0.59534  0.16913  0.40590  Biso   1.000  Cu
  Cu8      1.0000 0.40466  0.83087  0.90590  Biso   1.000  Cu
  N1       1.0000 0.23700  0.69100  0.54040  Biso   1.000  N
  N2       1.0000 0.80900  0.73700  0.79040  Biso   1.000  N
  N3       1.0000 0.76300  0.30900  0.04040  Biso   1.000  N
  N4       1.0000 0.19100  0.26300  0.29040  Biso   1.000  N
  N5       1.0000 0.73700  0.80900  0.20960  Biso   1.000  N
  N6       1.0000 0.26300  0.19100  0.70960  Biso   1.000  N
  N7       1.0000 0.69100  0.23700  0.45960  Biso   1.000  N
  N8       1.0000 0.30900  0.76300  0.95960  Biso   1.000  N
  C1       1.0000 0.23800  0.86400  0.53580  Biso   1.000  C
  C2       1.0000 0.63600  0.73800  0.78580  Biso   1.000  C
  C3       1.0000 0.76200  0.13600  0.03580  Biso   1.000  C
  C4       1.0000 0.36400  0.26200  0.28580  Biso   1.000  C
  C5       1.0000 0.73800  0.63600  0.21420  Biso   1.000  C
  C6       1.0000 0.26200  0.36400  0.71420  Biso   1.000  C
  C7       1.0000 0.86400  0.23800  0.46420  Biso   1.000  C
  C8       1.0000 0.13600  0.76200  0.96420  Biso   1.000  C
  H1       1.0000 0.21070  0.92470  0.55930  Biso   1.000  H
  H2       1.0000 0.57530  0.71070  0.80930  Biso   1.000  H
  H3       1.0000 0.78930  0.07530  0.05930  Biso   1.000  H
  H4       1.0000 0.42470  0.28930  0.30930  Biso   1.000  H
  H5       1.0000 0.71070  0.57530  0.19070  Biso   1.000  H
  H6       1.0000 0.28930  0.42470  0.69070  Biso   1.000  H
  H7       1.0000 0.92470  0.21070  0.44070  Biso   1.000  H
  H8       1.0000 0.07530  0.78930  0.94070  Biso   1.000  H
  C9       1.0000 0.26800  0.92800  0.50740  Biso   1.000  C
  C10      1.0000 0.57200  0.76800  0.75740  Biso   1.000  C
  C11      1.0000 0.73200  0.07200  0.00740  Biso   1.000  C
  C12      1.0000 0.42800  0.23200  0.25740  Biso   1.000  C
  C13      1.0000 0.76800  0.57200  0.24260  Biso   1.000  C
  C14      1.0000 0.23200  0.42800  0.74260  Biso   1.000  C
  C15      1.0000 0.92800  0.26800  0.49260  Biso   1.000  C
  C16      1.0000 0.07200  0.73200  0.99260  Biso   1.000  C
  H9       1.0000 0.28860  0.03790  0.50880  Biso   1.000  H
  H10      1.0000 0.46210  0.78860  0.75880  Biso   1.000  H
  H11      1.0000 0.71140  0.96210  0.00880  Biso   1.000  H
  H12      1.0000 0.53790  0.21140  0.25880  Biso   1.000  H
  H13      1.0000 0.78860  0.46210  0.24120  Biso   1.000  H
  H14      1.0000 0.21140  0.53790  0.74120  Biso   1.000  H
  H15      1.0000 0.03790  0.28860  0.49120  Biso   1.000  H
  H16      1.0000 0.96210  0.71140  0.99120  Biso   1.000  H
  C17      1.0000 0.27580  0.84800  0.46780  Biso   1.000  C
  C18      1.0000 0.65200  0.77580  0.71780  Biso   1.000  C
  C19      1.0000 0.72420  0.15200  0.96780  Biso   1.000  C
  C20      1.0000 0.34800  0.22420  0.21780  Biso   1.000  C
  C21      1.0000 0.77580  0.65200  0.28220  Biso   1.000  C
  C22      1.0000 0.22420  0.34800  0.78220  Biso   1.000  C
  C23      1.0000 0.84800  0.27580  0.53220  Biso   1.000  C
  C24      1.0000 0.15200  0.72420  0.03220  Biso   1.000  C
  H17      1.0000 0.28690  0.90370  0.44260  Biso   1.000  H
  H18      1.0000 0.59630  0.78690  0.69260  Biso   1.000  H
  H19      1.0000 0.71310  0.09630  0.94260  Biso   1.000  H
  H20      1.0000 0.40370  0.21310  0.19260  Biso   1.000  H
  H21      1.0000 0.78690  0.59630  0.30740  Biso   1.000  H
  H22      1.0000 0.21310  0.40370  0.80740  Biso   1.000  H
  H23      1.0000 0.90370  0.28690  0.55740  Biso   1.000  H
  H24      1.0000 0.09630  0.71310  0.05740  Biso   1.000  H
  C25      1.0000 0.26640  0.68710  0.46910  Biso   1.000  C
  C26      1.0000 0.81290  0.76640  0.71910  Biso   1.000  C
  C27      1.0000 0.73360  0.31290  0.96910  Biso   1.000  C
  C28      1.0000 0.18710  0.23360  0.21910  Biso   1.000  C
  C29      1.0000 0.76640  0.81290  0.28090  Biso   1.000  C
  C30      1.0000 0.23360  0.18710  0.78090  Biso   1.000  C
  C31      1.0000 0.68710  0.26640  0.53090  Biso   1.000  C
  C32      1.0000 0.31290  0.73360  0.03090  Biso   1.000  C
  H25      1.0000 0.27520  0.62820  0.44430  Biso   1.000  H
  H26      1.0000 0.87180  0.77520  0.69430  Biso   1.000  H
  H27      1.0000 0.72480  0.37180  0.94430  Biso   1.000  H
  H28      1.0000 0.12820  0.22480  0.19430  Biso   1.000  H
  H29      1.0000 0.77520  0.87180  0.30570  Biso   1.000  H
  H30      1.0000 0.22480  0.12820  0.80570  Biso   1.000  H
  H31      1.0000 0.62820  0.27520  0.55570  Biso   1.000  H
  H32      1.0000 0.37180  0.72480  0.05570  Biso   1.000  H
  C33      1.0000 0.24400  0.61000  0.50590  Biso   1.000  C
  C34      1.0000 0.89000  0.74400  0.75590  Biso   1.000  C
  C35      1.0000 0.75600  0.39000  0.00590  Biso   1.000  C
  C36      1.0000 0.11000  0.25600  0.25590  Biso   1.000  C
  C37      1.0000 0.74400  0.89000  0.24410  Biso   1.000  C
  C38      1.0000 0.25600  0.11000  0.74410  Biso   1.000  C
  C39      1.0000 0.61000  0.24400  0.49410  Biso   1.000  C
  C40      1.0000 0.39000  0.75600  0.99410  Biso   1.000  C
  H33      1.0000 0.23450  0.49820  0.50640  Biso   1.000  H
  H34      1.0000 0.00180  0.73450  0.75640  Biso   1.000  H
  H35      1.0000 0.76550  0.50180  0.00640  Biso   1.000  H
  H36      1.0000 0.99820  0.26550  0.25640  Biso   1.000  H
  H37      1.0000 0.73450  0.00180  0.24360  Biso   1.000  H
  H38      1.0000 0.26550  0.99820  0.74360  Biso   1.000  H
  H39      1.0000 0.49820  0.23450  0.49360  Biso   1.000  H
  H40      1.0000 0.50180  0.76550  0.99360  Biso   1.000  H
  N9       1.0000 0.92470  0.60250  0.59191  Biso   1.000  N
  N10      1.0000 0.89750  0.42470  0.84191  Biso   1.000  N
  N11      1.0000 0.07530  0.39750  0.09191  Biso   1.000  N
  N12      1.0000 0.10250  0.57530  0.34191  Biso   1.000  N
  N13      1.0000 0.42470  0.89750  0.15809  Biso   1.000  N
  N14      1.0000 0.57530  0.10250  0.65809  Biso   1.000  N
  N15      1.0000 0.60250  0.92470  0.40809  Biso   1.000  N
  N16      1.0000 0.39750  0.07530  0.90809  Biso   1.000  N
  C41      1.0000 0.84040  0.53380  0.62396  Biso   1.000  C
  C42      1.0000 0.96620  0.34040  0.87396  Biso   1.000  C
  C43      1.0000 0.15960  0.46620  0.12396  Biso   1.000  C
  C44      1.0000 0.03380  0.65960  0.37396  Biso   1.000  C
  C45      1.0000 0.34040  0.96620  0.12604  Biso   1.000  C
  C46      1.0000 0.65960  0.03380  0.62604  Biso   1.000  C
  C47      1.0000 0.53380  0.84040  0.37604  Biso   1.000  C
  C48      1.0000 0.46620  0.15960  0.87604  Biso   1.000  C
  H41      1.0000 0.89460  0.48110  0.64560  Biso   1.000  H
  H42      1.0000 0.01890  0.39460  0.89560  Biso   1.000  H
  H43      1.0000 0.10540  0.51890  0.14560  Biso   1.000  H
  H44      1.0000 0.98110  0.60540  0.39560  Biso   1.000  H
  H45      1.0000 0.39460  0.01890  0.10440  Biso   1.000  H
  H46      1.0000 0.60540  0.98110  0.60440  Biso   1.000  H
  H47      1.0000 0.48110  0.89460  0.35440  Biso   1.000  H
  H48      1.0000 0.51890  0.10540  0.85440  Biso   1.000  H
  C49      1.0000 0.67670  0.54200  0.62439  Biso   1.000  C
  C50      1.0000 0.95800  0.17670  0.87439  Biso   1.000  C
  C51      1.0000 0.32330  0.45800  0.12439  Biso   1.000  C
  C52      1.0000 0.04200  0.82330  0.37439  Biso   1.000  C
  C53      1.0000 0.17670  0.95800  0.12561  Biso   1.000  C
  C54      1.0000 0.82330  0.04200  0.62561  Biso   1.000  C
  C55      1.0000 0.54200  0.67670  0.37561  Biso   1.000  C
  C56      1.0000 0.45800  0.32330  0.87561  Biso   1.000  C
  H49      1.0000 0.61910  0.49500  0.64630  Biso   1.000  H
  H50      1.0000 0.00500  0.11910  0.89630  Biso   1.000  H
  H51      1.0000 0.38090  0.50500  0.14630  Biso   1.000  H
  H52      1.0000 0.99500  0.88090  0.39630  Biso   1.000  H
  H53      1.0000 0.11910  0.00500  0.10370  Biso   1.000  H
  H54      1.0000 0.88090  0.99500  0.60370  Biso   1.000  H
  H55      1.0000 0.49500  0.61910  0.35370  Biso   1.000  H
  H56      1.0000 0.50500  0.38090  0.85370  Biso   1.000  H
  C57      1.0000 0.59730  0.61890  0.59280  Biso   1.000  C
  C58      1.0000 0.88110  0.09730  0.84280  Biso   1.000  C
  C59      1.0000 0.40270  0.38110  0.09280  Biso   1.000  C
  C60      1.0000 0.11890  0.90270  0.34280  Biso   1.000  C
  C61      1.0000 0.09730  0.88110  0.15720  Biso   1.000  C
  C62      1.0000 0.90270  0.11890  0.65720  Biso   1.000  C
  C63      1.0000 0.61890  0.59730  0.40720  Biso   1.000  C
  C64      1.0000 0.38110  0.40270  0.90720  Biso   1.000  C
  H57      1.0000 0.48550  0.62460  0.59300  Biso   1.000  H
  H58      1.0000 0.87540  0.98550  0.84300  Biso   1.000  H
  H59      1.0000 0.51450  0.37540  0.09300  Biso   1.000  H
  H60      1.0000 0.12460  0.01450  0.34300  Biso   1.000  H
  H61      1.0000 0.98550  0.87540  0.15700  Biso   1.000  H
  H62      1.0000 0.01450  0.12460  0.65700  Biso   1.000  H
  H63      1.0000 0.62460  0.48550  0.40700  Biso   1.000  H
  H64      1.0000 0.37540  0.51450  0.90700  Biso   1.000  H
  C65      1.0000 0.68160  0.68770  0.56070  Biso   1.000  C
  C66      1.0000 0.81230  0.18160  0.81070  Biso   1.000  C
  C67      1.0000 0.31840  0.31230  0.06070  Biso   1.000  C
  C68      1.0000 0.18770  0.81840  0.31070  Biso   1.000  C
  C69      1.0000 0.18160  0.81230  0.18930  Biso   1.000  C
  C70      1.0000 0.81840  0.18770  0.68930  Biso   1.000  C
  C71      1.0000 0.68770  0.68160  0.43930  Biso   1.000  C
  C72      1.0000 0.31230  0.31840  0.93930  Biso   1.000  C
  H65      1.0000 0.62740  0.74030  0.53910  Biso   1.000  H
  H66      1.0000 0.75970  0.12740  0.78910  Biso   1.000  H
  H67      1.0000 0.37260  0.25970  0.03910  Biso   1.000  H
  H68      1.0000 0.24030  0.87260  0.28910  Biso   1.000  H
  H69      1.0000 0.12740  0.75970  0.21090  Biso   1.000  H
  H70      1.0000 0.87260  0.24030  0.71090  Biso   1.000  H
  H71      1.0000 0.74030  0.62740  0.46090  Biso   1.000  H
  H72      1.0000 0.25970  0.37260  0.96090  Biso   1.000  H
  C73      1.0000 0.84530  0.67950  0.56028  Biso   1.000  C
  C74      1.0000 0.82050  0.34530  0.81028  Biso   1.000  C
  C75      1.0000 0.15470  0.32050  0.06028  Biso   1.000  C
  C76      1.0000 0.17950  0.65470  0.31028  Biso   1.000  C
  C77      1.0000 0.34530  0.82050  0.18972  Biso   1.000  C
  C78      1.0000 0.65470  0.17950  0.68972  Biso   1.000  C
  C79      1.0000 0.67950  0.84530  0.43972  Biso   1.000  C
  C80      1.0000 0.32050  0.15470  0.93972  Biso   1.000  C
  H73      1.0000 0.90290  0.72650  0.53840  Biso   1.000  H
  H74      1.0000 0.77350  0.40290  0.78840  Biso   1.000  H
  H75      1.0000 0.09710  0.27350  0.03840  Biso   1.000  H
  H76      1.0000 0.22650  0.59710  0.28840  Biso   1.000  H
  H77      1.0000 0.40290  0.77350  0.21160  Biso   1.000  H
  H78      1.0000 0.59710  0.22650  0.71160  Biso   1.000  H
  H79      1.0000 0.72650  0.90290  0.46160  Biso   1.000  H
  H80      1.0000 0.27350  0.09710  0.96160  Biso   1.000  H
  I9       1.0000 0.26410  0.26630  0.59056  Biso   1.000  I
  I10      1.0000 0.23370  0.76410  0.84056  Biso   1.000  I
  I11      1.0000 0.73590  0.73370  0.09056  Biso   1.000  I
  I12      1.0000 0.76630  0.23590  0.34056  Biso   1.000  I
  I13      1.0000 0.76410  0.23370  0.15944  Biso   1.000  I
  I14      1.0000 0.23590  0.76630  0.65944  Biso   1.000  I
  I15      1.0000 0.26630  0.26410  0.40944  Biso   1.000  I
  I16      1.0000 0.73370  0.73590  0.90944  Biso   1.000  I
  Cu9      1.0000 0.32958  0.47159  0.65811  Biso   1.000  Cu
  Cu10     1.0000 0.02841  0.82958  0.90811  Biso   1.000  Cu
  Cu11     1.0000 0.67042  0.52841  0.15811  Biso   1.000  Cu
  Cu12     1.0000 0.97159  0.17042  0.40811  Biso   1.000  Cu
  Cu13     1.0000 0.82958  0.02841  0.09189  Biso   1.000  Cu
  Cu14     1.0000 0.17042  0.97159  0.59189  Biso   1.000  Cu
  Cu15     1.0000 0.47159  0.32958  0.34189  Biso   1.000  Cu
  Cu16     1.0000 0.52841  0.67042  0.84189  Biso   1.000  Cu
  N17      1.0000 0.23600  0.85100  0.54200  Biso   1.000  N
  N18      1.0000 0.64900  0.73600  0.79200  Biso   1.000  N
  N19      1.0000 0.76400  0.14900  0.04200  Biso   1.000  N
  N20      1.0000 0.35100  0.26400  0.29200  Biso   1.000  N
  N21      1.0000 0.73600  0.64900  0.20800  Biso   1.000  N
  N22      1.0000 0.26400  0.35100  0.70800  Biso   1.000  N
  N23      1.0000 0.85100  0.23600  0.45800  Biso   1.000  N
  N24      1.0000 0.14900  0.76400  0.95800  Biso   1.000  N
  C81      1.0000 0.23600  0.71300  0.54010  Biso   1.000  C
  C82      1.0000 0.78700  0.73600  0.79010  Biso   1.000  C
  C83      1.0000 0.76400  0.28700  0.04010  Biso   1.000  C
  C84      1.0000 0.21300  0.26400  0.29010  Biso   1.000  C
  C85      1.0000 0.73600  0.78700  0.20990  Biso   1.000  C
  C86      1.0000 0.26400  0.21300  0.70990  Biso   1.000  C
  C87      1.0000 0.71300  0.23600  0.45990  Biso   1.000  C
  C88      1.0000 0.28700  0.76400  0.95990  Biso   1.000  C
  H81      1.0000 0.19520  0.65590  0.56300  Biso   1.000  H
  H82      1.0000 0.84410  0.69520  0.81300  Biso   1.000  H
  H83      1.0000 0.80480  0.34410  0.06300  Biso   1.000  H
  H84      1.0000 0.15590  0.30480  0.31300  Biso   1.000  H
  H85      1.0000 0.69520  0.84410  0.18700  Biso   1.000  H
  H86      1.0000 0.30480  0.15590  0.68700  Biso   1.000  H
  H87      1.0000 0.65590  0.19520  0.43700  Biso   1.000  H
  H88      1.0000 0.34410  0.80480  0.93700  Biso   1.000  H
  C89      1.0000 0.29300  0.62300  0.50550  Biso   1.000  C
  C90      1.0000 0.87700  0.79300  0.75550  Biso   1.000  C
  C91      1.0000 0.70700  0.37700  0.00550  Biso   1.000  C
  C92      1.0000 0.12300  0.20700  0.25550  Biso   1.000  C
  C93      1.0000 0.79300  0.87700  0.24450  Biso   1.000  C
  C94      1.0000 0.20700  0.12300  0.74450  Biso   1.000  C
  C95      1.0000 0.62300  0.29300  0.49450  Biso   1.000  C
  C96      1.0000 0.37700  0.70700  0.99450  Biso   1.000  C
  H89      1.0000 0.30150  0.51150  0.50790  Biso   1.000  H
  H90      1.0000 0.98850  0.80150  0.75790  Biso   1.000  H
  H91      1.0000 0.69850  0.48850  0.00790  Biso   1.000  H
  H92      1.0000 0.01150  0.19850  0.25790  Biso   1.000  H
  H93      1.0000 0.80150  0.98850  0.24210  Biso   1.000  H
  H94      1.0000 0.19850  0.01150  0.74210  Biso   1.000  H
  H95      1.0000 0.51150  0.30150  0.49210  Biso   1.000  H
  H96      1.0000 0.48850  0.69850  0.99210  Biso   1.000  H
  C97      1.0000 0.33670  0.69420  0.46930  Biso   1.000  C
  C98      1.0000 0.80580  0.83670  0.71930  Biso   1.000  C
  C99      1.0000 0.66330  0.30580  0.96930  Biso   1.000  C
  C100     1.0000 0.19420  0.16330  0.21930  Biso   1.000  C
  C101     1.0000 0.83670  0.80580  0.28070  Biso   1.000  C
  C102     1.0000 0.16330  0.19420  0.78070  Biso   1.000  C
  C103     1.0000 0.69420  0.33670  0.53070  Biso   1.000  C
  C104     1.0000 0.30580  0.66330  0.03070  Biso   1.000  C
  H97      1.0000 0.36840  0.63460  0.44600  Biso   1.000  H
  H98      1.0000 0.86540  0.86840  0.69600  Biso   1.000  H
  H99      1.0000 0.63160  0.36540  0.94600  Biso   1.000  H
  H100     1.0000 0.13460  0.13160  0.19600  Biso   1.000  H
  H101     1.0000 0.86840  0.86540  0.30400  Biso   1.000  H
  H102     1.0000 0.13160  0.13460  0.80400  Biso   1.000  H
  H103     1.0000 0.63460  0.36840  0.55400  Biso   1.000  H
  H104     1.0000 0.36540  0.63160  0.05400  Biso   1.000  H
  C105     1.0000 0.33180  0.86000  0.46850  Biso   1.000  C
  C106     1.0000 0.64000  0.83180  0.71850  Biso   1.000  C
  C107     1.0000 0.66820  0.14000  0.96850  Biso   1.000  C
  C108     1.0000 0.36000  0.16820  0.21850  Biso   1.000  C
  C109     1.0000 0.83180  0.64000  0.28150  Biso   1.000  C
  C110     1.0000 0.16820  0.36000  0.78150  Biso   1.000  C
  C111     1.0000 0.86000  0.33180  0.53150  Biso   1.000  C
  C112     1.0000 0.14000  0.66820  0.03150  Biso   1.000  C
  H105     1.0000 0.37210  0.91620  0.44530  Biso   1.000  H
  H106     1.0000 0.58380  0.87210  0.69530  Biso   1.000  H
  H107     1.0000 0.62790  0.08380  0.94530  Biso   1.000  H
  H108     1.0000 0.41620  0.12790  0.19530  Biso   1.000  H
  H109     1.0000 0.87210  0.58380  0.30470  Biso   1.000  H
  H110     1.0000 0.12790  0.41620  0.80470  Biso   1.000  H
  H111     1.0000 0.91620  0.37210  0.55470  Biso   1.000  H
  H112     1.0000 0.08380  0.62790  0.05470  Biso   1.000  H
  C113     1.0000 0.27100  0.93900  0.50010  Biso   1.000  C
  C114     1.0000 0.56100  0.77100  0.75010  Biso   1.000  C
  C115     1.0000 0.72900  0.06100  0.00010  Biso   1.000  C
  C116     1.0000 0.43900  0.22900  0.25010  Biso   1.000  C
  C117     1.0000 0.77100  0.56100  0.24990  Biso   1.000  C
  C118     1.0000 0.22900  0.43900  0.74990  Biso   1.000  C
  C119     1.0000 0.93900  0.27100  0.49990  Biso   1.000  C
  C120     1.0000 0.06100  0.72900  0.99990  Biso   1.000  C
  H113     1.0000 0.24820  0.04790  0.49750  Biso   1.000  H
  H114     1.0000 0.45210  0.74820  0.74750  Biso   1.000  H
  H115     1.0000 0.75180  0.95210  0.99750  Biso   1.000  H
  H116     1.0000 0.54790  0.25180  0.24750  Biso   1.000  H
  H117     1.0000 0.74820  0.45210  0.25250  Biso   1.000  H
  H118     1.0000 0.25180  0.54790  0.75250  Biso   1.000  H
  H119     1.0000 0.04790  0.24820  0.50250  Biso   1.000  H
  H120     1.0000 0.95210  0.75180  0.00250  Biso   1.000  H
  N25      1.0000 0.57420  0.47700  0.66078  Biso   1.000  N
  N26      1.0000 0.02300  0.07420  0.91078  Biso   1.000  N
  N27      1.0000 0.42580  0.52300  0.16078  Biso   1.000  N
  N28      1.0000 0.97700  0.92580  0.41078  Biso   1.000  N
  N29      1.0000 0.07420  0.02300  0.08922  Biso   1.000  N
  N30      1.0000 0.92580  0.97700  0.58922  Biso   1.000  N
  N31      1.0000 0.47700  0.57420  0.33922  Biso   1.000  N
  N32      1.0000 0.52300  0.42580  0.83922  Biso   1.000  N
  C121     1.0000 0.65610  0.39450  0.69098  Biso   1.000  C
  C122     1.0000 0.10550  0.15610  0.94098  Biso   1.000  C
  C123     1.0000 0.34390  0.60550  0.19098  Biso   1.000  C
  C124     1.0000 0.89450  0.84390  0.44098  Biso   1.000  C
  C125     1.0000 0.15610  0.10550  0.05902  Biso   1.000  C
  C126     1.0000 0.84390  0.89450  0.55902  Biso   1.000  C
  C127     1.0000 0.39450  0.65610  0.30902  Biso   1.000  C
  C128     1.0000 0.60550  0.34390  0.80902  Biso   1.000  C
  H121     1.0000 0.60010  0.33720  0.71140  Biso   1.000  H
  H122     1.0000 0.16280  0.10010  0.96140  Biso   1.000  H
  H123     1.0000 0.39990  0.66280  0.21140  Biso   1.000  H
  H124     1.0000 0.83720  0.89990  0.46140  Biso   1.000  H
  H125     1.0000 0.10010  0.16280  0.03860  Biso   1.000  H
  H126     1.0000 0.89990  0.83720  0.53860  Biso   1.000  H
  H127     1.0000 0.33720  0.60010  0.28860  Biso   1.000  H
  H128     1.0000 0.66280  0.39990  0.78860  Biso   1.000  H
  C129     1.0000 0.82000  0.39580  0.69124  Biso   1.000  C
  C130     1.0000 0.10420  0.32000  0.94124  Biso   1.000  C
  C131     1.0000 0.18000  0.60420  0.19124  Biso   1.000  C
  C132     1.0000 0.89580  0.68000  0.44124  Biso   1.000  C
  C133     1.0000 0.32000  0.10420  0.05876  Biso   1.000  C
  C134     1.0000 0.68000  0.89580  0.55876  Biso   1.000  C
  C135     1.0000 0.39580  0.82000  0.30876  Biso   1.000  C
  C136     1.0000 0.60420  0.18000  0.80876  Biso   1.000  C
  H129     1.0000 0.87590  0.33940  0.71190  Biso   1.000  H
  H130     1.0000 0.16060  0.37590  0.96190  Biso   1.000  H
  H131     1.0000 0.12410  0.66060  0.21190  Biso   1.000  H
  H132     1.0000 0.83940  0.62410  0.46190  Biso   1.000  H
  H133     1.0000 0.37590  0.16060  0.03810  Biso   1.000  H
  H134     1.0000 0.62410  0.83940  0.53810  Biso   1.000  H
  H135     1.0000 0.33940  0.87590  0.28810  Biso   1.000  H
  H136     1.0000 0.66060  0.12410  0.78810  Biso   1.000  H
  C137     1.0000 0.90190  0.47960  0.66130  Biso   1.000  C
  C138     1.0000 0.02040  0.40190  0.91130  Biso   1.000  C
  C139     1.0000 0.09810  0.52040  0.16130  Biso   1.000  C
  C140     1.0000 0.97960  0.59810  0.41130  Biso   1.000  C
  C141     1.0000 0.40190  0.02040  0.08870  Biso   1.000  C
  C142     1.0000 0.59810  0.97960  0.58870  Biso   1.000  C
  C143     1.0000 0.47960  0.90190  0.33870  Biso   1.000  C
  C144     1.0000 0.52040  0.09810  0.83870  Biso   1.000  C
  H137     1.0000 0.01390  0.48050  0.66150  Biso   1.000  H
  H138     1.0000 0.01950  0.51390  0.91150  Biso   1.000  H
  H139     1.0000 0.98610  0.51950  0.16150  Biso   1.000  H
  H140     1.0000 0.98050  0.48610  0.41150  Biso   1.000  H
  H141     1.0000 0.51390  0.01950  0.08850  Biso   1.000  H
  H142     1.0000 0.48610  0.98050  0.58850  Biso   1.000  H
  H143     1.0000 0.48050  0.01390  0.33850  Biso   1.000  H
  H144     1.0000 0.51950  0.98610  0.83850  Biso   1.000  H
  C145     1.0000 0.82010  0.56210  0.63109  Biso   1.000  C
  C146     1.0000 0.93790  0.32010  0.88109  Biso   1.000  C
  C147     1.0000 0.17990  0.43790  0.13109  Biso   1.000  C
  C148     1.0000 0.06210  0.67990  0.38109  Biso   1.000  C
  C149     1.0000 0.32010  0.93790  0.11891  Biso   1.000  C
  C150     1.0000 0.67990  0.06210  0.61891  Biso   1.000  C
  C151     1.0000 0.56210  0.82010  0.36891  Biso   1.000  C
  C152     1.0000 0.43790  0.17990  0.86891  Biso   1.000  C
  H145     1.0000 0.87610  0.61940  0.61060  Biso   1.000  H
  H146     1.0000 0.88060  0.37610  0.86060  Biso   1.000  H
  H147     1.0000 0.12390  0.38060  0.11060  Biso   1.000  H
  H148     1.0000 0.11940  0.62390  0.36060  Biso   1.000  H
  H149     1.0000 0.37610  0.88060  0.13940  Biso   1.000  H
  H150     1.0000 0.62390  0.11940  0.63940  Biso   1.000  H
  H151     1.0000 0.61940  0.87610  0.38940  Biso   1.000  H
  H152     1.0000 0.38060  0.12390  0.88940  Biso   1.000  H
  C153     1.0000 0.65620  0.56080  0.63083  Biso   1.000  C
  C154     1.0000 0.93920  0.15620  0.88083  Biso   1.000  C
  C155     1.0000 0.34380  0.43920  0.13083  Biso   1.000  C
  C156     1.0000 0.06080  0.84380  0.38083  Biso   1.000  C
  C157     1.0000 0.15620  0.93920  0.11917  Biso   1.000  C
  C158     1.0000 0.84380  0.06080  0.61917  Biso   1.000  C
  C159     1.0000 0.56080  0.65620  0.36917  Biso   1.000  C
  C160     1.0000 0.43920  0.34380  0.86917  Biso   1.000  C
  H153     1.0000 0.60020  0.61720  0.61020  Biso   1.000  H
  H154     1.0000 0.88280  0.10020  0.86020  Biso   1.000  H
  H155     1.0000 0.39980  0.38280  0.11020  Biso   1.000  H
  H156     1.0000 0.11720  0.89980  0.36020  Biso   1.000  H
  H157     1.0000 0.10020  0.88280  0.13980  Biso   1.000  H
  H158     1.0000 0.89980  0.11720  0.63980  Biso   1.000  H
  H159     1.0000 0.61720  0.60020  0.38980  Biso   1.000  H
  H160     1.0000 0.38280  0.39980  0.88980  Biso   1.000  H
