data_image0
_cell_length_a       8.5067
_cell_length_b       8.5067
_cell_length_c       32.5724
_cell_angle_alpha    90
_cell_angle_beta     90
_cell_angle_gamma    90

_symmetry_space_group_name_H-M    "P 1"
_symmetry_int_tables_number       1

loop_
  _symmetry_equiv_pos_as_xyz
  'x, y, z'

loop_
  _atom_site_label
  _atom_site_occupancy
  _atom_site_fract_x
  _atom_site_fract_y
  _atom_site_fract_z
  _atom_site_thermal_displace_type
  _atom_site_B_iso_or_equiv
  _atom_site_type_symbol
  I1       1.0000 0.26340  0.30250  0.59148  Biso   1.000  I
  I2       1.0000 0.19750  0.76340  0.84148  Biso   1.000  I
  I3       1.0000 0.73660  0.69750  0.09148  Biso   1.000  I
  I4       1.0000 0.80250  0.23660  0.34148  Biso   1.000  I
  I5       1.0000 0.76340  0.19750  0.15852  Biso   1.000  I
  I6       1.0000 0.23660  0.80250  0.65852  Biso   1.000  I
  I7       1.0000 0.30250  0.26340  0.40852  Biso   1.000  I
  I8       1.0000 0.69750  0.73660  0.90852  Biso   1.000  I
  Cu1      1.0000 0.16895  0.59564  0.59407  Biso   1.000  Cu
  Cu2      1.0000 0.90436  0.66895  0.84407  Biso   1.000  Cu
  Cu3      1.0000 0.83105  0.40436  0.09407  Biso   1.000  Cu
  Cu4      1.0000 0.09564  0.33105  0.34407  Biso   1.000  Cu
  Cu5      1.0000 0.66895  0.90436  0.15593  Biso   1.000  Cu
  Cu6      1.0000 0.33105  0.09564  0.65593  Biso   1.000  Cu
  Cu7      1.0000 0.59564  0.16895  0.40593  Biso   1.000  Cu
  Cu8      1.0000 0.40436  0.83105  0.90593  Biso   1.000  Cu
  N1       1.0000 0.24000  0.69000  0.54070  Biso   1.000  N
  N2       1.0000 0.81000  0.74000  0.79070  Biso   1.000  N
  N3       1.0000 0.76000  0.31000  0.04070  Biso   1.000  N
  N4       1.0000 0.19000  0.26000  0.29070  Biso   1.000  N
  N5       1.0000 0.74000  0.81000  0.20930  Biso   1.000  N
  N6       1.0000 0.26000  0.19000  0.70930  Biso   1.000  N
  N7       1.0000 0.69000  0.24000  0.45930  Biso   1.000  N
  N8       1.0000 0.31000  0.76000  0.95930  Biso   1.000  N
  C1       1.0000 0.23800  0.86400  0.53650  Biso   1.000  C
  C2       1.0000 0.63600  0.73800  0.78650  Biso   1.000  C
  C3       1.0000 0.76200  0.13600  0.03650  Biso   1.000  C
  C4       1.0000 0.36400  0.26200  0.28650  Biso   1.000  C
  C5       1.0000 0.73800  0.63600  0.21350  Biso   1.000  C
  C6       1.0000 0.26200  0.36400  0.71350  Biso   1.000  C
  C7       1.0000 0.86400  0.23800  0.46350  Biso   1.000  C
  C8       1.0000 0.13600  0.76200  0.96350  Biso   1.000  C
  H1       1.0000 0.20910  0.92460  0.55980  Biso   1.000  H
  H2       1.0000 0.57540  0.70910  0.80980  Biso   1.000  H
  H3       1.0000 0.79090  0.07540  0.05980  Biso   1.000  H
  H4       1.0000 0.42460  0.29090  0.30980  Biso   1.000  H
  H5       1.0000 0.70910  0.57540  0.19020  Biso   1.000  H
  H6       1.0000 0.29090  0.42460  0.69020  Biso   1.000  H
  H7       1.0000 0.92460  0.20910  0.44020  Biso   1.000  H
  H8       1.0000 0.07540  0.79090  0.94020  Biso   1.000  H
  C9       1.0000 0.26800  0.92600  0.50820  Biso   1.000  C
  C10      1.0000 0.57400  0.76800  0.75820  Biso   1.000  C
  C11      1.0000 0.73200  0.07400  0.00820  Biso   1.000  C
  C12      1.0000 0.42600  0.23200  0.25820  Biso   1.000  C
  C13      1.0000 0.76800  0.57400  0.24180  Biso   1.000  C
  C14      1.0000 0.23200  0.42600  0.74180  Biso   1.000  C
  C15      1.0000 0.92600  0.26800  0.49180  Biso   1.000  C
  C16      1.0000 0.07400  0.73200  0.99180  Biso   1.000  C
  H9       1.0000 0.28980  0.03530  0.50960  Biso   1.000  H
  H10      1.0000 0.46470  0.78980  0.75960  Biso   1.000  H
  H11      1.0000 0.71020  0.96470  0.00960  Biso   1.000  H
  H12      1.0000 0.53530  0.21020  0.25960  Biso   1.000  H
  H13      1.0000 0.78980  0.46470  0.24040  Biso   1.000  H
  H14      1.0000 0.21020  0.53530  0.74040  Biso   1.000  H
  H15      1.0000 0.03530  0.28980  0.49040  Biso   1.000  H
  H16      1.0000 0.96470  0.71020  0.99040  Biso   1.000  H
  C17      1.0000 0.27600  0.84800  0.46790  Biso   1.000  C
  C18      1.0000 0.65200  0.77600  0.71790  Biso   1.000  C
  C19      1.0000 0.72400  0.15200  0.96790  Biso   1.000  C
  C20      1.0000 0.34800  0.22400  0.21790  Biso   1.000  C
  C21      1.0000 0.77600  0.65200  0.28210  Biso   1.000  C
  C22      1.0000 0.22400  0.34800  0.78210  Biso   1.000  C
  C23      1.0000 0.84800  0.27600  0.53210  Biso   1.000  C
  C24      1.0000 0.15200  0.72400  0.03210  Biso   1.000  C
  H17      1.0000 0.28560  0.90340  0.44270  Biso   1.000  H
  H18      1.0000 0.59660  0.78560  0.69270  Biso   1.000  H
  H19      1.0000 0.71440  0.09660  0.94270  Biso   1.000  H
  H20      1.0000 0.40340  0.21440  0.19270  Biso   1.000  H
  H21      1.0000 0.78560  0.59660  0.30730  Biso   1.000  H
  H22      1.0000 0.21440  0.40340  0.80730  Biso   1.000  H
  H23      1.0000 0.90340  0.28560  0.55730  Biso   1.000  H
  H24      1.0000 0.09660  0.71440  0.05730  Biso   1.000  H
  C25      1.0000 0.26900  0.68600  0.47010  Biso   1.000  C
  C26      1.0000 0.81400  0.76900  0.72010  Biso   1.000  C
  C27      1.0000 0.73100  0.31400  0.97010  Biso   1.000  C
  C28      1.0000 0.18600  0.23100  0.22010  Biso   1.000  C
  C29      1.0000 0.76900  0.81400  0.27990  Biso   1.000  C
  C30      1.0000 0.23100  0.18600  0.77990  Biso   1.000  C
  C31      1.0000 0.68600  0.26900  0.52990  Biso   1.000  C
  C32      1.0000 0.31400  0.73100  0.02990  Biso   1.000  C
  H25      1.0000 0.28430  0.62440  0.44610  Biso   1.000  H
  H26      1.0000 0.87560  0.78430  0.69610  Biso   1.000  H
  H27      1.0000 0.71570  0.37560  0.94610  Biso   1.000  H
  H28      1.0000 0.12440  0.21570  0.19610  Biso   1.000  H
  H29      1.0000 0.78430  0.87560  0.30390  Biso   1.000  H
  H30      1.0000 0.21570  0.12440  0.80390  Biso   1.000  H
  H31      1.0000 0.62440  0.28430  0.55390  Biso   1.000  H
  H32      1.0000 0.37560  0.71570  0.05390  Biso   1.000  H
  C33      1.0000 0.23980  0.61400  0.50690  Biso   1.000  C
  C34      1.0000 0.88600  0.73980  0.75690  Biso   1.000  C
  C35      1.0000 0.76020  0.38600  0.00690  Biso   1.000  C
  C36      1.0000 0.11400  0.26020  0.25690  Biso   1.000  C
  C37      1.0000 0.73980  0.88600  0.24310  Biso   1.000  C
  C38      1.0000 0.26020  0.11400  0.74310  Biso   1.000  C
  C39      1.0000 0.61400  0.23980  0.49310  Biso   1.000  C
  C40      1.0000 0.38600  0.76020  0.99310  Biso   1.000  C
  H33      1.0000 0.21900  0.50430  0.50730  Biso   1.000  H
  H34      1.0000 0.99570  0.71900  0.75730  Biso   1.000  H
  H35      1.0000 0.78100  0.49570  0.00730  Biso   1.000  H
  H36      1.0000 0.00430  0.28100  0.25730  Biso   1.000  H
  H37      1.0000 0.71900  0.99570  0.24270  Biso   1.000  H
  H38      1.0000 0.28100  0.00430  0.74270  Biso   1.000  H
  H39      1.0000 0.50430  0.21900  0.49270  Biso   1.000  H
  H40      1.0000 0.49570  0.78100  0.99270  Biso   1.000  H
  N9       1.0000 0.92540  0.60390  0.59211  Biso   1.000  N
  N10      1.0000 0.89610  0.42540  0.84211  Biso   1.000  N
  N11      1.0000 0.07460  0.39610  0.09211  Biso   1.000  N
  N12      1.0000 0.10390  0.57460  0.34211  Biso   1.000  N
  N13      1.0000 0.42540  0.89610  0.15789  Biso   1.000  N
  N14      1.0000 0.57460  0.10390  0.65789  Biso   1.000  N
  N15      1.0000 0.60390  0.92540  0.40789  Biso   1.000  N
  N16      1.0000 0.39610  0.07460  0.90789  Biso   1.000  N
  C41      1.0000 0.84130  0.53520  0.62399  Biso   1.000  C
  C42      1.0000 0.96480  0.34130  0.87399  Biso   1.000  C
  C43      1.0000 0.15870  0.46480  0.12399  Biso   1.000  C
  C44      1.0000 0.03520  0.65870  0.37399  Biso   1.000  C
  C45      1.0000 0.34130  0.96480  0.12601  Biso   1.000  C
  C46      1.0000 0.65870  0.03520  0.62601  Biso   1.000  C
  C47      1.0000 0.53520  0.84130  0.37601  Biso   1.000  C
  C48      1.0000 0.46480  0.15870  0.87601  Biso   1.000  C
  H41      1.0000 0.89530  0.48310  0.64560  Biso   1.000  H
  H42      1.0000 0.01690  0.39530  0.89560  Biso   1.000  H
  H43      1.0000 0.10470  0.51690  0.14560  Biso   1.000  H
  H44      1.0000 0.98310  0.60470  0.39560  Biso   1.000  H
  H45      1.0000 0.39530  0.01690  0.10440  Biso   1.000  H
  H46      1.0000 0.60470  0.98310  0.60440  Biso   1.000  H
  H47      1.0000 0.48310  0.89530  0.35440  Biso   1.000  H
  H48      1.0000 0.51690  0.10470  0.85440  Biso   1.000  H
  C49      1.0000 0.67810  0.54270  0.62430  Biso   1.000  C
  C50      1.0000 0.95730  0.17810  0.87430  Biso   1.000  C
  C51      1.0000 0.32190  0.45730  0.12430  Biso   1.000  C
  C52      1.0000 0.04270  0.82190  0.37430  Biso   1.000  C
  C53      1.0000 0.17810  0.95730  0.12570  Biso   1.000  C
  C54      1.0000 0.82190  0.04270  0.62570  Biso   1.000  C
  C55      1.0000 0.54270  0.67810  0.37570  Biso   1.000  C
  C56      1.0000 0.45730  0.32190  0.87570  Biso   1.000  C
  H49      1.0000 0.62050  0.49570  0.64600  Biso   1.000  H
  H50      1.0000 0.00430  0.12050  0.89600  Biso   1.000  H
  H51      1.0000 0.37950  0.50430  0.14600  Biso   1.000  H
  H52      1.0000 0.99570  0.87950  0.39600  Biso   1.000  H
  H53      1.0000 0.12050  0.00430  0.10400  Biso   1.000  H
  H54      1.0000 0.87950  0.99570  0.60400  Biso   1.000  H
  H55      1.0000 0.49570  0.62050  0.35400  Biso   1.000  H
  H56      1.0000 0.50430  0.37950  0.85400  Biso   1.000  H
  C57      1.0000 0.59900  0.61880  0.59270  Biso   1.000  C
  C58      1.0000 0.88120  0.09900  0.84270  Biso   1.000  C
  C59      1.0000 0.40100  0.38120  0.09270  Biso   1.000  C
  C60      1.0000 0.11880  0.90100  0.34270  Biso   1.000  C
  C61      1.0000 0.09900  0.88120  0.15730  Biso   1.000  C
  C62      1.0000 0.90100  0.11880  0.65730  Biso   1.000  C
  C63      1.0000 0.61880  0.59900  0.40730  Biso   1.000  C
  C64      1.0000 0.38120  0.40100  0.90730  Biso   1.000  C
  H57      1.0000 0.48740  0.62390  0.59280  Biso   1.000  H
  H58      1.0000 0.87610  0.98740  0.84280  Biso   1.000  H
  H59      1.0000 0.51260  0.37610  0.09280  Biso   1.000  H
  H60      1.0000 0.12390  0.01260  0.34280  Biso   1.000  H
  H61      1.0000 0.98740  0.87610  0.15720  Biso   1.000  H
  H62      1.0000 0.01260  0.12390  0.65720  Biso   1.000  H
  H63      1.0000 0.62390  0.48740  0.40720  Biso   1.000  H
  H64      1.0000 0.37610  0.51260  0.90720  Biso   1.000  H
  C65      1.0000 0.68310  0.68750  0.56080  Biso   1.000  C
  C66      1.0000 0.81250  0.18310  0.81080  Biso   1.000  C
  C67      1.0000 0.31690  0.31250  0.06080  Biso   1.000  C
  C68      1.0000 0.18750  0.81690  0.31080  Biso   1.000  C
  C69      1.0000 0.18310  0.81250  0.18920  Biso   1.000  C
  C70      1.0000 0.81690  0.18750  0.68920  Biso   1.000  C
  C71      1.0000 0.68750  0.68310  0.43920  Biso   1.000  C
  C72      1.0000 0.31250  0.31690  0.93920  Biso   1.000  C
  H65      1.0000 0.62910  0.73960  0.53920  Biso   1.000  H
  H66      1.0000 0.76040  0.12910  0.78920  Biso   1.000  H
  H67      1.0000 0.37090  0.26040  0.03920  Biso   1.000  H
  H68      1.0000 0.23960  0.87090  0.28920  Biso   1.000  H
  H69      1.0000 0.12910  0.76040  0.21080  Biso   1.000  H
  H70      1.0000 0.87090  0.23960  0.71080  Biso   1.000  H
  H71      1.0000 0.73960  0.62910  0.46080  Biso   1.000  H
  H72      1.0000 0.26040  0.37090  0.96080  Biso   1.000  H
  C73      1.0000 0.84640  0.68010  0.56051  Biso   1.000  C
  C74      1.0000 0.81990  0.34640  0.81051  Biso   1.000  C
  C75      1.0000 0.15360  0.31990  0.06051  Biso   1.000  C
  C76      1.0000 0.18010  0.65360  0.31051  Biso   1.000  C
  C77      1.0000 0.34640  0.81990  0.18949  Biso   1.000  C
  C78      1.0000 0.65360  0.18010  0.68949  Biso   1.000  C
  C79      1.0000 0.68010  0.84640  0.43949  Biso   1.000  C
  C80      1.0000 0.31990  0.15360  0.93949  Biso   1.000  C
  H73      1.0000 0.90390  0.72700  0.53870  Biso   1.000  H
  H74      1.0000 0.77300  0.40390  0.78870  Biso   1.000  H
  H75      1.0000 0.09610  0.27300  0.03870  Biso   1.000  H
  H76      1.0000 0.22700  0.59610  0.28870  Biso   1.000  H
  H77      1.0000 0.40390  0.77300  0.21130  Biso   1.000  H
  H78      1.0000 0.59610  0.22700  0.71130  Biso   1.000  H
  H79      1.0000 0.72700  0.90390  0.46130  Biso   1.000  H
  H80      1.0000 0.27300  0.09610  0.96130  Biso   1.000  H
  I9       1.0000 0.26400  0.26510  0.59063  Biso   1.000  I
  I10      1.0000 0.23490  0.76400  0.84063  Biso   1.000  I
  I11      1.0000 0.73600  0.73490  0.09063  Biso   1.000  I
  I12      1.0000 0.76510  0.23600  0.34063  Biso   1.000  I
  I13      1.0000 0.76400  0.23490  0.15937  Biso   1.000  I
  I14      1.0000 0.23600  0.76510  0.65937  Biso   1.000  I
  I15      1.0000 0.26510  0.26400  0.40937  Biso   1.000  I
  I16      1.0000 0.73490  0.73600  0.90937  Biso   1.000  I
  Cu9      1.0000 0.32994  0.47065  0.65813  Biso   1.000  Cu
  Cu10     1.0000 0.02935  0.82994  0.90813  Biso   1.000  Cu
  Cu11     1.0000 0.67006  0.52935  0.15813  Biso   1.000  Cu
  Cu12     1.0000 0.97065  0.17006  0.40813  Biso   1.000  Cu
  Cu13     1.0000 0.82994  0.02935  0.09187  Biso   1.000  Cu
  Cu14     1.0000 0.17006  0.97065  0.59187  Biso   1.000  Cu
  Cu15     1.0000 0.47065  0.32994  0.34187  Biso   1.000  Cu
  Cu16     1.0000 0.52935  0.67006  0.84187  Biso   1.000  Cu
  N17      1.0000 0.23600  0.84900  0.54210  Biso   1.000  N
  N18      1.0000 0.65100  0.73600  0.79210  Biso   1.000  N
  N19      1.0000 0.76400  0.15100  0.04210  Biso   1.000  N
  N20      1.0000 0.34900  0.26400  0.29210  Biso   1.000  N
  N21      1.0000 0.73600  0.65100  0.20790  Biso   1.000  N
  N22      1.0000 0.26400  0.34900  0.70790  Biso   1.000  N
  N23      1.0000 0.84900  0.23600  0.45790  Biso   1.000  N
  N24      1.0000 0.15100  0.76400  0.95790  Biso   1.000  N
  C81      1.0000 0.23200  0.71400  0.54030  Biso   1.000  C
  C82      1.0000 0.78600  0.73200  0.79030  Biso   1.000  C
  C83      1.0000 0.76800  0.28600  0.04030  Biso   1.000  C
  C84      1.0000 0.21400  0.26800  0.29030  Biso   1.000  C
  C85      1.0000 0.73200  0.78600  0.20970  Biso   1.000  C
  C86      1.0000 0.26800  0.21400  0.70970  Biso   1.000  C
  C87      1.0000 0.71400  0.23200  0.45970  Biso   1.000  C
  C88      1.0000 0.28600  0.76800  0.95970  Biso   1.000  C
  H81      1.0000 0.18550  0.65870  0.56260  Biso   1.000  H
  H82      1.0000 0.84130  0.68550  0.81260  Biso   1.000  H
  H83      1.0000 0.81450  0.34130  0.06260  Biso   1.000  H
  H84      1.0000 0.15870  0.31450  0.31260  Biso   1.000  H
  H85      1.0000 0.68550  0.84130  0.18740  Biso   1.000  H
  H86      1.0000 0.31450  0.15870  0.68740  Biso   1.000  H
  H87      1.0000 0.65870  0.18550  0.43740  Biso   1.000  H
  H88      1.0000 0.34130  0.81450  0.93740  Biso   1.000  H
  C89      1.0000 0.29620  0.61800  0.50540  Biso   1.000  C
  C90      1.0000 0.88200  0.79620  0.75540  Biso   1.000  C
  C91      1.0000 0.70380  0.38200  0.00540  Biso   1.000  C
  C92      1.0000 0.11800  0.20380  0.25540  Biso   1.000  C
  C93      1.0000 0.79620  0.88200  0.24460  Biso   1.000  C
  C94      1.0000 0.20380  0.11800  0.74460  Biso   1.000  C
  C95      1.0000 0.61800  0.29620  0.49460  Biso   1.000  C
  C96      1.0000 0.38200  0.70380  0.99460  Biso   1.000  C
  H89      1.0000 0.30780  0.50770  0.50760  Biso   1.000  H
  H90      1.0000 0.99230  0.80780  0.75760  Biso   1.000  H
  H91      1.0000 0.69220  0.49230  0.00760  Biso   1.000  H
  H92      1.0000 0.00770  0.19220  0.25760  Biso   1.000  H
  H93      1.0000 0.80780  0.99230  0.24240  Biso   1.000  H
  H94      1.0000 0.19220  0.00770  0.74240  Biso   1.000  H
  H95      1.0000 0.50770  0.30780  0.49240  Biso   1.000  H
  H96      1.0000 0.49230  0.69220  0.99240  Biso   1.000  H
  C97      1.0000 0.33800  0.69700  0.46980  Biso   1.000  C
  C98      1.0000 0.80300  0.83800  0.71980  Biso   1.000  C
  C99      1.0000 0.66200  0.30300  0.96980  Biso   1.000  C
  C100     1.0000 0.19700  0.16200  0.21980  Biso   1.000  C
  C101     1.0000 0.83800  0.80300  0.28020  Biso   1.000  C
  C102     1.0000 0.16200  0.19700  0.78020  Biso   1.000  C
  C103     1.0000 0.69700  0.33800  0.53020  Biso   1.000  C
  C104     1.0000 0.30300  0.66200  0.03020  Biso   1.000  C
  H97      1.0000 0.37060  0.64110  0.44600  Biso   1.000  H
  H98      1.0000 0.85890  0.87060  0.69600  Biso   1.000  H
  H99      1.0000 0.62940  0.35890  0.94600  Biso   1.000  H
  H100     1.0000 0.14110  0.12940  0.19600  Biso   1.000  H
  H101     1.0000 0.87060  0.85890  0.30400  Biso   1.000  H
  H102     1.0000 0.12940  0.14110  0.80400  Biso   1.000  H
  H103     1.0000 0.64110  0.37060  0.55400  Biso   1.000  H
  H104     1.0000 0.35890  0.62940  0.05400  Biso   1.000  H
  C105     1.0000 0.33000  0.86100  0.46980  Biso   1.000  C
  C106     1.0000 0.63900  0.83000  0.71980  Biso   1.000  C
  C107     1.0000 0.67000  0.13900  0.96980  Biso   1.000  C
  C108     1.0000 0.36100  0.17000  0.21980  Biso   1.000  C
  C109     1.0000 0.83000  0.63900  0.28020  Biso   1.000  C
  C110     1.0000 0.17000  0.36100  0.78020  Biso   1.000  C
  C111     1.0000 0.86100  0.33000  0.53020  Biso   1.000  C
  C112     1.0000 0.13900  0.67000  0.03020  Biso   1.000  C
  H105     1.0000 0.36930  0.91680  0.44680  Biso   1.000  H
  H106     1.0000 0.58320  0.86930  0.69680  Biso   1.000  H
  H107     1.0000 0.63070  0.08320  0.94680  Biso   1.000  H
  H108     1.0000 0.41680  0.13070  0.19680  Biso   1.000  H
  H109     1.0000 0.86930  0.58320  0.30320  Biso   1.000  H
  H110     1.0000 0.13070  0.41680  0.80320  Biso   1.000  H
  H111     1.0000 0.91680  0.36930  0.55320  Biso   1.000  H
  H112     1.0000 0.08320  0.63070  0.05320  Biso   1.000  H
  C113     1.0000 0.27100  0.93900  0.50030  Biso   1.000  C
  C114     1.0000 0.56100  0.77100  0.75030  Biso   1.000  C
  C115     1.0000 0.72900  0.06100  0.00030  Biso   1.000  C
  C116     1.0000 0.43900  0.22900  0.25030  Biso   1.000  C
  C117     1.0000 0.77100  0.56100  0.24970  Biso   1.000  C
  C118     1.0000 0.22900  0.43900  0.74970  Biso   1.000  C
  C119     1.0000 0.93900  0.27100  0.49970  Biso   1.000  C
  C120     1.0000 0.06100  0.72900  0.99970  Biso   1.000  C
  H113     1.0000 0.24910  0.04760  0.49770  Biso   1.000  H
  H114     1.0000 0.45240  0.74910  0.74770  Biso   1.000  H
  H115     1.0000 0.75090  0.95240  0.99770  Biso   1.000  H
  H116     1.0000 0.54760  0.25090  0.24770  Biso   1.000  H
  H117     1.0000 0.74910  0.45240  0.25230  Biso   1.000  H
  H118     1.0000 0.25090  0.54760  0.75230  Biso   1.000  H
  H119     1.0000 0.04760  0.24910  0.50230  Biso   1.000  H
  H120     1.0000 0.95240  0.75090  0.00230  Biso   1.000  H
  N25      1.0000 0.57430  0.47600  0.66080  Biso   1.000  N
  N26      1.0000 0.02400  0.07430  0.91080  Biso   1.000  N
  N27      1.0000 0.42570  0.52400  0.16080  Biso   1.000  N
  N28      1.0000 0.97600  0.92570  0.41080  Biso   1.000  N
  N29      1.0000 0.07430  0.02400  0.08920  Biso   1.000  N
  N30      1.0000 0.92570  0.97600  0.58920  Biso   1.000  N
  N31      1.0000 0.47600  0.57430  0.33920  Biso   1.000  N
  N32      1.0000 0.52400  0.42570  0.83920  Biso   1.000  N
  C121     1.0000 0.65600  0.39380  0.69089  Biso   1.000  C
  C122     1.0000 0.10620  0.15600  0.94089  Biso   1.000  C
  C123     1.0000 0.34400  0.60620  0.19089  Biso   1.000  C
  C124     1.0000 0.89380  0.84400  0.44089  Biso   1.000  C
  C125     1.0000 0.15600  0.10620  0.05911  Biso   1.000  C
  C126     1.0000 0.84400  0.89380  0.55911  Biso   1.000  C
  C127     1.0000 0.39380  0.65600  0.30911  Biso   1.000  C
  C128     1.0000 0.60620  0.34400  0.80911  Biso   1.000  C
  H121     1.0000 0.60010  0.33660  0.71130  Biso   1.000  H
  H122     1.0000 0.16340  0.10010  0.96130  Biso   1.000  H
  H123     1.0000 0.39990  0.66340  0.21130  Biso   1.000  H
  H124     1.0000 0.83660  0.89990  0.46130  Biso   1.000  H
  H125     1.0000 0.10010  0.16340  0.03870  Biso   1.000  H
  H126     1.0000 0.89990  0.83660  0.53870  Biso   1.000  H
  H127     1.0000 0.33660  0.60010  0.28870  Biso   1.000  H
  H128     1.0000 0.66340  0.39990  0.78870  Biso   1.000  H
  C129     1.0000 0.81940  0.39510  0.69117  Biso   1.000  C
  C130     1.0000 0.10490  0.31940  0.94117  Biso   1.000  C
  C131     1.0000 0.18060  0.60490  0.19117  Biso   1.000  C
  C132     1.0000 0.89510  0.68060  0.44117  Biso   1.000  C
  C133     1.0000 0.31940  0.10490  0.05883  Biso   1.000  C
  C134     1.0000 0.68060  0.89510  0.55883  Biso   1.000  C
  C135     1.0000 0.39510  0.81940  0.30883  Biso   1.000  C
  C136     1.0000 0.60490  0.18060  0.80883  Biso   1.000  C
  H129     1.0000 0.87520  0.33900  0.71170  Biso   1.000  H
  H130     1.0000 0.16100  0.37520  0.96170  Biso   1.000  H
  H131     1.0000 0.12480  0.66100  0.21170  Biso   1.000  H
  H132     1.0000 0.83900  0.62480  0.46170  Biso   1.000  H
  H133     1.0000 0.37520  0.16100  0.03830  Biso   1.000  H
  H134     1.0000 0.62480  0.83900  0.53830  Biso   1.000  H
  H135     1.0000 0.33900  0.87520  0.28830  Biso   1.000  H
  H136     1.0000 0.66100  0.12480  0.78830  Biso   1.000  H
  C137     1.0000 0.90110  0.47870  0.66140  Biso   1.000  C
  C138     1.0000 0.02130  0.40110  0.91140  Biso   1.000  C
  C139     1.0000 0.09890  0.52130  0.16140  Biso   1.000  C
  C140     1.0000 0.97870  0.59890  0.41140  Biso   1.000  C
  C141     1.0000 0.40110  0.02130  0.08860  Biso   1.000  C
  C142     1.0000 0.59890  0.97870  0.58860  Biso   1.000  C
  C143     1.0000 0.47870  0.90110  0.33860  Biso   1.000  C
  C144     1.0000 0.52130  0.09890  0.83860  Biso   1.000  C
  H137     1.0000 0.01280  0.47970  0.66150  Biso   1.000  H
  H138     1.0000 0.02030  0.51280  0.91150  Biso   1.000  H
  H139     1.0000 0.98720  0.52030  0.16150  Biso   1.000  H
  H140     1.0000 0.97970  0.48720  0.41150  Biso   1.000  H
  H141     1.0000 0.51280  0.02030  0.08850  Biso   1.000  H
  H142     1.0000 0.48720  0.97970  0.58850  Biso   1.000  H
  H143     1.0000 0.47970  0.01280  0.33850  Biso   1.000  H
  H144     1.0000 0.52030  0.98720  0.83850  Biso   1.000  H
  C145     1.0000 0.81940  0.56090  0.63130  Biso   1.000  C
  C146     1.0000 0.93910  0.31940  0.88130  Biso   1.000  C
  C147     1.0000 0.18060  0.43910  0.13130  Biso   1.000  C
  C148     1.0000 0.06090  0.68060  0.38130  Biso   1.000  C
  C149     1.0000 0.31940  0.93910  0.11870  Biso   1.000  C
  C150     1.0000 0.68060  0.06090  0.61870  Biso   1.000  C
  C151     1.0000 0.56090  0.81940  0.36870  Biso   1.000  C
  C152     1.0000 0.43910  0.18060  0.86870  Biso   1.000  C
  H145     1.0000 0.87530  0.61810  0.61090  Biso   1.000  H
  H146     1.0000 0.88190  0.37530  0.86090  Biso   1.000  H
  H147     1.0000 0.12470  0.38190  0.11090  Biso   1.000  H
  H148     1.0000 0.11810  0.62470  0.36090  Biso   1.000  H
  H149     1.0000 0.37530  0.88190  0.13910  Biso   1.000  H
  H150     1.0000 0.62470  0.11810  0.63910  Biso   1.000  H
  H151     1.0000 0.61810  0.87530  0.38910  Biso   1.000  H
  H152     1.0000 0.38190  0.12470  0.88910  Biso   1.000  H
  C153     1.0000 0.65600  0.55960  0.63099  Biso   1.000  C
  C154     1.0000 0.94040  0.15600  0.88099  Biso   1.000  C
  C155     1.0000 0.34400  0.44040  0.13099  Biso   1.000  C
  C156     1.0000 0.05960  0.84400  0.38099  Biso   1.000  C
  C157     1.0000 0.15600  0.94040  0.11901  Biso   1.000  C
  C158     1.0000 0.84400  0.05960  0.61901  Biso   1.000  C
  C159     1.0000 0.55960  0.65600  0.36901  Biso   1.000  C
  C160     1.0000 0.44040  0.34400  0.86901  Biso   1.000  C
  H153     1.0000 0.60020  0.61570  0.61040  Biso   1.000  H
  H154     1.0000 0.88430  0.10020  0.86040  Biso   1.000  H
  H155     1.0000 0.39980  0.38430  0.11040  Biso   1.000  H
  H156     1.0000 0.11570  0.89980  0.36040  Biso   1.000  H
  H157     1.0000 0.10020  0.88430  0.13960  Biso   1.000  H
  H158     1.0000 0.89980  0.11570  0.63960  Biso   1.000  H
  H159     1.0000 0.61570  0.60020  0.38960  Biso   1.000  H
  H160     1.0000 0.38430  0.39980  0.88960  Biso   1.000  H
