data_image0
_cell_length_a       8.4369
_cell_length_b       8.4369
_cell_length_c       32.195
_cell_angle_alpha    90
_cell_angle_beta     90
_cell_angle_gamma    90

_symmetry_space_group_name_H-M    "P 1"
_symmetry_int_tables_number       1

loop_
  _symmetry_equiv_pos_as_xyz
  'x, y, z'

loop_
  _atom_site_label
  _atom_site_occupancy
  _atom_site_fract_x
  _atom_site_fract_y
  _atom_site_fract_z
  _atom_site_thermal_displace_type
  _atom_site_B_iso_or_equiv
  _atom_site_type_symbol
  I1       1.0000 0.26450  0.30030  0.59136  Biso   1.000  I
  I2       1.0000 0.19970  0.76450  0.84136  Biso   1.000  I
  I3       1.0000 0.73550  0.69970  0.09136  Biso   1.000  I
  I4       1.0000 0.80030  0.23550  0.34136  Biso   1.000  I
  I5       1.0000 0.76450  0.19970  0.15864  Biso   1.000  I
  I6       1.0000 0.23550  0.80030  0.65864  Biso   1.000  I
  I7       1.0000 0.30030  0.26450  0.40864  Biso   1.000  I
  I8       1.0000 0.69970  0.73550  0.90864  Biso   1.000  I
  Cu1      1.0000 0.16924  0.59450  0.59413  Biso   1.000  Cu
  Cu2      1.0000 0.90550  0.66924  0.84413  Biso   1.000  Cu
  Cu3      1.0000 0.83076  0.40550  0.09413  Biso   1.000  Cu
  Cu4      1.0000 0.09450  0.33076  0.34413  Biso   1.000  Cu
  Cu5      1.0000 0.66924  0.90550  0.15587  Biso   1.000  Cu
  Cu6      1.0000 0.33076  0.09450  0.65587  Biso   1.000  Cu
  Cu7      1.0000 0.59450  0.16924  0.40587  Biso   1.000  Cu
  Cu8      1.0000 0.40550  0.83076  0.90587  Biso   1.000  Cu
  N1       1.0000 0.23600  0.69100  0.53940  Biso   1.000  N
  N2       1.0000 0.80900  0.73600  0.78940  Biso   1.000  N
  N3       1.0000 0.76400  0.30900  0.03940  Biso   1.000  N
  N4       1.0000 0.19100  0.26400  0.28940  Biso   1.000  N
  N5       1.0000 0.73600  0.80900  0.21060  Biso   1.000  N
  N6       1.0000 0.26400  0.19100  0.71060  Biso   1.000  N
  N7       1.0000 0.69100  0.23600  0.46060  Biso   1.000  N
  N8       1.0000 0.30900  0.76400  0.96060  Biso   1.000  N
  C1       1.0000 0.24300  0.85500  0.53500  Biso   1.000  C
  C2       1.0000 0.64500  0.74300  0.78500  Biso   1.000  C
  C3       1.0000 0.75700  0.14500  0.03500  Biso   1.000  C
  C4       1.0000 0.35500  0.25700  0.28500  Biso   1.000  C
  C5       1.0000 0.74300  0.64500  0.21500  Biso   1.000  C
  C6       1.0000 0.25700  0.35500  0.71500  Biso   1.000  C
  C7       1.0000 0.85500  0.24300  0.46500  Biso   1.000  C
  C8       1.0000 0.14500  0.75700  0.96500  Biso   1.000  C
  H1       1.0000 0.23130  0.91150  0.56040  Biso   1.000  H
  H2       1.0000 0.58850  0.73130  0.81040  Biso   1.000  H
  H3       1.0000 0.76870  0.08850  0.06040  Biso   1.000  H
  H4       1.0000 0.41150  0.26870  0.31040  Biso   1.000  H
  H5       1.0000 0.73130  0.58850  0.18960  Biso   1.000  H
  H6       1.0000 0.26870  0.41150  0.68960  Biso   1.000  H
  H7       1.0000 0.91150  0.23130  0.43960  Biso   1.000  H
  H8       1.0000 0.08850  0.76870  0.93960  Biso   1.000  H
  C9       1.0000 0.26100  0.93500  0.50620  Biso   1.000  C
  C10      1.0000 0.56500  0.76100  0.75620  Biso   1.000  C
  C11      1.0000 0.73900  0.06500  0.00620  Biso   1.000  C
  C12      1.0000 0.43500  0.23900  0.25620  Biso   1.000  C
  C13      1.0000 0.76100  0.56500  0.24380  Biso   1.000  C
  C14      1.0000 0.23900  0.43500  0.74380  Biso   1.000  C
  C15      1.0000 0.93500  0.26100  0.49380  Biso   1.000  C
  C16      1.0000 0.06500  0.73900  0.99380  Biso   1.000  C
  H9       1.0000 0.26610  0.04690  0.50840  Biso   1.000  H
  H10      1.0000 0.45310  0.76610  0.75840  Biso   1.000  H
  H11      1.0000 0.73390  0.95310  0.00840  Biso   1.000  H
  H12      1.0000 0.54690  0.23390  0.25840  Biso   1.000  H
  H13      1.0000 0.76610  0.45310  0.24160  Biso   1.000  H
  H14      1.0000 0.23390  0.54690  0.74160  Biso   1.000  H
  H15      1.0000 0.04690  0.26610  0.49160  Biso   1.000  H
  H16      1.0000 0.95310  0.73390  0.99160  Biso   1.000  H
  C17      1.0000 0.27340  0.85380  0.46680  Biso   1.000  C
  C18      1.0000 0.64620  0.77340  0.71680  Biso   1.000  C
  C19      1.0000 0.72660  0.14620  0.96680  Biso   1.000  C
  C20      1.0000 0.35380  0.22660  0.21680  Biso   1.000  C
  C21      1.0000 0.77340  0.64620  0.28320  Biso   1.000  C
  C22      1.0000 0.22660  0.35380  0.78320  Biso   1.000  C
  C23      1.0000 0.85380  0.27340  0.53320  Biso   1.000  C
  C24      1.0000 0.14620  0.72660  0.03320  Biso   1.000  C
  H17      1.0000 0.28620  0.91040  0.44150  Biso   1.000  H
  H18      1.0000 0.58960  0.78620  0.69150  Biso   1.000  H
  H19      1.0000 0.71380  0.08960  0.94150  Biso   1.000  H
  H20      1.0000 0.41040  0.21380  0.19150  Biso   1.000  H
  H21      1.0000 0.78620  0.58960  0.30850  Biso   1.000  H
  H22      1.0000 0.21380  0.41040  0.80850  Biso   1.000  H
  H23      1.0000 0.91040  0.28620  0.55850  Biso   1.000  H
  H24      1.0000 0.08960  0.71380  0.05850  Biso   1.000  H
  C25      1.0000 0.26610  0.68940  0.46770  Biso   1.000  C
  C26      1.0000 0.81060  0.76610  0.71770  Biso   1.000  C
  C27      1.0000 0.73390  0.31060  0.96770  Biso   1.000  C
  C28      1.0000 0.18940  0.23390  0.21770  Biso   1.000  C
  C29      1.0000 0.76610  0.81060  0.28230  Biso   1.000  C
  C30      1.0000 0.23390  0.18940  0.78230  Biso   1.000  C
  C31      1.0000 0.68940  0.26610  0.53230  Biso   1.000  C
  C32      1.0000 0.31060  0.73390  0.03230  Biso   1.000  C
  H25      1.0000 0.27800  0.63020  0.44280  Biso   1.000  H
  H26      1.0000 0.86980  0.77800  0.69280  Biso   1.000  H
  H27      1.0000 0.72200  0.36980  0.94280  Biso   1.000  H
  H28      1.0000 0.13020  0.22200  0.19280  Biso   1.000  H
  H29      1.0000 0.77800  0.86980  0.30720  Biso   1.000  H
  H30      1.0000 0.22200  0.13020  0.80720  Biso   1.000  H
  H31      1.0000 0.63020  0.27800  0.55720  Biso   1.000  H
  H32      1.0000 0.36980  0.72200  0.05720  Biso   1.000  H
  C33      1.0000 0.24120  0.61210  0.50530  Biso   1.000  C
  C34      1.0000 0.88790  0.74120  0.75530  Biso   1.000  C
  C35      1.0000 0.75880  0.38790  0.00530  Biso   1.000  C
  C36      1.0000 0.11210  0.25880  0.25530  Biso   1.000  C
  C37      1.0000 0.74120  0.88790  0.24470  Biso   1.000  C
  C38      1.0000 0.25880  0.11210  0.74470  Biso   1.000  C
  C39      1.0000 0.61210  0.24120  0.49470  Biso   1.000  C
  C40      1.0000 0.38790  0.75880  0.99470  Biso   1.000  C
  H33      1.0000 0.22800  0.50030  0.50570  Biso   1.000  H
  H34      1.0000 0.99970  0.72800  0.75570  Biso   1.000  H
  H35      1.0000 0.77200  0.49970  0.00570  Biso   1.000  H
  H36      1.0000 0.00030  0.27200  0.25570  Biso   1.000  H
  H37      1.0000 0.72800  0.99970  0.24430  Biso   1.000  H
  H38      1.0000 0.27200  0.00030  0.74430  Biso   1.000  H
  H39      1.0000 0.50030  0.22800  0.49430  Biso   1.000  H
  H40      1.0000 0.49970  0.77200  0.99430  Biso   1.000  H
  N9       1.0000 0.92370  0.60280  0.59207  Biso   1.000  N
  N10      1.0000 0.89720  0.42370  0.84207  Biso   1.000  N
  N11      1.0000 0.07630  0.39720  0.09207  Biso   1.000  N
  N12      1.0000 0.10280  0.57630  0.34207  Biso   1.000  N
  N13      1.0000 0.42370  0.89720  0.15793  Biso   1.000  N
  N14      1.0000 0.57630  0.10280  0.65793  Biso   1.000  N
  N15      1.0000 0.60280  0.92370  0.40793  Biso   1.000  N
  N16      1.0000 0.39720  0.07630  0.90793  Biso   1.000  N
  C41      1.0000 0.83860  0.53360  0.62429  Biso   1.000  C
  C42      1.0000 0.96640  0.33860  0.87429  Biso   1.000  C
  C43      1.0000 0.16140  0.46640  0.12429  Biso   1.000  C
  C44      1.0000 0.03360  0.66140  0.37429  Biso   1.000  C
  C45      1.0000 0.33860  0.96640  0.12571  Biso   1.000  C
  C46      1.0000 0.66140  0.03360  0.62571  Biso   1.000  C
  C47      1.0000 0.53360  0.83860  0.37571  Biso   1.000  C
  C48      1.0000 0.46640  0.16140  0.87571  Biso   1.000  C
  H41      1.0000 0.89300  0.48130  0.64620  Biso   1.000  H
  H42      1.0000 0.01870  0.39300  0.89620  Biso   1.000  H
  H43      1.0000 0.10700  0.51870  0.14620  Biso   1.000  H
  H44      1.0000 0.98130  0.60700  0.39620  Biso   1.000  H
  H45      1.0000 0.39300  0.01870  0.10380  Biso   1.000  H
  H46      1.0000 0.60700  0.98130  0.60380  Biso   1.000  H
  H47      1.0000 0.48130  0.89300  0.35380  Biso   1.000  H
  H48      1.0000 0.51870  0.10700  0.85380  Biso   1.000  H
  C49      1.0000 0.67410  0.54090  0.62444  Biso   1.000  C
  C50      1.0000 0.95910  0.17410  0.87444  Biso   1.000  C
  C51      1.0000 0.32590  0.45910  0.12444  Biso   1.000  C
  C52      1.0000 0.04090  0.82590  0.37444  Biso   1.000  C
  C53      1.0000 0.17410  0.95910  0.12556  Biso   1.000  C
  C54      1.0000 0.82590  0.04090  0.62556  Biso   1.000  C
  C55      1.0000 0.54090  0.67410  0.37556  Biso   1.000  C
  C56      1.0000 0.45910  0.32590  0.87556  Biso   1.000  C
  H49      1.0000 0.61590  0.49360  0.64650  Biso   1.000  H
  H50      1.0000 0.00640  0.11590  0.89650  Biso   1.000  H
  H51      1.0000 0.38410  0.50640  0.14650  Biso   1.000  H
  H52      1.0000 0.99360  0.88410  0.39650  Biso   1.000  H
  H53      1.0000 0.11590  0.00640  0.10350  Biso   1.000  H
  H54      1.0000 0.88410  0.99360  0.60350  Biso   1.000  H
  H55      1.0000 0.49360  0.61590  0.35350  Biso   1.000  H
  H56      1.0000 0.50640  0.38410  0.85350  Biso   1.000  H
  C57      1.0000 0.59460  0.61740  0.59237  Biso   1.000  C
  C58      1.0000 0.88260  0.09460  0.84237  Biso   1.000  C
  C59      1.0000 0.40540  0.38260  0.09237  Biso   1.000  C
  C60      1.0000 0.11740  0.90540  0.34237  Biso   1.000  C
  C61      1.0000 0.09460  0.88260  0.15763  Biso   1.000  C
  C62      1.0000 0.90540  0.11740  0.65763  Biso   1.000  C
  C63      1.0000 0.61740  0.59460  0.40763  Biso   1.000  C
  C64      1.0000 0.38260  0.40540  0.90763  Biso   1.000  C
  H57      1.0000 0.48210  0.62240  0.59250  Biso   1.000  H
  H58      1.0000 0.87760  0.98210  0.84250  Biso   1.000  H
  H59      1.0000 0.51790  0.37760  0.09250  Biso   1.000  H
  H60      1.0000 0.12240  0.01790  0.34250  Biso   1.000  H
  H61      1.0000 0.98210  0.87760  0.15750  Biso   1.000  H
  H62      1.0000 0.01790  0.12240  0.65750  Biso   1.000  H
  H63      1.0000 0.62240  0.48210  0.40750  Biso   1.000  H
  H64      1.0000 0.37760  0.51790  0.90750  Biso   1.000  H
  C65      1.0000 0.67970  0.68660  0.56015  Biso   1.000  C
  C66      1.0000 0.81340  0.17970  0.81015  Biso   1.000  C
  C67      1.0000 0.32030  0.31340  0.06015  Biso   1.000  C
  C68      1.0000 0.18660  0.82030  0.31015  Biso   1.000  C
  C69      1.0000 0.17970  0.81340  0.18985  Biso   1.000  C
  C70      1.0000 0.82030  0.18660  0.68985  Biso   1.000  C
  C71      1.0000 0.68660  0.67970  0.43985  Biso   1.000  C
  C72      1.0000 0.31340  0.32030  0.93985  Biso   1.000  C
  H65      1.0000 0.62530  0.73880  0.53820  Biso   1.000  H
  H66      1.0000 0.76120  0.12530  0.78820  Biso   1.000  H
  H67      1.0000 0.37470  0.26120  0.03820  Biso   1.000  H
  H68      1.0000 0.23880  0.87470  0.28820  Biso   1.000  H
  H69      1.0000 0.12530  0.76120  0.21180  Biso   1.000  H
  H70      1.0000 0.87470  0.23880  0.71180  Biso   1.000  H
  H71      1.0000 0.73880  0.62530  0.46180  Biso   1.000  H
  H72      1.0000 0.26120  0.37470  0.96180  Biso   1.000  H
  C73      1.0000 0.84430  0.67930  0.56000  Biso   1.000  C
  C74      1.0000 0.82070  0.34430  0.81000  Biso   1.000  C
  C75      1.0000 0.15570  0.32070  0.06000  Biso   1.000  C
  C76      1.0000 0.17930  0.65570  0.31000  Biso   1.000  C
  C77      1.0000 0.34430  0.82070  0.19000  Biso   1.000  C
  C78      1.0000 0.65570  0.17930  0.69000  Biso   1.000  C
  C79      1.0000 0.67930  0.84430  0.44000  Biso   1.000  C
  C80      1.0000 0.32070  0.15570  0.94000  Biso   1.000  C
  H73      1.0000 0.90240  0.72650  0.53800  Biso   1.000  H
  H74      1.0000 0.77350  0.40240  0.78800  Biso   1.000  H
  H75      1.0000 0.09760  0.27350  0.03800  Biso   1.000  H
  H76      1.0000 0.22650  0.59760  0.28800  Biso   1.000  H
  H77      1.0000 0.40240  0.77350  0.21200  Biso   1.000  H
  H78      1.0000 0.59760  0.22650  0.71200  Biso   1.000  H
  H79      1.0000 0.72650  0.90240  0.46200  Biso   1.000  H
  H80      1.0000 0.27350  0.09760  0.96200  Biso   1.000  H
  Cu9      1.0000 0.32925  0.47283  0.65812  Biso   1.000  Cu
  Cu10     1.0000 0.02717  0.82925  0.90812  Biso   1.000  Cu
  Cu11     1.0000 0.67075  0.52717  0.15812  Biso   1.000  Cu
  Cu12     1.0000 0.97283  0.17075  0.40812  Biso   1.000  Cu
  Cu13     1.0000 0.82925  0.02717  0.09188  Biso   1.000  Cu
  Cu14     1.0000 0.17075  0.97283  0.59188  Biso   1.000  Cu
  Cu15     1.0000 0.47283  0.32925  0.34188  Biso   1.000  Cu
  Cu16     1.0000 0.52717  0.67075  0.84188  Biso   1.000  Cu
  N17      1.0000 0.23100  0.85900  0.54170  Biso   1.000  N
  N18      1.0000 0.64100  0.73100  0.79170  Biso   1.000  N
  N19      1.0000 0.76900  0.14100  0.04170  Biso   1.000  N
  N20      1.0000 0.35900  0.26900  0.29170  Biso   1.000  N
  N21      1.0000 0.73100  0.64100  0.20830  Biso   1.000  N
  N22      1.0000 0.26900  0.35900  0.70830  Biso   1.000  N
  N23      1.0000 0.85900  0.23100  0.45830  Biso   1.000  N
  N24      1.0000 0.14100  0.76900  0.95830  Biso   1.000  N
  C81      1.0000 0.23500  0.71000  0.54040  Biso   1.000  C
  C82      1.0000 0.79000  0.73500  0.79040  Biso   1.000  C
  C83      1.0000 0.76500  0.29000  0.04040  Biso   1.000  C
  C84      1.0000 0.21000  0.26500  0.29040  Biso   1.000  C
  C85      1.0000 0.73500  0.79000  0.20960  Biso   1.000  C
  C86      1.0000 0.26500  0.21000  0.70960  Biso   1.000  C
  C87      1.0000 0.71000  0.23500  0.45960  Biso   1.000  C
  C88      1.0000 0.29000  0.76500  0.95960  Biso   1.000  C
  H81      1.0000 0.19750  0.65350  0.56390  Biso   1.000  H
  H82      1.0000 0.84650  0.69750  0.81390  Biso   1.000  H
  H83      1.0000 0.80250  0.34650  0.06390  Biso   1.000  H
  H84      1.0000 0.15350  0.30250  0.31390  Biso   1.000  H
  H85      1.0000 0.69750  0.84650  0.18610  Biso   1.000  H
  H86      1.0000 0.30250  0.15350  0.68610  Biso   1.000  H
  H87      1.0000 0.65350  0.19750  0.43610  Biso   1.000  H
  H88      1.0000 0.34650  0.80250  0.93610  Biso   1.000  H
  C89      1.0000 0.29430  0.61770  0.50470  Biso   1.000  C
  C90      1.0000 0.88230  0.79430  0.75470  Biso   1.000  C
  C91      1.0000 0.70570  0.38230  0.00470  Biso   1.000  C
  C92      1.0000 0.11770  0.20570  0.25470  Biso   1.000  C
  C93      1.0000 0.79430  0.88230  0.24530  Biso   1.000  C
  C94      1.0000 0.20570  0.11770  0.74530  Biso   1.000  C
  C95      1.0000 0.61770  0.29430  0.49530  Biso   1.000  C
  C96      1.0000 0.38230  0.70570  0.99530  Biso   1.000  C
  H89      1.0000 0.30370  0.50590  0.50700  Biso   1.000  H
  H90      1.0000 0.99410  0.80370  0.75700  Biso   1.000  H
  H91      1.0000 0.69630  0.49410  0.00700  Biso   1.000  H
  H92      1.0000 0.00590  0.19630  0.25700  Biso   1.000  H
  H93      1.0000 0.80370  0.99410  0.24300  Biso   1.000  H
  H94      1.0000 0.19630  0.00590  0.74300  Biso   1.000  H
  H95      1.0000 0.50590  0.30370  0.49300  Biso   1.000  H
  H96      1.0000 0.49410  0.69630  0.99300  Biso   1.000  H
  C97      1.0000 0.33580  0.69080  0.46860  Biso   1.000  C
  C98      1.0000 0.80920  0.83580  0.71860  Biso   1.000  C
  C99      1.0000 0.66420  0.30920  0.96860  Biso   1.000  C
  C100     1.0000 0.19080  0.16420  0.21860  Biso   1.000  C
  C101     1.0000 0.83580  0.80920  0.28140  Biso   1.000  C
  C102     1.0000 0.16420  0.19080  0.78140  Biso   1.000  C
  C103     1.0000 0.69080  0.33580  0.53140  Biso   1.000  C
  C104     1.0000 0.30920  0.66420  0.03140  Biso   1.000  C
  H97      1.0000 0.36750  0.63090  0.44500  Biso   1.000  H
  H98      1.0000 0.86910  0.86750  0.69500  Biso   1.000  H
  H99      1.0000 0.63250  0.36910  0.94500  Biso   1.000  H
  H100     1.0000 0.13090  0.13250  0.19500  Biso   1.000  H
  H101     1.0000 0.86750  0.86910  0.30500  Biso   1.000  H
  H102     1.0000 0.13250  0.13090  0.80500  Biso   1.000  H
  H103     1.0000 0.63090  0.36750  0.55500  Biso   1.000  H
  H104     1.0000 0.36910  0.63250  0.05500  Biso   1.000  H
  C105     1.0000 0.33030  0.85520  0.46700  Biso   1.000  C
  C106     1.0000 0.64480  0.83030  0.71700  Biso   1.000  C
  C107     1.0000 0.66970  0.14480  0.96700  Biso   1.000  C
  C108     1.0000 0.35520  0.16970  0.21700  Biso   1.000  C
  C109     1.0000 0.83030  0.64480  0.28300  Biso   1.000  C
  C110     1.0000 0.16970  0.35520  0.78300  Biso   1.000  C
  C111     1.0000 0.85520  0.33030  0.53300  Biso   1.000  C
  C112     1.0000 0.14480  0.66970  0.03300  Biso   1.000  C
  H105     1.0000 0.36400  0.90990  0.44280  Biso   1.000  H
  H106     1.0000 0.59010  0.86400  0.69280  Biso   1.000  H
  H107     1.0000 0.63600  0.09010  0.94280  Biso   1.000  H
  H108     1.0000 0.40990  0.13600  0.19280  Biso   1.000  H
  H109     1.0000 0.86400  0.59010  0.30720  Biso   1.000  H
  H110     1.0000 0.13600  0.40990  0.80720  Biso   1.000  H
  H111     1.0000 0.90990  0.36400  0.55720  Biso   1.000  H
  H112     1.0000 0.09010  0.63600  0.05720  Biso   1.000  H
  C113     1.0000 0.27800  0.93400  0.49950  Biso   1.000  C
  C114     1.0000 0.56600  0.77800  0.74950  Biso   1.000  C
  C115     1.0000 0.72200  0.06600  0.99950  Biso   1.000  C
  C116     1.0000 0.43400  0.22200  0.24950  Biso   1.000  C
  C117     1.0000 0.77800  0.56600  0.25050  Biso   1.000  C
  C118     1.0000 0.22200  0.43400  0.75050  Biso   1.000  C
  C119     1.0000 0.93400  0.27800  0.50050  Biso   1.000  C
  C120     1.0000 0.06600  0.72200  0.00050  Biso   1.000  C
  H113     1.0000 0.26810  0.04620  0.49690  Biso   1.000  H
  H114     1.0000 0.45380  0.76810  0.74690  Biso   1.000  H
  H115     1.0000 0.73190  0.95380  0.99690  Biso   1.000  H
  H116     1.0000 0.54620  0.23190  0.24690  Biso   1.000  H
  H117     1.0000 0.76810  0.45380  0.25310  Biso   1.000  H
  H118     1.0000 0.23190  0.54620  0.75310  Biso   1.000  H
  H119     1.0000 0.04620  0.26810  0.50310  Biso   1.000  H
  H120     1.0000 0.95380  0.73190  0.00310  Biso   1.000  H
  N25      1.0000 0.57480  0.47940  0.66093  Biso   1.000  N
  N26      1.0000 0.02060  0.07480  0.91093  Biso   1.000  N
  N27      1.0000 0.42520  0.52060  0.16093  Biso   1.000  N
  N28      1.0000 0.97940  0.92520  0.41093  Biso   1.000  N
  N29      1.0000 0.07480  0.02060  0.08907  Biso   1.000  N
  N30      1.0000 0.92520  0.97940  0.58907  Biso   1.000  N
  N31      1.0000 0.47940  0.57480  0.33907  Biso   1.000  N
  N32      1.0000 0.52060  0.42520  0.83907  Biso   1.000  N
  C121     1.0000 0.65720  0.39680  0.69141  Biso   1.000  C
  C122     1.0000 0.10320  0.15720  0.94141  Biso   1.000  C
  C123     1.0000 0.34280  0.60320  0.19141  Biso   1.000  C
  C124     1.0000 0.89680  0.84280  0.44141  Biso   1.000  C
  C125     1.0000 0.15720  0.10320  0.05859  Biso   1.000  C
  C126     1.0000 0.84280  0.89680  0.55859  Biso   1.000  C
  C127     1.0000 0.39680  0.65720  0.30859  Biso   1.000  C
  C128     1.0000 0.60320  0.34280  0.80859  Biso   1.000  C
  H121     1.0000 0.60090  0.34040  0.71230  Biso   1.000  H
  H122     1.0000 0.15960  0.10090  0.96230  Biso   1.000  H
  H123     1.0000 0.39910  0.65960  0.21230  Biso   1.000  H
  H124     1.0000 0.84040  0.89910  0.46230  Biso   1.000  H
  H125     1.0000 0.10090  0.15960  0.03770  Biso   1.000  H
  H126     1.0000 0.89910  0.84040  0.53770  Biso   1.000  H
  H127     1.0000 0.34040  0.60090  0.28770  Biso   1.000  H
  H128     1.0000 0.65960  0.39910  0.78770  Biso   1.000  H
  C129     1.0000 0.82200  0.39660  0.69138  Biso   1.000  C
  C130     1.0000 0.10340  0.32200  0.94138  Biso   1.000  C
  C131     1.0000 0.17800  0.60340  0.19138  Biso   1.000  C
  C132     1.0000 0.89660  0.67800  0.44138  Biso   1.000  C
  C133     1.0000 0.32200  0.10340  0.05862  Biso   1.000  C
  C134     1.0000 0.67800  0.89660  0.55862  Biso   1.000  C
  C135     1.0000 0.39660  0.82200  0.30862  Biso   1.000  C
  C136     1.0000 0.60340  0.17800  0.80862  Biso   1.000  C
  H129     1.0000 0.87830  0.34020  0.71220  Biso   1.000  H
  H130     1.0000 0.15980  0.37830  0.96220  Biso   1.000  H
  H131     1.0000 0.12170  0.65980  0.21220  Biso   1.000  H
  H132     1.0000 0.84020  0.62170  0.46220  Biso   1.000  H
  H133     1.0000 0.37830  0.15980  0.03780  Biso   1.000  H
  H134     1.0000 0.62170  0.84020  0.53780  Biso   1.000  H
  H135     1.0000 0.34020  0.87830  0.28780  Biso   1.000  H
  H136     1.0000 0.65980  0.12170  0.78780  Biso   1.000  H
  C137     1.0000 0.90430  0.47910  0.66087  Biso   1.000  C
  C138     1.0000 0.02090  0.40430  0.91087  Biso   1.000  C
  C139     1.0000 0.09570  0.52090  0.16087  Biso   1.000  C
  C140     1.0000 0.97910  0.59570  0.41087  Biso   1.000  C
  C141     1.0000 0.40430  0.02090  0.08913  Biso   1.000  C
  C142     1.0000 0.59570  0.97910  0.58913  Biso   1.000  C
  C143     1.0000 0.47910  0.90430  0.33913  Biso   1.000  C
  C144     1.0000 0.52090  0.09570  0.83913  Biso   1.000  C
  H137     1.0000 0.01690  0.47900  0.66090  Biso   1.000  H
  H138     1.0000 0.02100  0.51690  0.91090  Biso   1.000  H
  H139     1.0000 0.98310  0.52100  0.16090  Biso   1.000  H
  H140     1.0000 0.97900  0.48310  0.41090  Biso   1.000  H
  H141     1.0000 0.51690  0.02100  0.08910  Biso   1.000  H
  H142     1.0000 0.48310  0.97900  0.58910  Biso   1.000  H
  H143     1.0000 0.47900  0.01690  0.33910  Biso   1.000  H
  H144     1.0000 0.52100  0.98310  0.83910  Biso   1.000  H
  C145     1.0000 0.82200  0.56170  0.63039  Biso   1.000  C
  C146     1.0000 0.93830  0.32200  0.88039  Biso   1.000  C
  C147     1.0000 0.17800  0.43830  0.13039  Biso   1.000  C
  C148     1.0000 0.06170  0.67800  0.38039  Biso   1.000  C
  C149     1.0000 0.32200  0.93830  0.11961  Biso   1.000  C
  C150     1.0000 0.67800  0.06170  0.61961  Biso   1.000  C
  C151     1.0000 0.56170  0.82200  0.36961  Biso   1.000  C
  C152     1.0000 0.43830  0.17800  0.86961  Biso   1.000  C
  H145     1.0000 0.87830  0.61810  0.60950  Biso   1.000  H
  H146     1.0000 0.88190  0.37830  0.85950  Biso   1.000  H
  H147     1.0000 0.12170  0.38190  0.10950  Biso   1.000  H
  H148     1.0000 0.11810  0.62170  0.35950  Biso   1.000  H
  H149     1.0000 0.37830  0.88190  0.14050  Biso   1.000  H
  H150     1.0000 0.62170  0.11810  0.64050  Biso   1.000  H
  H151     1.0000 0.61810  0.87830  0.39050  Biso   1.000  H
  H152     1.0000 0.38190  0.12170  0.89050  Biso   1.000  H
  C153     1.0000 0.65720  0.56190  0.63042  Biso   1.000  C
  C154     1.0000 0.93810  0.15720  0.88042  Biso   1.000  C
  C155     1.0000 0.34280  0.43810  0.13042  Biso   1.000  C
  C156     1.0000 0.06190  0.84280  0.38042  Biso   1.000  C
  C157     1.0000 0.15720  0.93810  0.11958  Biso   1.000  C
  C158     1.0000 0.84280  0.06190  0.61958  Biso   1.000  C
  C159     1.0000 0.56190  0.65720  0.36958  Biso   1.000  C
  C160     1.0000 0.43810  0.34280  0.86958  Biso   1.000  C
  H153     1.0000 0.60090  0.61830  0.60960  Biso   1.000  H
  H154     1.0000 0.88170  0.10090  0.85960  Biso   1.000  H
  H155     1.0000 0.39910  0.38170  0.10960  Biso   1.000  H
  H156     1.0000 0.11830  0.89910  0.35960  Biso   1.000  H
  H157     1.0000 0.10090  0.88170  0.14040  Biso   1.000  H
  H158     1.0000 0.89910  0.11830  0.64040  Biso   1.000  H
  H159     1.0000 0.61830  0.60090  0.39040  Biso   1.000  H
  H160     1.0000 0.38170  0.39910  0.89040  Biso   1.000  H
  I9       1.0000 0.26500  0.26840  0.59047  Biso   1.000  I
  I10      1.0000 0.23160  0.76500  0.84047  Biso   1.000  I
  I11      1.0000 0.73500  0.73160  0.09047  Biso   1.000  I
  I12      1.0000 0.76840  0.23500  0.34047  Biso   1.000  I
  I13      1.0000 0.76500  0.23160  0.15953  Biso   1.000  I
  I14      1.0000 0.23500  0.76840  0.65953  Biso   1.000  I
  I15      1.0000 0.26840  0.26500  0.40953  Biso   1.000  I
  I16      1.0000 0.73160  0.73500  0.90953  Biso   1.000  I
