data_image0
_cell_length_a       10.9225
_cell_length_b       17.1588
_cell_length_c       14.3282
_cell_angle_alpha    90
_cell_angle_beta     110.252
_cell_angle_gamma    90

_symmetry_space_group_name_H-M    "P 1"
_symmetry_int_tables_number       1

loop_
  _symmetry_equiv_pos_as_xyz
  'x, y, z'

loop_
  _atom_site_label
  _atom_site_occupancy
  _atom_site_fract_x
  _atom_site_fract_y
  _atom_site_fract_z
  _atom_site_thermal_displace_type
  _atom_site_B_iso_or_equiv
  _atom_site_type_symbol
  Cu1      1.0000 0.30958  0.29702  0.19103  Biso   1.000  Cu
  Cu2      1.0000 0.69042  0.79702  0.30897  Biso   1.000  Cu
  Cu3      1.0000 0.69042  0.70298  0.80897  Biso   1.000  Cu
  Cu4      1.0000 0.30958  0.20298  0.69103  Biso   1.000  Cu
  Cu5      1.0000 0.12979  0.29231  0.32574  Biso   1.000  Cu
  Cu6      1.0000 0.87021  0.79231  0.17426  Biso   1.000  Cu
  Cu7      1.0000 0.87021  0.70769  0.67426  Biso   1.000  Cu
  Cu8      1.0000 0.12979  0.20769  0.82574  Biso   1.000  Cu
  S1       1.0000 0.22760  0.47310  0.28440  Biso   1.000  S
  S2       1.0000 0.77240  0.97310  0.21560  Biso   1.000  S
  S3       1.0000 0.77240  0.52690  0.71560  Biso   1.000  S
  S4       1.0000 0.22760  0.02690  0.78440  Biso   1.000  S
  O1       1.0000 0.29720  0.42310  0.23310  Biso   1.000  O
  O2       1.0000 0.70280  0.92310  0.26690  Biso   1.000  O
  O3       1.0000 0.70280  0.57690  0.76690  Biso   1.000  O
  O4       1.0000 0.29720  0.07690  0.73310  Biso   1.000  O
  O5       1.0000 0.14050  0.42510  0.32190  Biso   1.000  O
  O6       1.0000 0.85950  0.92510  0.17810  Biso   1.000  O
  O7       1.0000 0.85950  0.57490  0.67810  Biso   1.000  O
  O8       1.0000 0.14050  0.07490  0.82190  Biso   1.000  O
  O9       1.0000 0.32380  0.51390  0.37050  Biso   1.000  O
  O10      1.0000 0.67620  0.01390  0.12950  Biso   1.000  O
  O11      1.0000 0.67620  0.48610  0.62950  Biso   1.000  O
  O12      1.0000 0.32380  0.98610  0.87050  Biso   1.000  O
  O13      1.0000 0.15530  0.53230  0.19880  Biso   1.000  O
  O14      1.0000 0.84470  0.03230  0.30120  Biso   1.000  O
  O15      1.0000 0.84470  0.46770  0.80120  Biso   1.000  O
  O16      1.0000 0.15530  0.96770  0.69880  Biso   1.000  O
  N1       1.0000 0.48620  0.27780  0.27360  Biso   1.000  N
  N2       1.0000 0.51380  0.77780  0.22640  Biso   1.000  N
  N3       1.0000 0.51380  0.72220  0.72640  Biso   1.000  N
  N4       1.0000 0.48620  0.22220  0.77360  Biso   1.000  N
  C1       1.0000 0.53500  0.20670  0.29890  Biso   1.000  C
  C2       1.0000 0.46500  0.70670  0.20110  Biso   1.000  C
  C3       1.0000 0.46500  0.79330  0.70110  Biso   1.000  C
  C4       1.0000 0.53500  0.29330  0.79890  Biso   1.000  C
  H1       1.0000 0.48000  0.16430  0.27550  Biso   1.000  H
  H2       1.0000 0.52000  0.66430  0.22450  Biso   1.000  H
  H3       1.0000 0.52000  0.83570  0.72450  Biso   1.000  H
  H4       1.0000 0.48000  0.33570  0.77550  Biso   1.000  H
  C5       1.0000 0.66340  0.19240  0.35820  Biso   1.000  C
  C6       1.0000 0.33660  0.69240  0.14180  Biso   1.000  C
  C7       1.0000 0.33660  0.80760  0.64180  Biso   1.000  C
  C8       1.0000 0.66340  0.30760  0.85820  Biso   1.000  C
  H5       1.0000 0.69270  0.14150  0.37310  Biso   1.000  H
  H6       1.0000 0.30730  0.64150  0.12690  Biso   1.000  H
  H7       1.0000 0.30730  0.85850  0.62690  Biso   1.000  H
  H8       1.0000 0.69270  0.35850  0.87310  Biso   1.000  H
  C9       1.0000 0.74790  0.25440  0.39500  Biso   1.000  C
  C10      1.0000 0.25210  0.75440  0.10500  Biso   1.000  C
  C11      1.0000 0.25210  0.74560  0.60500  Biso   1.000  C
  C12      1.0000 0.74790  0.24560  0.89500  Biso   1.000  C
  C13      1.0000 0.69750  0.32810  0.36770  Biso   1.000  C
  C14      1.0000 0.30250  0.82810  0.13230  Biso   1.000  C
  C15      1.0000 0.30250  0.67190  0.63230  Biso   1.000  C
  C16      1.0000 0.69750  0.17190  0.86770  Biso   1.000  C
  H9       1.0000 0.75070  0.37160  0.38950  Biso   1.000  H
  H10      1.0000 0.24930  0.87160  0.11050  Biso   1.000  H
  H11      1.0000 0.24930  0.62840  0.61050  Biso   1.000  H
  H12      1.0000 0.75070  0.12840  0.88950  Biso   1.000  H
  C17      1.0000 0.56880  0.33760  0.30810  Biso   1.000  C
  C18      1.0000 0.43120  0.83760  0.19190  Biso   1.000  C
  C19      1.0000 0.43120  0.66240  0.69190  Biso   1.000  C
  C20      1.0000 0.56880  0.16240  0.80810  Biso   1.000  C
  H13      1.0000 0.53760  0.38800  0.29090  Biso   1.000  H
  H14      1.0000 0.46240  0.88800  0.20910  Biso   1.000  H
  H15      1.0000 0.46240  0.61200  0.70910  Biso   1.000  H
  H16      1.0000 0.53760  0.11200  0.79090  Biso   1.000  H
  C21      1.0000 0.88520  0.24230  0.46140  Biso   1.000  C
  C22      1.0000 0.11480  0.74230  0.03860  Biso   1.000  C
  C23      1.0000 0.11480  0.75770  0.53860  Biso   1.000  C
  C24      1.0000 0.88520  0.25770  0.96140  Biso   1.000  C
  C25      1.0000 0.96450  0.30450  0.50840  Biso   1.000  C
  C26      1.0000 0.03550  0.80450  0.99160  Biso   1.000  C
  C27      1.0000 0.03550  0.69550  0.49160  Biso   1.000  C
  C28      1.0000 0.96450  0.19550  0.00840  Biso   1.000  C
  H17      1.0000 0.93310  0.35530  0.49630  Biso   1.000  H
  H18      1.0000 0.06690  0.85530  0.00370  Biso   1.000  H
  H19      1.0000 0.06690  0.64470  0.50370  Biso   1.000  H
  H20      1.0000 0.93310  0.14470  0.99630  Biso   1.000  H
  C29      1.0000 0.08970  0.29090  0.57290  Biso   1.000  C
  C30      1.0000 0.91030  0.79090  0.92710  Biso   1.000  C
  C31      1.0000 0.91030  0.70910  0.42710  Biso   1.000  C
  C32      1.0000 0.08970  0.20910  0.07290  Biso   1.000  C
  H21      1.0000 0.14090  0.33330  0.60360  Biso   1.000  H
  H22      1.0000 0.85910  0.83330  0.89640  Biso   1.000  H
  H23      1.0000 0.85910  0.66670  0.39640  Biso   1.000  H
  H24      1.0000 0.14090  0.16670  0.10360  Biso   1.000  H
  N5       1.0000 0.14110  0.21890  0.59350  Biso   1.000  N
  N6       1.0000 0.85890  0.71890  0.90650  Biso   1.000  N
  N7       1.0000 0.85890  0.78110  0.40650  Biso   1.000  N
  N8       1.0000 0.14110  0.28110  0.09350  Biso   1.000  N
  C33      1.0000 0.06600  0.15990  0.54460  Biso   1.000  C
  C34      1.0000 0.93400  0.65990  0.95540  Biso   1.000  C
  C35      1.0000 0.93400  0.84010  0.45540  Biso   1.000  C
  C36      1.0000 0.06600  0.34010  0.04460  Biso   1.000  C
  H25      1.0000 0.10090  0.10990  0.55530  Biso   1.000  H
  H26      1.0000 0.89910  0.60990  0.94470  Biso   1.000  H
  H27      1.0000 0.89910  0.89010  0.44470  Biso   1.000  H
  H28      1.0000 0.10090  0.39010  0.05530  Biso   1.000  H
  C37      1.0000 0.94050  0.16880  0.47960  Biso   1.000  C
  C38      1.0000 0.05950  0.66880  0.02040  Biso   1.000  C
  C39      1.0000 0.05950  0.83120  0.52040  Biso   1.000  C
  C40      1.0000 0.94050  0.33120  0.97960  Biso   1.000  C
  H29      1.0000 0.89280  0.12550  0.44790  Biso   1.000  H
  H30      1.0000 0.10720  0.62550  0.05210  Biso   1.000  H
  H31      1.0000 0.10720  0.87450  0.55210  Biso   1.000  H
  H32      1.0000 0.89280  0.37450  0.94790  Biso   1.000  H
  N9       1.0000 0.29530  0.27090  0.42460  Biso   1.000  N
  N10      1.0000 0.70470  0.77090  0.07540  Biso   1.000  N
  N11      1.0000 0.70470  0.72910  0.57540  Biso   1.000  N
  N12      1.0000 0.29530  0.22910  0.92460  Biso   1.000  N
  C41      1.0000 0.34300  0.20000  0.45000  Biso   1.000  C
  C42      1.0000 0.65700  0.70000  0.05000  Biso   1.000  C
  C43      1.0000 0.65700  0.80000  0.55000  Biso   1.000  C
  C44      1.0000 0.34300  0.30000  0.95000  Biso   1.000  C
  H33      1.0000 0.28970  0.15740  0.42310  Biso   1.000  H
  H34      1.0000 0.71030  0.65740  0.07690  Biso   1.000  H
  H35      1.0000 0.71030  0.84260  0.57690  Biso   1.000  H
  H36      1.0000 0.28970  0.34260  0.92310  Biso   1.000  H
  C45      1.0000 0.46840  0.18620  0.51460  Biso   1.000  C
  C46      1.0000 0.53160  0.68620  0.98540  Biso   1.000  C
  C47      1.0000 0.53160  0.81380  0.48540  Biso   1.000  C
  C48      1.0000 0.46840  0.31380  0.01460  Biso   1.000  C
  H37      1.0000 0.49720  0.13530  0.53060  Biso   1.000  H
  H38      1.0000 0.50280  0.63530  0.96940  Biso   1.000  H
  H39      1.0000 0.50280  0.86470  0.46940  Biso   1.000  H
  H40      1.0000 0.49720  0.36470  0.03060  Biso   1.000  H
  C49      1.0000 0.55140  0.24810  0.55570  Biso   1.000  C
  C50      1.0000 0.44860  0.74810  0.94430  Biso   1.000  C
  C51      1.0000 0.44860  0.75190  0.44430  Biso   1.000  C
  C52      1.0000 0.55140  0.25190  0.05570  Biso   1.000  C
  C53      1.0000 0.49870  0.32100  0.53220  Biso   1.000  C
  C54      1.0000 0.50130  0.82100  0.96780  Biso   1.000  C
  C55      1.0000 0.50130  0.67900  0.46780  Biso   1.000  C
  C56      1.0000 0.49870  0.17900  0.03220  Biso   1.000  C
  H41      1.0000 0.54860  0.36460  0.56000  Biso   1.000  H
  H42      1.0000 0.45140  0.86460  0.94000  Biso   1.000  H
  H43      1.0000 0.45140  0.63540  0.44000  Biso   1.000  H
  H44      1.0000 0.54860  0.13540  0.06000  Biso   1.000  H
  C57      1.0000 0.37310  0.33020  0.46810  Biso   1.000  C
  C58      1.0000 0.62690  0.83020  0.03190  Biso   1.000  C
  C59      1.0000 0.62690  0.66980  0.53190  Biso   1.000  C
  C60      1.0000 0.37310  0.16980  0.96810  Biso   1.000  C
  H45      1.0000 0.34030  0.38060  0.45410  Biso   1.000  H
  H46      1.0000 0.65970  0.88060  0.04590  Biso   1.000  H
  H47      1.0000 0.65970  0.61940  0.54590  Biso   1.000  H
  H48      1.0000 0.34030  0.11940  0.95410  Biso   1.000  H
  C61      1.0000 0.68900  0.23730  0.62100  Biso   1.000  C
  C62      1.0000 0.31100  0.73730  0.87900  Biso   1.000  C
  C63      1.0000 0.31100  0.76270  0.37900  Biso   1.000  C
  C64      1.0000 0.68900  0.26270  0.12100  Biso   1.000  C
  C65      1.0000 0.76720  0.30040  0.66570  Biso   1.000  C
  C66      1.0000 0.23280  0.80040  0.83430  Biso   1.000  C
  C67      1.0000 0.23280  0.69960  0.33430  Biso   1.000  C
  C68      1.0000 0.76720  0.19960  0.16570  Biso   1.000  C
  H49      1.0000 0.73260  0.35050  0.65620  Biso   1.000  H
  H50      1.0000 0.26740  0.85050  0.84380  Biso   1.000  H
  H51      1.0000 0.26740  0.64950  0.34380  Biso   1.000  H
  H52      1.0000 0.73260  0.14950  0.15620  Biso   1.000  H
  C69      1.0000 0.89560  0.28900  0.72400  Biso   1.000  C
  C70      1.0000 0.10440  0.78900  0.77600  Biso   1.000  C
  C71      1.0000 0.10440  0.71100  0.27600  Biso   1.000  C
  C72      1.0000 0.89560  0.21100  0.22400  Biso   1.000  C
  H53      1.0000 0.94550  0.33220  0.75340  Biso   1.000  H
  H54      1.0000 0.05450  0.83220  0.74660  Biso   1.000  H
  H55      1.0000 0.05450  0.66780  0.24660  Biso   1.000  H
  H56      1.0000 0.94550  0.16780  0.25340  Biso   1.000  H
  N13      1.0000 0.95230  0.21870  0.74060  Biso   1.000  N
  N14      1.0000 0.04770  0.71870  0.75940  Biso   1.000  N
  N15      1.0000 0.04770  0.78130  0.25940  Biso   1.000  N
  N16      1.0000 0.95230  0.28130  0.24060  Biso   1.000  N
  C73      1.0000 0.87800  0.15770  0.69590  Biso   1.000  C
  C74      1.0000 0.12200  0.65770  0.80410  Biso   1.000  C
  C75      1.0000 0.12200  0.84230  0.30410  Biso   1.000  C
  C76      1.0000 0.87800  0.34230  0.19590  Biso   1.000  C
  H57      1.0000 0.91570  0.10840  0.70520  Biso   1.000  H
  H58      1.0000 0.08430  0.60840  0.79480  Biso   1.000  H
  H59      1.0000 0.08430  0.89160  0.29480  Biso   1.000  H
  H60      1.0000 0.91570  0.39160  0.20520  Biso   1.000  H
  C77      1.0000 0.74870  0.16460  0.63690  Biso   1.000  C
  C78      1.0000 0.25130  0.66460  0.86310  Biso   1.000  C
  C79      1.0000 0.25130  0.83540  0.36310  Biso   1.000  C
  C80      1.0000 0.74870  0.33540  0.13690  Biso   1.000  C
  H61      1.0000 0.70130  0.12050  0.60770  Biso   1.000  H
  H62      1.0000 0.29870  0.62050  0.89230  Biso   1.000  H
  H63      1.0000 0.29870  0.87950  0.39230  Biso   1.000  H
  H64      1.0000 0.70130  0.37950  0.10770  Biso   1.000  H
  O17      1.0000 0.70740  0.00390  0.46600  Biso   1.000  O
  O18      1.0000 0.29260  0.50390  0.03400  Biso   1.000  O
  O19      1.0000 0.29260  0.99610  0.53400  Biso   1.000  O
  O20      1.0000 0.70740  0.49610  0.96600  Biso   1.000  O
  O21      1.0000 0.59760  0.49780  0.42630  Biso   1.000  O
  O22      1.0000 0.40240  0.99780  0.07370  Biso   1.000  O
  O23      1.0000 0.40240  0.50220  0.57370  Biso   1.000  O
  O24      1.0000 0.59760  0.00220  0.92630  Biso   1.000  O
  O25      1.0000 0.27440  0.05000  0.20950  Biso   1.000  O
  O26      1.0000 0.72560  0.55000  0.29050  Biso   1.000  O
  O27      1.0000 0.72560  0.95000  0.79050  Biso   1.000  O
  O28      1.0000 0.27440  0.45000  0.70950  Biso   1.000  O
  O29      1.0000 0.45130  0.00800  0.38920  Biso   1.000  O
  O30      1.0000 0.54870  0.50800  0.11080  Biso   1.000  O
  O31      1.0000 0.54870  0.99200  0.61080  Biso   1.000  O
  O32      1.0000 0.45130  0.49200  0.88920  Biso   1.000  O
  O33      1.0000 0.01590  0.50700  0.60320  Biso   1.000  O
  O34      1.0000 0.98410  0.00700  0.89680  Biso   1.000  O
  O35      1.0000 0.98410  0.49300  0.39680  Biso   1.000  O
  O36      1.0000 0.01590  0.99300  0.10320  Biso   1.000  O
  O37      1.0000 0.11090  0.04710  0.35490  Biso   1.000  O
  O38      1.0000 0.88910  0.54710  0.14510  Biso   1.000  O
  O39      1.0000 0.88910  0.95290  0.64510  Biso   1.000  O
  O40      1.0000 0.11090  0.45290  0.85490  Biso   1.000  O
  S5       1.0000 0.24500  0.47280  0.24130  Biso   1.000  S
  S6       1.0000 0.75500  0.97280  0.25870  Biso   1.000  S
  S7       1.0000 0.75500  0.52720  0.75870  Biso   1.000  S
  S8       1.0000 0.24500  0.02720  0.74130  Biso   1.000  S
  O41      1.0000 0.31380  0.43060  0.18300  Biso   1.000  O
  O42      1.0000 0.68620  0.93060  0.31700  Biso   1.000  O
  O43      1.0000 0.68620  0.56940  0.81700  Biso   1.000  O
  O44      1.0000 0.31380  0.06940  0.68300  Biso   1.000  O
  O45      1.0000 0.16440  0.41730  0.27500  Biso   1.000  O
  O46      1.0000 0.83560  0.91730  0.22500  Biso   1.000  O
  O47      1.0000 0.83560  0.58270  0.72500  Biso   1.000  O
  O48      1.0000 0.16440  0.08270  0.77500  Biso   1.000  O
  O49      1.0000 0.34180  0.50870  0.33150  Biso   1.000  O
  O50      1.0000 0.65820  0.00870  0.16850  Biso   1.000  O
  O51      1.0000 0.65820  0.49130  0.66850  Biso   1.000  O
  O52      1.0000 0.34180  0.99130  0.83150  Biso   1.000  O
