data_image0
_cell_length_a       10.8109
_cell_length_b       17.4051
_cell_length_c       14.6242
_cell_angle_alpha    90
_cell_angle_beta     109.655
_cell_angle_gamma    90

_symmetry_space_group_name_H-M    "P 1"
_symmetry_int_tables_number       1

loop_
  _symmetry_equiv_pos_as_xyz
  'x, y, z'

loop_
  _atom_site_label
  _atom_site_occupancy
  _atom_site_fract_x
  _atom_site_fract_y
  _atom_site_fract_z
  _atom_site_thermal_displace_type
  _atom_site_B_iso_or_equiv
  _atom_site_type_symbol
  Cu1      1.0000 0.40761  0.54366  0.31541  Biso   1.000  Cu
  Cu2      1.0000 0.59239  0.54366  0.18459  Biso   1.000  Cu
  Cu3      1.0000 0.90761  0.04366  0.31541  Biso   1.000  Cu
  Cu4      1.0000 0.09239  0.04366  0.18459  Biso   1.000  Cu
  Cu5      1.0000 0.59239  0.45634  0.68459  Biso   1.000  Cu
  Cu6      1.0000 0.40761  0.45634  0.81541  Biso   1.000  Cu
  Cu7      1.0000 0.09239  0.95634  0.68459  Biso   1.000  Cu
  Cu8      1.0000 0.90761  0.95634  0.81541  Biso   1.000  Cu
  N1       1.0000 0.23000  0.52980  0.23100  Biso   1.000  N
  N2       1.0000 0.77000  0.52980  0.26900  Biso   1.000  N
  N3       1.0000 0.73000  0.02980  0.23100  Biso   1.000  N
  N4       1.0000 0.27000  0.02980  0.26900  Biso   1.000  N
  N5       1.0000 0.77000  0.47020  0.76900  Biso   1.000  N
  N6       1.0000 0.23000  0.47020  0.73100  Biso   1.000  N
  N7       1.0000 0.27000  0.97020  0.76900  Biso   1.000  N
  N8       1.0000 0.73000  0.97020  0.73100  Biso   1.000  N
  N9       1.0000 0.57280  0.47480  0.91350  Biso   1.000  N
  N10      1.0000 0.42720  0.47480  0.58650  Biso   1.000  N
  N11      1.0000 0.07280  0.97480  0.91350  Biso   1.000  N
  N12      1.0000 0.92720  0.97480  0.58650  Biso   1.000  N
  N13      1.0000 0.42720  0.52520  0.08650  Biso   1.000  N
  N14      1.0000 0.57280  0.52520  0.41350  Biso   1.000  N
  N15      1.0000 0.92720  0.02520  0.08650  Biso   1.000  N
  N16      1.0000 0.07280  0.02520  0.41350  Biso   1.000  N
  O1       1.0000 0.41540  0.67560  0.29490  Biso   1.000  O
  O2       1.0000 0.58460  0.67560  0.20510  Biso   1.000  O
  O3       1.0000 0.91540  0.17560  0.29490  Biso   1.000  O
  O4       1.0000 0.08460  0.17560  0.20510  Biso   1.000  O
  O5       1.0000 0.58460  0.32440  0.70510  Biso   1.000  O
  O6       1.0000 0.41540  0.32440  0.79490  Biso   1.000  O
  O7       1.0000 0.08460  0.82440  0.70510  Biso   1.000  O
  O8       1.0000 0.91540  0.82440  0.79490  Biso   1.000  O
  O9       1.0000 0.40920  0.76750  0.17320  Biso   1.000  O
  O10      1.0000 0.59080  0.76750  0.32680  Biso   1.000  O
  O11      1.0000 0.90920  0.26750  0.17320  Biso   1.000  O
  O12      1.0000 0.09080  0.26750  0.32680  Biso   1.000  O
  O13      1.0000 0.59080  0.23250  0.82680  Biso   1.000  O
  O14      1.0000 0.40920  0.23250  0.67320  Biso   1.000  O
  O15      1.0000 0.09080  0.73250  0.82680  Biso   1.000  O
  O16      1.0000 0.90920  0.73250  0.67320  Biso   1.000  O
  S1       1.0000 0.50000  0.72180  0.25000  Biso   1.000  S
  S2       1.0000 0.00000  0.22180  0.25000  Biso   1.000  S
  S3       1.0000 0.50000  0.27820  0.75000  Biso   1.000  S
  S4       1.0000 0.00000  0.77820  0.75000  Biso   1.000  S
  C1       1.0000 0.15120  0.58790  0.19130  Biso   1.000  C
  C2       1.0000 0.84880  0.58790  0.30870  Biso   1.000  C
  C3       1.0000 0.65120  0.08790  0.19130  Biso   1.000  C
  C4       1.0000 0.34880  0.08790  0.30870  Biso   1.000  C
  C5       1.0000 0.84880  0.41210  0.80870  Biso   1.000  C
  C6       1.0000 0.15120  0.41210  0.69130  Biso   1.000  C
  C7       1.0000 0.34880  0.91210  0.80870  Biso   1.000  C
  C8       1.0000 0.65120  0.91210  0.69130  Biso   1.000  C
  H1       1.0000 0.18550  0.63730  0.20390  Biso   1.000  H
  H2       1.0000 0.81450  0.63730  0.29610  Biso   1.000  H
  H3       1.0000 0.68550  0.13730  0.20390  Biso   1.000  H
  H4       1.0000 0.31450  0.13730  0.29610  Biso   1.000  H
  H5       1.0000 0.81450  0.36270  0.79610  Biso   1.000  H
  H6       1.0000 0.18550  0.36270  0.70390  Biso   1.000  H
  H7       1.0000 0.31450  0.86270  0.79610  Biso   1.000  H
  H8       1.0000 0.68550  0.86270  0.70390  Biso   1.000  H
  C9       1.0000 0.02320  0.58040  0.13300  Biso   1.000  C
  C10      1.0000 0.97680  0.58040  0.36700  Biso   1.000  C
  C11      1.0000 0.52320  0.08040  0.13300  Biso   1.000  C
  C12      1.0000 0.47680  0.08040  0.36700  Biso   1.000  C
  C13      1.0000 0.97680  0.41960  0.86700  Biso   1.000  C
  C14      1.0000 0.02320  0.41960  0.63300  Biso   1.000  C
  C15      1.0000 0.47680  0.91960  0.86700  Biso   1.000  C
  C16      1.0000 0.52320  0.91960  0.63300  Biso   1.000  C
  H9       1.0000 0.97400  0.62400  0.10760  Biso   1.000  H
  H10      1.0000 0.02600  0.62400  0.39240  Biso   1.000  H
  H11      1.0000 0.47400  0.12400  0.10760  Biso   1.000  H
  H12      1.0000 0.52600  0.12400  0.39240  Biso   1.000  H
  H13      1.0000 0.02600  0.37600  0.89240  Biso   1.000  H
  H14      1.0000 0.97400  0.37600  0.60760  Biso   1.000  H
  H15      1.0000 0.52600  0.87600  0.89240  Biso   1.000  H
  H16      1.0000 0.47400  0.87600  0.60760  Biso   1.000  H
  C17      1.0000 0.96640  0.50910  0.11140  Biso   1.000  C
  C18      1.0000 0.03360  0.50910  0.38860  Biso   1.000  C
  C19      1.0000 0.46640  0.00910  0.11140  Biso   1.000  C
  C20      1.0000 0.53360  0.00910  0.38860  Biso   1.000  C
  C21      1.0000 0.03360  0.49090  0.88860  Biso   1.000  C
  C22      1.0000 0.96640  0.49090  0.61140  Biso   1.000  C
  C23      1.0000 0.53360  0.99090  0.88860  Biso   1.000  C
  C24      1.0000 0.46640  0.99090  0.61140  Biso   1.000  C
  C25      1.0000 0.05000  0.44740  0.15400  Biso   1.000  C
  C26      1.0000 0.95000  0.44740  0.34600  Biso   1.000  C
  C27      1.0000 0.55000  0.94740  0.15400  Biso   1.000  C
  C28      1.0000 0.45000  0.94740  0.34600  Biso   1.000  C
  C29      1.0000 0.95000  0.55260  0.84600  Biso   1.000  C
  C30      1.0000 0.05000  0.55260  0.65400  Biso   1.000  C
  C31      1.0000 0.45000  0.05260  0.84600  Biso   1.000  C
  C32      1.0000 0.55000  0.05260  0.65400  Biso   1.000  C
  H17      1.0000 0.01770  0.39760  0.14220  Biso   1.000  H
  H18      1.0000 0.98230  0.39760  0.35780  Biso   1.000  H
  H19      1.0000 0.51770  0.89760  0.14220  Biso   1.000  H
  H20      1.0000 0.48230  0.89760  0.35780  Biso   1.000  H
  H21      1.0000 0.98230  0.60240  0.85780  Biso   1.000  H
  H22      1.0000 0.01770  0.60240  0.64220  Biso   1.000  H
  H23      1.0000 0.48230  0.10240  0.85780  Biso   1.000  H
  H24      1.0000 0.51770  0.10240  0.64220  Biso   1.000  H
  C33      1.0000 0.17430  0.45830  0.21080  Biso   1.000  C
  C34      1.0000 0.82570  0.45830  0.28920  Biso   1.000  C
  C35      1.0000 0.67430  0.95830  0.21080  Biso   1.000  C
  C36      1.0000 0.32570  0.95830  0.28920  Biso   1.000  C
  C37      1.0000 0.82570  0.54170  0.78920  Biso   1.000  C
  C38      1.0000 0.17430  0.54170  0.71080  Biso   1.000  C
  C39      1.0000 0.32570  0.04170  0.78920  Biso   1.000  C
  C40      1.0000 0.67430  0.04170  0.71080  Biso   1.000  C
  H25      1.0000 0.22530  0.41560  0.23780  Biso   1.000  H
  H26      1.0000 0.77470  0.41560  0.26220  Biso   1.000  H
  H27      1.0000 0.72530  0.91560  0.23780  Biso   1.000  H
  H28      1.0000 0.27470  0.91560  0.26220  Biso   1.000  H
  H29      1.0000 0.77470  0.58440  0.76220  Biso   1.000  H
  H30      1.0000 0.22530  0.58440  0.73780  Biso   1.000  H
  H31      1.0000 0.27470  0.08440  0.76220  Biso   1.000  H
  H32      1.0000 0.72530  0.08440  0.73780  Biso   1.000  H
  C41      1.0000 0.62370  0.54590  0.93650  Biso   1.000  C
  C42      1.0000 0.37630  0.54590  0.56350  Biso   1.000  C
  C43      1.0000 0.12370  0.04590  0.93650  Biso   1.000  C
  C44      1.0000 0.87630  0.04590  0.56350  Biso   1.000  C
  C45      1.0000 0.37630  0.45410  0.06350  Biso   1.000  C
  C46      1.0000 0.62370  0.45410  0.43650  Biso   1.000  C
  C47      1.0000 0.87630  0.95410  0.06350  Biso   1.000  C
  C48      1.0000 0.12370  0.95410  0.43650  Biso   1.000  C
  H33      1.0000 0.57260  0.58820  0.90820  Biso   1.000  H
  H34      1.0000 0.42740  0.58820  0.59180  Biso   1.000  H
  H35      1.0000 0.07260  0.08820  0.90820  Biso   1.000  H
  H36      1.0000 0.92740  0.08820  0.59180  Biso   1.000  H
  H37      1.0000 0.42740  0.41180  0.09180  Biso   1.000  H
  H38      1.0000 0.57260  0.41180  0.40820  Biso   1.000  H
  H39      1.0000 0.92740  0.91180  0.09180  Biso   1.000  H
  H40      1.0000 0.07260  0.91180  0.40820  Biso   1.000  H
  C49      1.0000 0.74820  0.55760  0.00020  Biso   1.000  C
  C50      1.0000 0.25180  0.55760  0.49980  Biso   1.000  C
  C51      1.0000 0.24820  0.05760  0.00020  Biso   1.000  C
  C52      1.0000 0.75180  0.05760  0.49980  Biso   1.000  C
  C53      1.0000 0.25180  0.44240  0.99980  Biso   1.000  C
  C54      1.0000 0.74820  0.44240  0.50020  Biso   1.000  C
  C55      1.0000 0.75180  0.94240  0.99980  Biso   1.000  C
  C56      1.0000 0.24820  0.94240  0.50020  Biso   1.000  C
  H41      1.0000 0.77910  0.60770  0.01340  Biso   1.000  H
  H42      1.0000 0.22090  0.60770  0.48660  Biso   1.000  H
  H43      1.0000 0.27910  0.10770  0.01340  Biso   1.000  H
  H44      1.0000 0.72090  0.10770  0.48660  Biso   1.000  H
  H45      1.0000 0.22090  0.39230  0.98660  Biso   1.000  H
  H46      1.0000 0.77910  0.39230  0.51340  Biso   1.000  H
  H47      1.0000 0.72090  0.89230  0.98660  Biso   1.000  H
  H48      1.0000 0.27910  0.89230  0.51340  Biso   1.000  H
  C57      1.0000 0.82950  0.49760  0.04550  Biso   1.000  C
  C58      1.0000 0.17050  0.49760  0.45450  Biso   1.000  C
  C59      1.0000 0.32950  0.99760  0.04550  Biso   1.000  C
  C60      1.0000 0.67050  0.99760  0.45450  Biso   1.000  C
  C61      1.0000 0.17050  0.50240  0.95450  Biso   1.000  C
  C62      1.0000 0.82950  0.50240  0.54550  Biso   1.000  C
  C63      1.0000 0.67050  0.00240  0.95450  Biso   1.000  C
  C64      1.0000 0.32950  0.00240  0.54550  Biso   1.000  C
  C65      1.0000 0.77300  0.42700  0.02490  Biso   1.000  C
  C66      1.0000 0.22700  0.42700  0.47510  Biso   1.000  C
  C67      1.0000 0.27300  0.92700  0.02490  Biso   1.000  C
  C68      1.0000 0.72700  0.92700  0.47510  Biso   1.000  C
  C69      1.0000 0.22700  0.57300  0.97510  Biso   1.000  C
  C70      1.0000 0.77300  0.57300  0.52490  Biso   1.000  C
  C71      1.0000 0.72700  0.07300  0.97510  Biso   1.000  C
  C72      1.0000 0.27300  0.07300  0.52490  Biso   1.000  C
  H49      1.0000 0.81940  0.38420  0.05660  Biso   1.000  H
  H50      1.0000 0.18060  0.38420  0.44340  Biso   1.000  H
  H51      1.0000 0.31940  0.88420  0.05660  Biso   1.000  H
  H52      1.0000 0.68060  0.88420  0.44340  Biso   1.000  H
  H53      1.0000 0.18060  0.61580  0.94340  Biso   1.000  H
  H54      1.0000 0.81940  0.61580  0.55660  Biso   1.000  H
  H55      1.0000 0.68060  0.11580  0.94340  Biso   1.000  H
  H56      1.0000 0.31940  0.11580  0.55660  Biso   1.000  H
  C73      1.0000 0.64870  0.41720  0.95830  Biso   1.000  C
  C74      1.0000 0.35130  0.41720  0.54170  Biso   1.000  C
  C75      1.0000 0.14870  0.91720  0.95830  Biso   1.000  C
  C76      1.0000 0.85130  0.91720  0.54170  Biso   1.000  C
  C77      1.0000 0.35130  0.58280  0.04170  Biso   1.000  C
  C78      1.0000 0.64870  0.58280  0.45830  Biso   1.000  C
  C79      1.0000 0.85130  0.08280  0.04170  Biso   1.000  C
  C80      1.0000 0.14870  0.08280  0.45830  Biso   1.000  C
  H57      1.0000 0.61660  0.36740  0.94420  Biso   1.000  H
  H58      1.0000 0.38340  0.36740  0.55580  Biso   1.000  H
  H59      1.0000 0.11660  0.86740  0.94420  Biso   1.000  H
  H60      1.0000 0.88340  0.86740  0.55580  Biso   1.000  H
  H61      1.0000 0.38340  0.63260  0.05580  Biso   1.000  H
  H62      1.0000 0.61660  0.63260  0.44420  Biso   1.000  H
  H63      1.0000 0.88340  0.13260  0.05580  Biso   1.000  H
  H64      1.0000 0.11660  0.13260  0.44420  Biso   1.000  H
  O17      1.0000 0.64000  0.28900  0.15600  Biso   1.000  O
  O18      1.0000 0.36000  0.28900  0.34400  Biso   1.000  O
  O19      1.0000 0.14000  0.78900  0.15600  Biso   1.000  O
  O20      1.0000 0.86000  0.78900  0.34400  Biso   1.000  O
  O21      1.0000 0.36000  0.71100  0.84400  Biso   1.000  O
  O22      1.0000 0.64000  0.71100  0.65600  Biso   1.000  O
  O23      1.0000 0.86000  0.21100  0.84400  Biso   1.000  O
  O24      1.0000 0.14000  0.21100  0.65600  Biso   1.000  O
  H65      1.0000 0.71970  0.28290  0.16120  Biso   1.000  H
  H66      1.0000 0.28030  0.28290  0.33880  Biso   1.000  H
  H67      1.0000 0.21970  0.78290  0.16120  Biso   1.000  H
  H68      1.0000 0.78030  0.78290  0.33880  Biso   1.000  H
  H69      1.0000 0.28030  0.71710  0.83880  Biso   1.000  H
  H70      1.0000 0.71970  0.71710  0.66120  Biso   1.000  H
  H71      1.0000 0.78030  0.21710  0.83880  Biso   1.000  H
  H72      1.0000 0.21970  0.21710  0.66120  Biso   1.000  H
  H73      1.0000 0.59190  0.27170  0.10100  Biso   1.000  H
  H74      1.0000 0.40810  0.27170  0.39900  Biso   1.000  H
  H75      1.0000 0.09190  0.77170  0.10100  Biso   1.000  H
  H76      1.0000 0.90810  0.77170  0.39900  Biso   1.000  H
  H77      1.0000 0.40810  0.72830  0.89900  Biso   1.000  H
  H78      1.0000 0.59190  0.72830  0.60100  Biso   1.000  H
  H79      1.0000 0.90810  0.22830  0.89900  Biso   1.000  H
  H80      1.0000 0.09190  0.22830  0.60100  Biso   1.000  H
  O25      1.0000 0.51520  0.75980  0.02780  Biso   1.000  O
  O26      1.0000 0.48480  0.75980  0.47220  Biso   1.000  O
  O27      1.0000 0.01520  0.25980  0.02780  Biso   1.000  O
  O28      1.0000 0.98480  0.25980  0.47220  Biso   1.000  O
  O29      1.0000 0.48480  0.24020  0.97220  Biso   1.000  O
  O30      1.0000 0.51520  0.24020  0.52780  Biso   1.000  O
  O31      1.0000 0.98480  0.74020  0.97220  Biso   1.000  O
  O32      1.0000 0.01520  0.74020  0.52780  Biso   1.000  O
  H81      1.0000 0.55930  0.72530  0.06640  Biso   1.000  H
  H82      1.0000 0.44070  0.72530  0.43360  Biso   1.000  H
  H83      1.0000 0.05930  0.22530  0.06640  Biso   1.000  H
  H84      1.0000 0.94070  0.22530  0.43360  Biso   1.000  H
  H85      1.0000 0.44070  0.27470  0.93360  Biso   1.000  H
  H86      1.0000 0.55930  0.27470  0.56640  Biso   1.000  H
  H87      1.0000 0.94070  0.77470  0.93360  Biso   1.000  H
  H88      1.0000 0.05930  0.77470  0.56640  Biso   1.000  H
  H89      1.0000 0.46060  0.77810  0.05240  Biso   1.000  H
  H90      1.0000 0.53940  0.77810  0.44760  Biso   1.000  H
  H91      1.0000 0.96060  0.27810  0.05240  Biso   1.000  H
  H92      1.0000 0.03940  0.27810  0.44760  Biso   1.000  H
  H93      1.0000 0.53940  0.22190  0.94760  Biso   1.000  H
  H94      1.0000 0.46060  0.22190  0.55240  Biso   1.000  H
  H95      1.0000 0.03940  0.72190  0.94760  Biso   1.000  H
  H96      1.0000 0.96060  0.72190  0.55240  Biso   1.000  H
  O33      1.0000 0.78000  0.74620  0.11490  Biso   1.000  O
  O34      1.0000 0.22000  0.74620  0.38510  Biso   1.000  O
  O35      1.0000 0.28000  0.24620  0.11490  Biso   1.000  O
  O36      1.0000 0.72000  0.24620  0.38510  Biso   1.000  O
  O37      1.0000 0.22000  0.25380  0.88510  Biso   1.000  O
  O38      1.0000 0.78000  0.25380  0.61490  Biso   1.000  O
  O39      1.0000 0.72000  0.75380  0.88510  Biso   1.000  O
  O40      1.0000 0.28000  0.75380  0.61490  Biso   1.000  O
  H97      1.0000 0.73830  0.77200  0.06480  Biso   1.000  H
  H98      1.0000 0.26170  0.77200  0.43520  Biso   1.000  H
  H99      1.0000 0.23830  0.27200  0.06480  Biso   1.000  H
  H100     1.0000 0.76170  0.27200  0.43520  Biso   1.000  H
  H101     1.0000 0.26170  0.22800  0.93520  Biso   1.000  H
  H102     1.0000 0.73830  0.22800  0.56480  Biso   1.000  H
  H103     1.0000 0.76170  0.72800  0.93520  Biso   1.000  H
  H104     1.0000 0.23830  0.72800  0.56480  Biso   1.000  H
  H105     1.0000 0.75660  0.72170  0.15650  Biso   1.000  H
  H106     1.0000 0.24340  0.72170  0.34350  Biso   1.000  H
  H107     1.0000 0.25660  0.22170  0.15650  Biso   1.000  H
  H108     1.0000 0.74340  0.22170  0.34350  Biso   1.000  H
  H109     1.0000 0.24340  0.27830  0.84350  Biso   1.000  H
  H110     1.0000 0.75660  0.27830  0.65650  Biso   1.000  H
  H111     1.0000 0.74340  0.77830  0.84350  Biso   1.000  H
  H112     1.0000 0.25660  0.77830  0.65650  Biso   1.000  H
