data_image0
_cell_length_a       13.225
_cell_length_b       8.8449
_cell_length_c       19.97
_cell_angle_alpha    90
_cell_angle_beta     108.37
_cell_angle_gamma    90

_symmetry_space_group_name_H-M    "P 1"
_symmetry_int_tables_number       1

loop_
  _symmetry_equiv_pos_as_xyz
  'x, y, z'

loop_
  _atom_site_label
  _atom_site_occupancy
  _atom_site_fract_x
  _atom_site_fract_y
  _atom_site_fract_z
  _atom_site_thermal_displace_type
  _atom_site_B_iso_or_equiv
  _atom_site_type_symbol
  Cu1      1.0000 0.74037  0.19011  0.15249  Biso   1.000  Cu
  Cu2      1.0000 0.75963  0.69011  0.34751  Biso   1.000  Cu
  Cu3      1.0000 0.25963  0.80989  0.84751  Biso   1.000  Cu
  Cu4      1.0000 0.24037  0.30989  0.65249  Biso   1.000  Cu
  Cu5      1.0000 0.88582  0.34430  0.32428  Biso   1.000  Cu
  Cu6      1.0000 0.61418  0.84430  0.17572  Biso   1.000  Cu
  Cu7      1.0000 0.11418  0.65570  0.67572  Biso   1.000  Cu
  Cu8      1.0000 0.38582  0.15570  0.82428  Biso   1.000  Cu
  P1       1.0000 0.85991  0.12907  0.10299  Biso   1.000  P
  P2       1.0000 0.64009  0.62907  0.39701  Biso   1.000  P
  P3       1.0000 0.14009  0.87093  0.89701  Biso   1.000  P
  P4       1.0000 0.35991  0.37093  0.60299  Biso   1.000  P
  N1       1.0000 0.70580  0.40340  0.17640  Biso   1.000  N
  N2       1.0000 0.79420  0.90340  0.32360  Biso   1.000  N
  N3       1.0000 0.29420  0.59660  0.82360  Biso   1.000  N
  N4       1.0000 0.20580  0.09660  0.67640  Biso   1.000  N
  N5       1.0000 0.75740  0.45770  0.24120  Biso   1.000  N
  N6       1.0000 0.74260  0.95770  0.25880  Biso   1.000  N
  N7       1.0000 0.24260  0.54230  0.75880  Biso   1.000  N
  N8       1.0000 0.25740  0.04230  0.74120  Biso   1.000  N
  N9       1.0000 0.72550  0.59290  0.24640  Biso   1.000  N
  N10      1.0000 0.77450  0.09290  0.25360  Biso   1.000  N
  N11      1.0000 0.27450  0.40710  0.75360  Biso   1.000  N
  N12      1.0000 0.22550  0.90710  0.74640  Biso   1.000  N
  N13      1.0000 0.65160  0.63430  0.18590  Biso   1.000  N
  N14      1.0000 0.84840  0.13430  0.31410  Biso   1.000  N
  N15      1.0000 0.34840  0.36570  0.81410  Biso   1.000  N
  N16      1.0000 0.15160  0.86570  0.68590  Biso   1.000  N
  N17      1.0000 0.41170  0.18620  0.09330  Biso   1.000  N
  N18      1.0000 0.08830  0.68620  0.40670  Biso   1.000  N
  N19      1.0000 0.58830  0.81380  0.90670  Biso   1.000  N
  N20      1.0000 0.91170  0.31380  0.59330  Biso   1.000  N
  N21      1.0000 0.43570  0.05270  0.12630  Biso   1.000  N
  N22      1.0000 0.06430  0.55270  0.37370  Biso   1.000  N
  N23      1.0000 0.56430  0.94730  0.87370  Biso   1.000  N
  N24      1.0000 0.93570  0.44730  0.62630  Biso   1.000  N
  N25      1.0000 0.53670  0.02350  0.13530  Biso   1.000  N
  N26      1.0000 0.96330  0.52350  0.36470  Biso   1.000  N
  N27      1.0000 0.46330  0.97650  0.86470  Biso   1.000  N
  N28      1.0000 0.03670  0.47650  0.63530  Biso   1.000  N
  N29      1.0000 0.58140  0.13670  0.11120  Biso   1.000  N
  N30      1.0000 0.91860  0.63670  0.38880  Biso   1.000  N
  N31      1.0000 0.41860  0.86330  0.88880  Biso   1.000  N
  N32      1.0000 0.08140  0.36330  0.61120  Biso   1.000  N
  C1       1.0000 0.64060  0.51200  0.14330  Biso   1.000  C
  C2       1.0000 0.85940  0.01200  0.35670  Biso   1.000  C
  C3       1.0000 0.35940  0.48800  0.85670  Biso   1.000  C
  C4       1.0000 0.14060  0.98800  0.64330  Biso   1.000  C
  C5       1.0000 0.56850  0.50210  0.06980  Biso   1.000  C
  C6       1.0000 0.93150  0.00210  0.43020  Biso   1.000  C
  C7       1.0000 0.43150  0.49790  0.93020  Biso   1.000  C
  C8       1.0000 0.06850  0.99790  0.56980  Biso   1.000  C
  C9       1.0000 0.50570  0.37450  0.04410  Biso   1.000  C
  C10      1.0000 0.99430  0.87450  0.45590  Biso   1.000  C
  C11      1.0000 0.49430  0.62550  0.95590  Biso   1.000  C
  C12      1.0000 0.00570  0.12550  0.54410  Biso   1.000  C
  C13      1.0000 0.43800  0.37580  0.97510  Biso   1.000  C
  C14      1.0000 0.06200  0.87580  0.52490  Biso   1.000  C
  C15      1.0000 0.56200  0.62420  0.02490  Biso   1.000  C
  C16      1.0000 0.93800  0.12420  0.47510  Biso   1.000  C
  H1       1.0000 0.39540  0.29170  0.95820  Biso   1.000  H
  H2       1.0000 0.10460  0.79170  0.54180  Biso   1.000  H
  H3       1.0000 0.60460  0.70830  0.04180  Biso   1.000  H
  H4       1.0000 0.89540  0.20830  0.45820  Biso   1.000  H
  C17      1.0000 0.50110  0.23630  0.08500  Biso   1.000  C
  C18      1.0000 0.99890  0.73630  0.41500  Biso   1.000  C
  C19      1.0000 0.49890  0.76370  0.91500  Biso   1.000  C
  C20      1.0000 0.00110  0.26370  0.58500  Biso   1.000  C
  C21      1.0000 0.82860  0.20990  0.01510  Biso   1.000  C
  C22      1.0000 0.67140  0.70990  0.48490  Biso   1.000  C
  C23      1.0000 0.17140  0.79010  0.98490  Biso   1.000  C
  C24      1.0000 0.32860  0.29010  0.51510  Biso   1.000  C
  C25      1.0000 0.72190  0.22070  0.97580  Biso   1.000  C
  C26      1.0000 0.77810  0.72070  0.52420  Biso   1.000  C
  C27      1.0000 0.27810  0.77930  0.02420  Biso   1.000  C
  C28      1.0000 0.22190  0.27930  0.47580  Biso   1.000  C
  H5       1.0000 0.67050  0.17670  0.99230  Biso   1.000  H
  H6       1.0000 0.82950  0.67670  0.50770  Biso   1.000  H
  H7       1.0000 0.32950  0.82330  0.00770  Biso   1.000  H
  H8       1.0000 0.17050  0.32330  0.49230  Biso   1.000  H
  C29      1.0000 0.69180  0.29590  0.91250  Biso   1.000  C
  C30      1.0000 0.80820  0.79590  0.58750  Biso   1.000  C
  C31      1.0000 0.30820  0.70410  0.08750  Biso   1.000  C
  C32      1.0000 0.19180  0.20410  0.41250  Biso   1.000  C
  H9       1.0000 0.61970  0.30390  0.88720  Biso   1.000  H
  H10      1.0000 0.88030  0.80390  0.61280  Biso   1.000  H
  H11      1.0000 0.38030  0.69610  0.11280  Biso   1.000  H
  H12      1.0000 0.11970  0.19610  0.38720  Biso   1.000  H
  C33      1.0000 0.76420  0.35870  0.88590  Biso   1.000  C
  C34      1.0000 0.73580  0.85870  0.61410  Biso   1.000  C
  C35      1.0000 0.23580  0.64130  0.11410  Biso   1.000  C
  C36      1.0000 0.26420  0.14130  0.38590  Biso   1.000  C
  H13      1.0000 0.74260  0.40900  0.84290  Biso   1.000  H
  H14      1.0000 0.75740  0.90900  0.65710  Biso   1.000  H
  H15      1.0000 0.25740  0.59100  0.15710  Biso   1.000  H
  H16      1.0000 0.24260  0.09100  0.34290  Biso   1.000  H
  C37      1.0000 0.86870  0.34690  0.92330  Biso   1.000  C
  C38      1.0000 0.63130  0.84690  0.57670  Biso   1.000  C
  C39      1.0000 0.13130  0.65310  0.07670  Biso   1.000  C
  C40      1.0000 0.36870  0.15310  0.42330  Biso   1.000  C
  H17      1.0000 0.91930  0.38870  0.90530  Biso   1.000  H
  H18      1.0000 0.58070  0.88870  0.59470  Biso   1.000  H
  H19      1.0000 0.08070  0.61130  0.09470  Biso   1.000  H
  H20      1.0000 0.41930  0.11130  0.40530  Biso   1.000  H
  C41      1.0000 0.90150  0.27450  0.98710  Biso   1.000  C
  C42      1.0000 0.59850  0.77450  0.51290  Biso   1.000  C
  C43      1.0000 0.09850  0.72550  0.01290  Biso   1.000  C
  C44      1.0000 0.40150  0.22550  0.48710  Biso   1.000  C
  H21      1.0000 0.97380  0.26870  0.01200  Biso   1.000  H
  H22      1.0000 0.52620  0.76870  0.48800  Biso   1.000  H
  H23      1.0000 0.02620  0.73130  0.98800  Biso   1.000  H
  H24      1.0000 0.47380  0.23130  0.51200  Biso   1.000  H
  C45      1.0000 0.86500  0.92350  0.09440  Biso   1.000  C
  C46      1.0000 0.63500  0.42350  0.40560  Biso   1.000  C
  C47      1.0000 0.13500  0.07650  0.90560  Biso   1.000  C
  C48      1.0000 0.36500  0.57650  0.59440  Biso   1.000  C
  C49      1.0000 0.82480  0.84850  0.03210  Biso   1.000  C
  C50      1.0000 0.67520  0.34850  0.46790  Biso   1.000  C
  C51      1.0000 0.17520  0.15150  0.96790  Biso   1.000  C
  C52      1.0000 0.32480  0.65150  0.53210  Biso   1.000  C
  H25      1.0000 0.79830  0.90230  0.99020  Biso   1.000  H
  H26      1.0000 0.70170  0.40230  0.50980  Biso   1.000  H
  H27      1.0000 0.20170  0.09770  0.00980  Biso   1.000  H
  H28      1.0000 0.29830  0.59770  0.49020  Biso   1.000  H
  C53      1.0000 0.82330  0.69010  0.03120  Biso   1.000  C
  C54      1.0000 0.67670  0.19010  0.46880  Biso   1.000  C
  C55      1.0000 0.17670  0.30990  0.96880  Biso   1.000  C
  C56      1.0000 0.32330  0.80990  0.53120  Biso   1.000  C
  H29      1.0000 0.79560  0.63920  0.98860  Biso   1.000  H
  H30      1.0000 0.70440  0.13920  0.51140  Biso   1.000  H
  H31      1.0000 0.20440  0.36080  0.01140  Biso   1.000  H
  H32      1.0000 0.29560  0.86080  0.48860  Biso   1.000  H
  C57      1.0000 0.86210  0.61020  0.09200  Biso   1.000  C
  C58      1.0000 0.63790  0.11020  0.40800  Biso   1.000  C
  C59      1.0000 0.13790  0.38980  0.90800  Biso   1.000  C
  C60      1.0000 0.36210  0.88980  0.59200  Biso   1.000  C
  H33      1.0000 0.86110  0.50510  0.09110  Biso   1.000  H
  H34      1.0000 0.63890  0.00510  0.40890  Biso   1.000  H
  H35      1.0000 0.13890  0.49490  0.90890  Biso   1.000  H
  H36      1.0000 0.36110  0.99490  0.59110  Biso   1.000  H
  C61      1.0000 0.90220  0.68490  0.15430  Biso   1.000  C
  C62      1.0000 0.59780  0.18490  0.34570  Biso   1.000  C
  C63      1.0000 0.09780  0.31510  0.84570  Biso   1.000  C
  C64      1.0000 0.40220  0.81510  0.65430  Biso   1.000  C
  H37      1.0000 0.92890  0.63020  0.19590  Biso   1.000  H
  H38      1.0000 0.57110  0.13020  0.30410  Biso   1.000  H
  H39      1.0000 0.07110  0.36980  0.80410  Biso   1.000  H
  H40      1.0000 0.42890  0.86980  0.69590  Biso   1.000  H
  C65      1.0000 0.90390  0.84110  0.15650  Biso   1.000  C
  C66      1.0000 0.59610  0.34110  0.34350  Biso   1.000  C
  C67      1.0000 0.09610  0.15890  0.84350  Biso   1.000  C
  C68      1.0000 0.40390  0.65890  0.65650  Biso   1.000  C
  H41      1.0000 0.93110  0.89100  0.19940  Biso   1.000  H
  H42      1.0000 0.56890  0.39100  0.30060  Biso   1.000  H
  H43      1.0000 0.06890  0.10900  0.80060  Biso   1.000  H
  H44      1.0000 0.43110  0.60900  0.69940  Biso   1.000  H
  C69      1.0000 0.99890  0.18000  0.14650  Biso   1.000  C
  C70      1.0000 0.50110  0.68000  0.35350  Biso   1.000  C
  C71      1.0000 0.00110  0.82000  0.85350  Biso   1.000  C
  C72      1.0000 0.49890  0.32000  0.64650  Biso   1.000  C
  C73      1.0000 0.08260  0.10900  0.13060  Biso   1.000  C
  C74      1.0000 0.41740  0.60900  0.36940  Biso   1.000  C
  C75      1.0000 0.91740  0.89100  0.86940  Biso   1.000  C
  C76      1.0000 0.58260  0.39100  0.63060  Biso   1.000  C
  H45      1.0000 0.06900  0.02900  0.09880  Biso   1.000  H
  H46      1.0000 0.43100  0.52900  0.40120  Biso   1.000  H
  H47      1.0000 0.93100  0.97100  0.90120  Biso   1.000  H
  H48      1.0000 0.56900  0.47100  0.59880  Biso   1.000  H
  C77      1.0000 0.18690  0.15860  0.16250  Biso   1.000  C
  C78      1.0000 0.31310  0.65860  0.33750  Biso   1.000  C
  C79      1.0000 0.81310  0.84140  0.83750  Biso   1.000  C
  C80      1.0000 0.68690  0.34140  0.66250  Biso   1.000  C
  H49      1.0000 0.24310  0.11240  0.15180  Biso   1.000  H
  H50      1.0000 0.25690  0.61240  0.34820  Biso   1.000  H
  H51      1.0000 0.75690  0.88760  0.84820  Biso   1.000  H
  H52      1.0000 0.74310  0.38760  0.65180  Biso   1.000  H
  C81      1.0000 0.20590  0.27510  0.20960  Biso   1.000  C
  C82      1.0000 0.29410  0.77510  0.29040  Biso   1.000  C
  C83      1.0000 0.79410  0.72490  0.79040  Biso   1.000  C
  C84      1.0000 0.70590  0.22490  0.70960  Biso   1.000  C
  H53      1.0000 0.27530  0.30930  0.23010  Biso   1.000  H
  H54      1.0000 0.22470  0.80930  0.26990  Biso   1.000  H
  H55      1.0000 0.72470  0.69070  0.76990  Biso   1.000  H
  H56      1.0000 0.77530  0.19070  0.73010  Biso   1.000  H
  C85      1.0000 0.12560  0.34160  0.22680  Biso   1.000  C
  C86      1.0000 0.37440  0.84160  0.27320  Biso   1.000  C
  C87      1.0000 0.87440  0.65840  0.77320  Biso   1.000  C
  C88      1.0000 0.62560  0.15840  0.72680  Biso   1.000  C
  H57      1.0000 0.14040  0.41930  0.25990  Biso   1.000  H
  H58      1.0000 0.35960  0.91930  0.24010  Biso   1.000  H
  H59      1.0000 0.85960  0.58070  0.74010  Biso   1.000  H
  H60      1.0000 0.64040  0.08070  0.75990  Biso   1.000  H
  C89      1.0000 0.02160  0.29500  0.19550  Biso   1.000  C
  C90      1.0000 0.47840  0.79500  0.30450  Biso   1.000  C
  C91      1.0000 0.97840  0.70500  0.80450  Biso   1.000  C
  C92      1.0000 0.52160  0.20500  0.69550  Biso   1.000  C
  H61      1.0000 0.96670  0.34150  0.20760  Biso   1.000  H
  H62      1.0000 0.53330  0.84150  0.29240  Biso   1.000  H
  H63      1.0000 0.03330  0.65850  0.79240  Biso   1.000  H
  H64      1.0000 0.46670  0.15850  0.70760  Biso   1.000  H
