data_image0
_cell_length_a       15.16
_cell_length_b       13.671
_cell_length_c       10.044
_cell_angle_alpha    90
_cell_angle_beta     90
_cell_angle_gamma    90

_symmetry_space_group_name_H-M    "P 1"
_symmetry_int_tables_number       1

loop_
  _symmetry_equiv_pos_as_xyz
  'x, y, z'

loop_
  _atom_site_label
  _atom_site_occupancy
  _atom_site_fract_x
  _atom_site_fract_y
  _atom_site_fract_z
  _atom_site_thermal_displace_type
  _atom_site_B_iso_or_equiv
  _atom_site_type_symbol
  Cu1      1.0000 0.72174  0.13622  0.02144  Biso   1.000  Cu
  Cu2      1.0000 0.77826  0.36378  0.52144  Biso   1.000  Cu
  Cu3      1.0000 0.27826  0.13622  0.47856  Biso   1.000  Cu
  Cu4      1.0000 0.22174  0.36378  0.97856  Biso   1.000  Cu
  Cu5      1.0000 0.27826  0.86378  0.97856  Biso   1.000  Cu
  Cu6      1.0000 0.22174  0.63622  0.47856  Biso   1.000  Cu
  Cu7      1.0000 0.72174  0.86378  0.52144  Biso   1.000  Cu
  Cu8      1.0000 0.77826  0.63622  0.02144  Biso   1.000  Cu
  O1       1.0000 0.60570  0.06470  0.01360  Biso   1.000  O
  O2       1.0000 0.89430  0.43530  0.51360  Biso   1.000  O
  O3       1.0000 0.39430  0.06470  0.48640  Biso   1.000  O
  O4       1.0000 0.10570  0.43530  0.98640  Biso   1.000  O
  O5       1.0000 0.39430  0.93530  0.98640  Biso   1.000  O
  O6       1.0000 0.10570  0.56470  0.48640  Biso   1.000  O
  O7       1.0000 0.60570  0.93530  0.51360  Biso   1.000  O
  O8       1.0000 0.89430  0.56470  0.01360  Biso   1.000  O
  O9       1.0000 0.67480  0.24740  0.90530  Biso   1.000  O
  O10      1.0000 0.82520  0.25260  0.40530  Biso   1.000  O
  O11      1.0000 0.32520  0.24740  0.59470  Biso   1.000  O
  O12      1.0000 0.17480  0.25260  0.09470  Biso   1.000  O
  O13      1.0000 0.32520  0.75260  0.09470  Biso   1.000  O
  O14      1.0000 0.17480  0.74740  0.59470  Biso   1.000  O
  O15      1.0000 0.67480  0.75260  0.40530  Biso   1.000  O
  O16      1.0000 0.82520  0.74740  0.90530  Biso   1.000  O
  N1       1.0000 0.84470  0.93210  0.27000  Biso   1.000  N
  N2       1.0000 0.65530  0.56790  0.77000  Biso   1.000  N
  N3       1.0000 0.15530  0.93210  0.23000  Biso   1.000  N
  N4       1.0000 0.34470  0.56790  0.73000  Biso   1.000  N
  N5       1.0000 0.15530  0.06790  0.73000  Biso   1.000  N
  N6       1.0000 0.34470  0.43210  0.23000  Biso   1.000  N
  N7       1.0000 0.84470  0.06790  0.77000  Biso   1.000  N
  N8       1.0000 0.65530  0.43210  0.27000  Biso   1.000  N
  N9       1.0000 0.76590  0.94760  0.33000  Biso   1.000  N
  N10      1.0000 0.73410  0.55240  0.83000  Biso   1.000  N
  N11      1.0000 0.23410  0.94760  0.17000  Biso   1.000  N
  N12      1.0000 0.26590  0.55240  0.67000  Biso   1.000  N
  N13      1.0000 0.23410  0.05240  0.67000  Biso   1.000  N
  N14      1.0000 0.26590  0.44760  0.17000  Biso   1.000  N
  N15      1.0000 0.76590  0.05240  0.83000  Biso   1.000  N
  N16      1.0000 0.73410  0.44760  0.33000  Biso   1.000  N
  N17      1.0000 0.72080  0.01340  0.26390  Biso   1.000  N
  N18      1.0000 0.77920  0.48660  0.76390  Biso   1.000  N
  N19      1.0000 0.27920  0.01340  0.23610  Biso   1.000  N
  N20      1.0000 0.22080  0.48660  0.73610  Biso   1.000  N
  N21      1.0000 0.27920  0.98660  0.73610  Biso   1.000  N
  N22      1.0000 0.22080  0.51340  0.23610  Biso   1.000  N
  N23      1.0000 0.72080  0.98660  0.76390  Biso   1.000  N
  N24      1.0000 0.77920  0.51340  0.26390  Biso   1.000  N
  N25      1.0000 0.76961  0.04320  0.15970  Biso   1.000  N
  N26      1.0000 0.73039  0.45680  0.65970  Biso   1.000  N
  N27      1.0000 0.23039  0.04320  0.34030  Biso   1.000  N
  N28      1.0000 0.26961  0.45680  0.84030  Biso   1.000  N
  N29      1.0000 0.23039  0.95680  0.84030  Biso   1.000  N
  N30      1.0000 0.26961  0.54320  0.34030  Biso   1.000  N
  N31      1.0000 0.76961  0.95680  0.65970  Biso   1.000  N
  N32      1.0000 0.73039  0.54320  0.15970  Biso   1.000  N
  N33      1.0000 0.83320  0.21130  0.04860  Biso   1.000  N
  N34      1.0000 0.66680  0.28870  0.54860  Biso   1.000  N
  N35      1.0000 0.16680  0.21130  0.45140  Biso   1.000  N
  N36      1.0000 0.33320  0.28870  0.95140  Biso   1.000  N
  N37      1.0000 0.16680  0.78870  0.95140  Biso   1.000  N
  N38      1.0000 0.33320  0.71130  0.45140  Biso   1.000  N
  N39      1.0000 0.83320  0.78870  0.54860  Biso   1.000  N
  N40      1.0000 0.66680  0.71130  0.04860  Biso   1.000  N
  N41      1.0000 0.83060  0.30910  0.07050  Biso   1.000  N
  N42      1.0000 0.66940  0.19090  0.57050  Biso   1.000  N
  N43      1.0000 0.16940  0.30910  0.42950  Biso   1.000  N
  N44      1.0000 0.33060  0.19090  0.92950  Biso   1.000  N
  N45      1.0000 0.16940  0.69090  0.92950  Biso   1.000  N
  N46      1.0000 0.33060  0.80910  0.42950  Biso   1.000  N
  N47      1.0000 0.83060  0.69090  0.57050  Biso   1.000  N
  N48      1.0000 0.66940  0.80910  0.07050  Biso   1.000  N
  N49      1.0000 0.91100  0.33960  0.08730  Biso   1.000  N
  N50      1.0000 0.58900  0.16040  0.58730  Biso   1.000  N
  N51      1.0000 0.08900  0.33960  0.41270  Biso   1.000  N
  N52      1.0000 0.41100  0.16040  0.91270  Biso   1.000  N
  N53      1.0000 0.08900  0.66040  0.91270  Biso   1.000  N
  N54      1.0000 0.41100  0.83960  0.41270  Biso   1.000  N
  N55      1.0000 0.91100  0.66040  0.58730  Biso   1.000  N
  N56      1.0000 0.58900  0.83960  0.08730  Biso   1.000  N
  N57      1.0000 0.96840  0.26390  0.07680  Biso   1.000  N
  N58      1.0000 0.53160  0.23610  0.57680  Biso   1.000  N
  N59      1.0000 0.03160  0.26390  0.42320  Biso   1.000  N
  N60      1.0000 0.46840  0.23610  0.92320  Biso   1.000  N
  N61      1.0000 0.03160  0.73610  0.92320  Biso   1.000  N
  N62      1.0000 0.46840  0.76390  0.42320  Biso   1.000  N
  N63      1.0000 0.96840  0.73610  0.57680  Biso   1.000  N
  N64      1.0000 0.53160  0.76390  0.07680  Biso   1.000  N
  C1       1.0000 0.03290  0.08580  0.95100  Biso   1.000  C
  C2       1.0000 0.46710  0.41420  0.45100  Biso   1.000  C
  C3       1.0000 0.96710  0.08580  0.54900  Biso   1.000  C
  C4       1.0000 0.53290  0.41420  0.04900  Biso   1.000  C
  C5       1.0000 0.96710  0.91420  0.04900  Biso   1.000  C
  C6       1.0000 0.53290  0.58580  0.54900  Biso   1.000  C
  C7       1.0000 0.03290  0.91420  0.45100  Biso   1.000  C
  C8       1.0000 0.46710  0.58580  0.95100  Biso   1.000  C
  H1       1.0000 0.05520  0.14430  0.91780  Biso   1.000  H
  H2       1.0000 0.44480  0.35570  0.41780  Biso   1.000  H
  H3       1.0000 0.94480  0.14430  0.58220  Biso   1.000  H
  H4       1.0000 0.55520  0.35570  0.08220  Biso   1.000  H
  H5       1.0000 0.94480  0.85570  0.08220  Biso   1.000  H
  H6       1.0000 0.55520  0.64430  0.58220  Biso   1.000  H
  H7       1.0000 0.05520  0.85570  0.41780  Biso   1.000  H
  H8       1.0000 0.44480  0.64430  0.91780  Biso   1.000  H
  C9       1.0000 0.95610  0.08810  0.02800  Biso   1.000  C
  C10      1.0000 0.54390  0.41190  0.52800  Biso   1.000  C
  C11      1.0000 0.04390  0.08810  0.47200  Biso   1.000  C
  C12      1.0000 0.45610  0.41190  0.97200  Biso   1.000  C
  C13      1.0000 0.04390  0.91190  0.97200  Biso   1.000  C
  C14      1.0000 0.45610  0.58810  0.47200  Biso   1.000  C
  C15      1.0000 0.95610  0.91190  0.52800  Biso   1.000  C
  C16      1.0000 0.54390  0.58810  0.02800  Biso   1.000  C
  C17      1.0000 0.92260  0.00070  0.07780  Biso   1.000  C
  C18      1.0000 0.57740  0.49930  0.57780  Biso   1.000  C
  C19      1.0000 0.07740  0.00070  0.42220  Biso   1.000  C
  C20      1.0000 0.42260  0.49930  0.92220  Biso   1.000  C
  C21      1.0000 0.07740  0.99930  0.92220  Biso   1.000  C
  C22      1.0000 0.42260  0.50070  0.42220  Biso   1.000  C
  C23      1.0000 0.92260  0.99930  0.57780  Biso   1.000  C
  C24      1.0000 0.57740  0.50070  0.07780  Biso   1.000  C
  C25      1.0000 0.84530  0.99300  0.16690  Biso   1.000  C
  C26      1.0000 0.65470  0.50700  0.66690  Biso   1.000  C
  C27      1.0000 0.15470  0.99300  0.33310  Biso   1.000  C
  C28      1.0000 0.34530  0.50700  0.83310  Biso   1.000  C
  C29      1.0000 0.15470  0.00700  0.83310  Biso   1.000  C
  C30      1.0000 0.34530  0.49300  0.33310  Biso   1.000  C
  C31      1.0000 0.84530  0.00700  0.66690  Biso   1.000  C
  C32      1.0000 0.65470  0.49300  0.16690  Biso   1.000  C
  C33      1.0000 0.91820  0.18570  0.05320  Biso   1.000  C
  C34      1.0000 0.58180  0.31430  0.55320  Biso   1.000  C
  C35      1.0000 0.08180  0.18570  0.44680  Biso   1.000  C
  C36      1.0000 0.41820  0.31430  0.94680  Biso   1.000  C
  C37      1.0000 0.08180  0.81430  0.94680  Biso   1.000  C
  C38      1.0000 0.41820  0.68570  0.44680  Biso   1.000  C
  C39      1.0000 0.91820  0.81430  0.55320  Biso   1.000  C
  C40      1.0000 0.58180  0.68570  0.05320  Biso   1.000  C
  O17      1.0000 0.62280  0.21720  0.23570  Biso   1.000  O
  O18      1.0000 0.87720  0.28280  0.73570  Biso   1.000  O
  O19      1.0000 0.37720  0.21720  0.26430  Biso   1.000  O
  O20      1.0000 0.12280  0.28280  0.76430  Biso   1.000  O
  O21      1.0000 0.37720  0.78280  0.76430  Biso   1.000  O
  O22      1.0000 0.12280  0.71720  0.26430  Biso   1.000  O
  O23      1.0000 0.62280  0.78280  0.73570  Biso   1.000  O
  O24      1.0000 0.87720  0.71720  0.23570  Biso   1.000  O
