data_image0
_cell_length_a       11.2758
_cell_length_b       12.141
_cell_length_c       13.492
_cell_angle_alpha    106.211
_cell_angle_beta     101.978
_cell_angle_gamma    102.46

_symmetry_space_group_name_H-M    "P 1"
_symmetry_int_tables_number       1

loop_
  _symmetry_equiv_pos_as_xyz
  'x, y, z'

loop_
  _atom_site_label
  _atom_site_occupancy
  _atom_site_fract_x
  _atom_site_fract_y
  _atom_site_fract_z
  _atom_site_thermal_displace_type
  _atom_site_B_iso_or_equiv
  _atom_site_type_symbol
  W1       1.0000 0.94831  0.65575  0.24547  Biso   1.000  W
  W2       1.0000 0.05169  0.34425  0.75453  Biso   1.000  W
  W3       1.0000 0.69706  0.42121  0.04250  Biso   1.000  W
  W4       1.0000 0.30294  0.57879  0.95750  Biso   1.000  W
  W5       1.0000 0.24930  0.73961  0.20000  Biso   1.000  W
  W6       1.0000 0.75070  0.26039  0.80000  Biso   1.000  W
  W7       1.0000 0.26023  0.43952  0.15032  Biso   1.000  W
  W8       1.0000 0.73977  0.56048  0.84968  Biso   1.000  W
  W9       1.0000 0.01491  0.19906  0.94605  Biso   1.000  W
  W10      1.0000 0.98509  0.80094  0.05395  Biso   1.000  W
  W11      1.0000 0.95642  0.35203  0.18718  Biso   1.000  W
  W12      1.0000 0.04358  0.64797  0.81282  Biso   1.000  W
  P1       1.0000 0.00000  0.50000  0.00000  Biso   1.000  P
  O1       1.0000 0.03750  0.39920  0.04510  Biso   1.000  O
  O2       1.0000 0.96250  0.60080  0.95490  Biso   1.000  O
  O3       1.0000 0.03120  0.62780  0.08860  Biso   1.000  O
  O4       1.0000 0.96880  0.37220  0.91140  Biso   1.000  O
  O5       1.0000 0.14730  0.54840  0.03700  Biso   1.000  O
  O6       1.0000 0.85270  0.45160  0.96300  Biso   1.000  O
  O7       1.0000 0.91090  0.48430  0.07160  Biso   1.000  O
  O8       1.0000 0.08910  0.51570  0.92840  Biso   1.000  O
  O9       1.0000 0.78800  0.34170  0.11930  Biso   1.000  O
  O10      1.0000 0.21200  0.65830  0.88070  Biso   1.000  O
  O11      1.0000 0.67670  0.28940  0.91440  Biso   1.000  O
  O12      1.0000 0.32330  0.71060  0.08560  Biso   1.000  O
  O13      1.0000 0.67350  0.51350  0.95320  Biso   1.000  O
  O14      1.0000 0.32650  0.48650  0.04680  Biso   1.000  O
  O15      1.0000 0.93140  0.76010  0.16570  Biso   1.000  O
  O16      1.0000 0.06860  0.23990  0.83430  Biso   1.000  O
  O17      1.0000 0.36440  0.85420  0.29700  Biso   1.000  O
  O18      1.0000 0.63560  0.14580  0.70300  Biso   1.000  O
  O19      1.0000 0.12370  0.71500  0.27450  Biso   1.000  O
  O20      1.0000 0.87630  0.28500  0.72550  Biso   1.000  O
  O21      1.0000 0.28790  0.60290  0.22480  Biso   1.000  O
  O22      1.0000 0.71210  0.39710  0.77520  Biso   1.000  O
  O23      1.0000 0.38090  0.41050  0.22330  Biso   1.000  O
  O24      1.0000 0.61910  0.58950  0.77670  Biso   1.000  O
  O25      1.0000 0.97080  0.51540  0.26920  Biso   1.000  O
  O26      1.0000 0.02920  0.48460  0.73080  Biso   1.000  O
  O27      1.0000 0.02150  0.05840  0.91730  Biso   1.000  O
  O28      1.0000 0.97850  0.94160  0.08270  Biso   1.000  O
  O29      1.0000 0.93470  0.28380  0.27820  Biso   1.000  O
  O30      1.0000 0.06530  0.71620  0.72180  Biso   1.000  O
  O31      1.0000 0.17640  0.29150  0.04090  Biso   1.000  O
  O32      1.0000 0.82360  0.70850  0.95910  Biso   1.000  O
  O33      1.0000 0.95360  0.22610  0.06830  Biso   1.000  O
  O34      1.0000 0.04640  0.77390  0.93170  Biso   1.000  O
  O35      1.0000 0.55600  0.38090  0.06450  Biso   1.000  O
  O36      1.0000 0.44400  0.61910  0.93550  Biso   1.000  O
  O37      1.0000 0.15380  0.82350  0.13460  Biso   1.000  O
  O38      1.0000 0.84620  0.17650  0.86540  Biso   1.000  O
  O39      1.0000 0.92590  0.72930  0.36170  Biso   1.000  O
  O40      1.0000 0.07410  0.27070  0.63830  Biso   1.000  O
  O41      1.0000 0.78130  0.56290  0.16020  Biso   1.000  O
  O42      1.0000 0.21870  0.43710  0.83980  Biso   1.000  O
  O43      1.0000 0.13550  0.40060  0.22000  Biso   1.000  O
  O44      1.0000 0.86450  0.59940  0.78000  Biso   1.000  O
  Cu1      1.0000 0.00000  0.50000  0.50000  Biso   1.000  Cu
  Cu2      1.0000 0.46579  0.07880  0.22733  Biso   1.000  Cu
  Cu3      1.0000 0.53421  0.92120  0.77267  Biso   1.000  Cu
  N1       1.0000 0.37010  0.18050  0.30890  Biso   1.000  N
  N2       1.0000 0.62990  0.81950  0.69110  Biso   1.000  N
  C1       1.0000 0.24440  0.13110  0.28070  Biso   1.000  C
  C2       1.0000 0.75560  0.86890  0.71930  Biso   1.000  C
  H1       1.0000 0.20480  0.06590  0.21510  Biso   1.000  H
  H2       1.0000 0.79520  0.93410  0.78490  Biso   1.000  H
  C3       1.0000 0.17200  0.17110  0.34290  Biso   1.000  C
  C4       1.0000 0.82800  0.82890  0.65710  Biso   1.000  C
  H3       1.0000 0.08330  0.13310  0.32050  Biso   1.000  H
  H4       1.0000 0.91670  0.86690  0.67950  Biso   1.000  H
  C5       1.0000 0.22350  0.26260  0.43470  Biso   1.000  C
  C6       1.0000 0.77650  0.73740  0.56530  Biso   1.000  C
  H5       1.0000 0.17240  0.28960  0.47850  Biso   1.000  H
  H6       1.0000 0.82760  0.71040  0.52150  Biso   1.000  H
  C7       1.0000 0.35390  0.31880  0.46620  Biso   1.000  C
  C8       1.0000 0.64610  0.68120  0.53380  Biso   1.000  C
  H7       1.0000 0.39270  0.38600  0.53040  Biso   1.000  H
  H8       1.0000 0.60730  0.61400  0.46960  Biso   1.000  H
  C9       1.0000 0.42490  0.27400  0.40120  Biso   1.000  C
  C10      1.0000 0.57510  0.72600  0.59880  Biso   1.000  C
  C11      1.0000 0.56300  0.33040  0.42420  Biso   1.000  C
  C12      1.0000 0.43700  0.66960  0.57580  Biso   1.000  C
  C13      1.0000 0.64190  0.36060  0.52680  Biso   1.000  C
  C14      1.0000 0.35810  0.63940  0.47320  Biso   1.000  C
  H9       1.0000 0.60860  0.34770  0.58310  Biso   1.000  H
  H10      1.0000 0.39140  0.65230  0.41690  Biso   1.000  H
  C15      1.0000 0.76990  0.40980  0.54570  Biso   1.000  C
  C16      1.0000 0.23010  0.59020  0.45430  Biso   1.000  C
  H11      1.0000 0.82440  0.42610  0.61530  Biso   1.000  H
  H12      1.0000 0.17560  0.57390  0.38470  Biso   1.000  H
  C17      1.0000 0.74240  0.41360  0.37370  Biso   1.000  C
  C18      1.0000 0.25760  0.58640  0.62630  Biso   1.000  C
  H13      1.0000 0.77590  0.43620  0.32090  Biso   1.000  H
  H14      1.0000 0.22410  0.56380  0.67910  Biso   1.000  H
  C19      1.0000 0.61460  0.35950  0.34790  Biso   1.000  C
  C20      1.0000 0.38540  0.64050  0.65210  Biso   1.000  C
  H15      1.0000 0.56190  0.34220  0.27740  Biso   1.000  H
  H16      1.0000 0.43810  0.65780  0.72260  Biso   1.000  H
  N3       1.0000 0.82180  0.43600  0.47090  Biso   1.000  N
  N4       1.0000 0.17820  0.56400  0.52910  Biso   1.000  N
  N5       1.0000 0.37660  0.04510  0.07320  Biso   1.000  N
  N6       1.0000 0.62340  0.95490  0.92680  Biso   1.000  N
  C21      1.0000 0.37680  0.94950  0.59170  Biso   1.000  C
  C22      1.0000 0.62320  0.05050  0.40830  Biso   1.000  C
  H17      1.0000 0.43240  0.91530  0.55770  Biso   1.000  H
  H18      1.0000 0.56760  0.08470  0.44230  Biso   1.000  H
  C23      1.0000 0.28860  0.98470  0.53150  Biso   1.000  C
  C24      1.0000 0.71140  0.01530  0.46850  Biso   1.000  C
  H19      1.0000 0.28100  0.97340  0.45770  Biso   1.000  H
  H20      1.0000 0.71900  0.02660  0.54230  Biso   1.000  H
  C25      1.0000 0.21160  0.03720  0.58330  Biso   1.000  C
  C26      1.0000 0.78840  0.96280  0.41670  Biso   1.000  C
  H21      1.0000 0.14980  0.06420  0.54510  Biso   1.000  H
  H22      1.0000 0.85020  0.93580  0.45490  Biso   1.000  H
  C27      1.0000 0.22320  0.05090  0.68880  Biso   1.000  C
  C28      1.0000 0.77680  0.94910  0.31120  Biso   1.000  C
  H23      1.0000 0.17040  0.08740  0.72490  Biso   1.000  H
  H24      1.0000 0.82960  0.91260  0.27510  Biso   1.000  H
  C29      1.0000 0.31280  0.01080  0.74170  Biso   1.000  C
  C30      1.0000 0.68720  0.98920  0.25830  Biso   1.000  C
  C31      1.0000 0.33060  0.02180  0.85700  Biso   1.000  C
  C32      1.0000 0.66940  0.97820  0.14300  Biso   1.000  C
  C33      1.0000 0.34640  0.12970  0.93400  Biso   1.000  C
  C34      1.0000 0.65360  0.87030  0.06600  Biso   1.000  C
  H25      1.0000 0.34100  0.19770  0.91370  Biso   1.000  H
  H26      1.0000 0.65900  0.80230  0.08630  Biso   1.000  H
  C35      1.0000 0.36980  0.13870  0.03940  Biso   1.000  C
  C36      1.0000 0.63020  0.86130  0.96060  Biso   1.000  C
  H27      1.0000 0.38200  0.21430  0.09160  Biso   1.000  H
  H28      1.0000 0.61800  0.78570  0.90840  Biso   1.000  H
  C37      1.0000 0.35080  0.93790  0.99440  Biso   1.000  C
  C38      1.0000 0.64920  0.06210  0.00560  Biso   1.000  C
  H29      1.0000 0.34810  0.86840  0.01430  Biso   1.000  H
  H30      1.0000 0.65190  0.13160  0.98570  Biso   1.000  H
  C39      1.0000 0.32920  0.92570  0.89000  Biso   1.000  C
  C40      1.0000 0.67080  0.07430  0.11000  Biso   1.000  C
  H31      1.0000 0.31270  0.84870  0.83830  Biso   1.000  H
  H32      1.0000 0.68730  0.15130  0.16170  Biso   1.000  H
  N7       1.0000 0.39010  0.95970  0.69370  Biso   1.000  N
  N8       1.0000 0.60990  0.04030  0.30630  Biso   1.000  N
