data_image0
_cell_length_a       6.721
_cell_length_b       7.221
_cell_length_c       8.719
_cell_angle_alpha    81.33
_cell_angle_beta     85.35
_cell_angle_gamma    75.21

_symmetry_space_group_name_H-M    "P 1"
_symmetry_int_tables_number       1

loop_
  _symmetry_equiv_pos_as_xyz
  'x, y, z'

loop_
  _atom_site_label
  _atom_site_occupancy
  _atom_site_fract_x
  _atom_site_fract_y
  _atom_site_fract_z
  _atom_site_thermal_displace_type
  _atom_site_B_iso_or_equiv
  _atom_site_type_symbol
  Cu1      1.0000 0.99530  0.29170  0.93180  Biso   1.000  Cu
  Cu2      1.0000 0.00470  0.70830  0.06820  Biso   1.000  Cu
  Cu3      1.0000 0.42300  0.41460  0.16580  Biso   1.000  Cu
  Cu4      1.0000 0.57700  0.58540  0.83420  Biso   1.000  Cu
  Cl1      1.0000 0.10480  0.32600  0.16620  Biso   1.000  Cl
  Cl2      1.0000 0.89520  0.67400  0.83380  Biso   1.000  Cl
  Cl3      1.0000 0.65980  0.26230  0.96990  Biso   1.000  Cl
  Cl4      1.0000 0.34020  0.73770  0.03010  Biso   1.000  Cl
  N1       1.0000 0.55150  0.33490  0.36100  Biso   1.000  N
  N2       1.0000 0.44850  0.66510  0.63900  Biso   1.000  N
  C1       1.0000 0.24400  0.20600  0.77700  Biso   1.000  C
  C2       1.0000 0.75600  0.79400  0.22300  Biso   1.000  C
  C3       1.0000 0.08300  0.14000  0.74000  Biso   1.000  C
  C4       1.0000 0.91700  0.86000  0.26000  Biso   1.000  C
  C5       1.0000 0.94200  0.23500  0.62200  Biso   1.000  C
  C6       1.0000 0.05800  0.76500  0.37800  Biso   1.000  C
  C7       1.0000 0.79100  0.16600  0.58200  Biso   1.000  C
  C8       1.0000 0.20900  0.83400  0.41800  Biso   1.000  C
  C9       1.0000 0.65800  0.26100  0.46000  Biso   1.000  C
  C10      1.0000 0.34200  0.73900  0.54000  Biso   1.000  C
  H1       1.0000 0.34000  0.14000  0.83000  Biso   1.000  H
  H2       1.0000 0.66000  0.86000  0.17000  Biso   1.000  H
  H3       1.0000 0.28000  0.34000  0.70000  Biso   1.000  H
  H4       1.0000 0.72000  0.66000  0.30000  Biso   1.000  H
  H5       1.0000 0.08000  0.03000  0.79000  Biso   1.000  H
  H6       1.0000 0.92000  0.97000  0.21000  Biso   1.000  H
  H7       1.0000 0.94000  0.34000  0.59000  Biso   1.000  H
  H8       1.0000 0.06000  0.66000  0.41000  Biso   1.000  H
  H9       1.0000 0.80000  0.05000  0.62000  Biso   1.000  H
  H10      1.0000 0.20000  0.95000  0.38000  Biso   1.000  H
