data_image0
_cell_length_a       22.0484
_cell_length_b       22.0484
_cell_length_c       22.0484
_cell_angle_alpha    90
_cell_angle_beta     90
_cell_angle_gamma    90

_symmetry_space_group_name_H-M    "P 1"
_symmetry_int_tables_number       1

loop_
  _symmetry_equiv_pos_as_xyz
  'x, y, z'

loop_
  _atom_site_label
  _atom_site_occupancy
  _atom_site_fract_x
  _atom_site_fract_y
  _atom_site_fract_z
  _atom_site_thermal_displace_type
  _atom_site_B_iso_or_equiv
  _atom_site_type_symbol
  In1      1.0000 0.25000  0.75000  0.75000  Biso   1.000  In
  In2      1.0000 0.75000  0.25000  0.75000  Biso   1.000  In
  In3      1.0000 0.75000  0.75000  0.25000  Biso   1.000  In
  In4      1.0000 0.25000  0.75000  0.25000  Biso   1.000  In
  In5      1.0000 0.75000  0.25000  0.25000  Biso   1.000  In
  In6      1.0000 0.25000  0.25000  0.75000  Biso   1.000  In
  Cu1      1.0000 0.02964  0.94065  0.55935  Biso   1.000  Cu
  Cu2      1.0000 0.47036  0.55935  0.55935  Biso   1.000  Cu
  Cu3      1.0000 0.47036  0.94065  0.94065  Biso   1.000  Cu
  Cu4      1.0000 0.02964  0.55935  0.94065  Biso   1.000  Cu
  Cu5      1.0000 0.55935  0.02964  0.94065  Biso   1.000  Cu
  Cu6      1.0000 0.55935  0.47036  0.55935  Biso   1.000  Cu
  Cu7      1.0000 0.94065  0.47036  0.94065  Biso   1.000  Cu
  Cu8      1.0000 0.94065  0.02964  0.55935  Biso   1.000  Cu
  Cu9      1.0000 0.94065  0.55935  0.02964  Biso   1.000  Cu
  Cu10     1.0000 0.55935  0.55935  0.47036  Biso   1.000  Cu
  Cu11     1.0000 0.94065  0.94065  0.47036  Biso   1.000  Cu
  Cu12     1.0000 0.55935  0.94065  0.02964  Biso   1.000  Cu
  Cu13     1.0000 0.44065  0.52964  0.44065  Biso   1.000  Cu
  Cu14     1.0000 0.05935  0.97036  0.44065  Biso   1.000  Cu
  Cu15     1.0000 0.44065  0.97036  0.05935  Biso   1.000  Cu
  Cu16     1.0000 0.05935  0.52964  0.05935  Biso   1.000  Cu
  Cu17     1.0000 0.52964  0.05935  0.05935  Biso   1.000  Cu
  Cu18     1.0000 0.97036  0.05935  0.44065  Biso   1.000  Cu
  Cu19     1.0000 0.97036  0.44065  0.05935  Biso   1.000  Cu
  Cu20     1.0000 0.52964  0.44065  0.44065  Biso   1.000  Cu
  Cu21     1.0000 0.05935  0.44065  0.97036  Biso   1.000  Cu
  Cu22     1.0000 0.05935  0.05935  0.52964  Biso   1.000  Cu
  Cu23     1.0000 0.44065  0.44065  0.52964  Biso   1.000  Cu
  Cu24     1.0000 0.44065  0.05935  0.97036  Biso   1.000  Cu
  S1       1.0000 0.13971  0.01448  0.48552  Biso   1.000  S
  S2       1.0000 0.36029  0.48552  0.48552  Biso   1.000  S
  S3       1.0000 0.36029  0.01448  0.01448  Biso   1.000  S
  S4       1.0000 0.13971  0.48552  0.01448  Biso   1.000  S
  S5       1.0000 0.48552  0.13971  0.01448  Biso   1.000  S
  S6       1.0000 0.48552  0.36029  0.48552  Biso   1.000  S
  S7       1.0000 0.01448  0.36029  0.01448  Biso   1.000  S
  S8       1.0000 0.01448  0.13971  0.48552  Biso   1.000  S
  S9       1.0000 0.01448  0.48552  0.13971  Biso   1.000  S
  S10      1.0000 0.48552  0.48552  0.36029  Biso   1.000  S
  S11      1.0000 0.01448  0.01448  0.36029  Biso   1.000  S
  S12      1.0000 0.48552  0.01448  0.13971  Biso   1.000  S
  S13      1.0000 0.51448  0.63971  0.51448  Biso   1.000  S
  S14      1.0000 0.98552  0.86029  0.51448  Biso   1.000  S
  S15      1.0000 0.51448  0.86029  0.98552  Biso   1.000  S
  S16      1.0000 0.98552  0.63971  0.98552  Biso   1.000  S
  S17      1.0000 0.63971  0.98552  0.98552  Biso   1.000  S
  S18      1.0000 0.86029  0.98552  0.51448  Biso   1.000  S
  S19      1.0000 0.86029  0.51448  0.98552  Biso   1.000  S
  S20      1.0000 0.63971  0.51448  0.51448  Biso   1.000  S
  S21      1.0000 0.98552  0.51448  0.86029  Biso   1.000  S
  S22      1.0000 0.98552  0.98552  0.63971  Biso   1.000  S
  S23      1.0000 0.51448  0.51448  0.63971  Biso   1.000  S
  S24      1.0000 0.51448  0.98552  0.86029  Biso   1.000  S
  N1       1.0000 0.12132  0.92935  0.57065  Biso   1.000  N
  N2       1.0000 0.37868  0.57065  0.57065  Biso   1.000  N
  N3       1.0000 0.37868  0.92935  0.92935  Biso   1.000  N
  N4       1.0000 0.12132  0.57065  0.92935  Biso   1.000  N
  N5       1.0000 0.57065  0.12132  0.92935  Biso   1.000  N
  N6       1.0000 0.57065  0.37868  0.57065  Biso   1.000  N
  N7       1.0000 0.92935  0.37868  0.92935  Biso   1.000  N
  N8       1.0000 0.92935  0.12132  0.57065  Biso   1.000  N
  N9       1.0000 0.92935  0.57065  0.12132  Biso   1.000  N
  N10      1.0000 0.57065  0.57065  0.37868  Biso   1.000  N
  N11      1.0000 0.92935  0.92935  0.37868  Biso   1.000  N
  N12      1.0000 0.57065  0.92935  0.12132  Biso   1.000  N
  N13      1.0000 0.42935  0.62132  0.42935  Biso   1.000  N
  N14      1.0000 0.07065  0.87868  0.42935  Biso   1.000  N
  N15      1.0000 0.42935  0.87868  0.07065  Biso   1.000  N
  N16      1.0000 0.07065  0.62132  0.07065  Biso   1.000  N
  N17      1.0000 0.62132  0.07065  0.07065  Biso   1.000  N
  N18      1.0000 0.87868  0.07065  0.42935  Biso   1.000  N
  N19      1.0000 0.87868  0.42935  0.07065  Biso   1.000  N
  N20      1.0000 0.62132  0.42935  0.42935  Biso   1.000  N
  N21      1.0000 0.07065  0.42935  0.87868  Biso   1.000  N
  N22      1.0000 0.07065  0.07065  0.62132  Biso   1.000  N
  N23      1.0000 0.42935  0.42935  0.62132  Biso   1.000  N
  N24      1.0000 0.42935  0.07065  0.87868  Biso   1.000  N
  O1       1.0000 0.17435  0.80144  0.69856  Biso   1.000  O
  O2       1.0000 0.32565  0.69856  0.69856  Biso   1.000  O
  O3       1.0000 0.32565  0.80144  0.80144  Biso   1.000  O
  O4       1.0000 0.17435  0.69856  0.80144  Biso   1.000  O
  O5       1.0000 0.69856  0.17435  0.80144  Biso   1.000  O
  O6       1.0000 0.69856  0.32565  0.69856  Biso   1.000  O
  O7       1.0000 0.80144  0.32565  0.80144  Biso   1.000  O
  O8       1.0000 0.80144  0.17435  0.69856  Biso   1.000  O
  O9       1.0000 0.80144  0.69856  0.17435  Biso   1.000  O
  O10      1.0000 0.69856  0.69856  0.32565  Biso   1.000  O
  O11      1.0000 0.80144  0.80144  0.32565  Biso   1.000  O
  O12      1.0000 0.69856  0.80144  0.17435  Biso   1.000  O
  O13      1.0000 0.30144  0.67435  0.30144  Biso   1.000  O
  O14      1.0000 0.19856  0.82565  0.30144  Biso   1.000  O
  O15      1.0000 0.30144  0.82565  0.19856  Biso   1.000  O
  O16      1.0000 0.19856  0.67435  0.19856  Biso   1.000  O
  O17      1.0000 0.67435  0.19856  0.19856  Biso   1.000  O
  O18      1.0000 0.82565  0.19856  0.30144  Biso   1.000  O
  O19      1.0000 0.82565  0.30144  0.19856  Biso   1.000  O
  O20      1.0000 0.67435  0.30144  0.30144  Biso   1.000  O
  O21      1.0000 0.19856  0.30144  0.82565  Biso   1.000  O
  O22      1.0000 0.19856  0.19856  0.67435  Biso   1.000  O
  O23      1.0000 0.30144  0.30144  0.67435  Biso   1.000  O
  O24      1.0000 0.30144  0.19856  0.82565  Biso   1.000  O
  O25      1.0000 0.26956  0.81976  0.68024  Biso   1.000  O
  O26      1.0000 0.23044  0.68024  0.68024  Biso   1.000  O
  O27      1.0000 0.23044  0.81976  0.81976  Biso   1.000  O
  O28      1.0000 0.26956  0.68024  0.81976  Biso   1.000  O
  O29      1.0000 0.68024  0.26956  0.81976  Biso   1.000  O
  O30      1.0000 0.68024  0.23044  0.68024  Biso   1.000  O
  O31      1.0000 0.81976  0.23044  0.81976  Biso   1.000  O
  O32      1.0000 0.81976  0.26956  0.68024  Biso   1.000  O
  O33      1.0000 0.81976  0.68024  0.26956  Biso   1.000  O
  O34      1.0000 0.68024  0.68024  0.23044  Biso   1.000  O
  O35      1.0000 0.81976  0.81976  0.23044  Biso   1.000  O
  O36      1.0000 0.68024  0.81976  0.26956  Biso   1.000  O
  O37      1.0000 0.31976  0.76956  0.31976  Biso   1.000  O
  O38      1.0000 0.18024  0.73044  0.31976  Biso   1.000  O
  O39      1.0000 0.31976  0.73044  0.18024  Biso   1.000  O
  O40      1.0000 0.18024  0.76956  0.18024  Biso   1.000  O
  O41      1.0000 0.76956  0.18024  0.18024  Biso   1.000  O
  O42      1.0000 0.73044  0.18024  0.31976  Biso   1.000  O
  O43      1.0000 0.73044  0.31976  0.18024  Biso   1.000  O
  O44      1.0000 0.76956  0.31976  0.31976  Biso   1.000  O
  O45      1.0000 0.18024  0.31976  0.73044  Biso   1.000  O
  O46      1.0000 0.18024  0.18024  0.76956  Biso   1.000  O
  O47      1.0000 0.31976  0.31976  0.76956  Biso   1.000  O
  O48      1.0000 0.31976  0.18024  0.73044  Biso   1.000  O
  C1       1.0000 0.21640  0.82877  0.67123  Biso   1.000  C
  C2       1.0000 0.28360  0.67123  0.67123  Biso   1.000  C
  C3       1.0000 0.28360  0.82877  0.82877  Biso   1.000  C
  C4       1.0000 0.21640  0.67123  0.82877  Biso   1.000  C
  C5       1.0000 0.67123  0.21640  0.82877  Biso   1.000  C
  C6       1.0000 0.67123  0.28360  0.67123  Biso   1.000  C
  C7       1.0000 0.82877  0.28360  0.82877  Biso   1.000  C
  C8       1.0000 0.82877  0.21640  0.67123  Biso   1.000  C
  C9       1.0000 0.82877  0.67123  0.21640  Biso   1.000  C
  C10      1.0000 0.67123  0.67123  0.28360  Biso   1.000  C
  C11      1.0000 0.82877  0.82877  0.28360  Biso   1.000  C
  C12      1.0000 0.67123  0.82877  0.21640  Biso   1.000  C
  C13      1.0000 0.32877  0.71640  0.32877  Biso   1.000  C
  C14      1.0000 0.17123  0.78360  0.32877  Biso   1.000  C
  C15      1.0000 0.32877  0.78360  0.17123  Biso   1.000  C
  C16      1.0000 0.17123  0.71640  0.17123  Biso   1.000  C
  C17      1.0000 0.71640  0.17123  0.17123  Biso   1.000  C
  C18      1.0000 0.78360  0.17123  0.32877  Biso   1.000  C
  C19      1.0000 0.78360  0.32877  0.17123  Biso   1.000  C
  C20      1.0000 0.71640  0.32877  0.32877  Biso   1.000  C
  C21      1.0000 0.17123  0.32877  0.78360  Biso   1.000  C
  C22      1.0000 0.17123  0.17123  0.71640  Biso   1.000  C
  C23      1.0000 0.32877  0.32877  0.71640  Biso   1.000  C
  C24      1.0000 0.32877  0.17123  0.78360  Biso   1.000  C
  C25      1.0000 0.24210  0.90864  0.59136  Biso   1.000  C
  C26      1.0000 0.25790  0.59136  0.59136  Biso   1.000  C
  C27      1.0000 0.25790  0.90864  0.90864  Biso   1.000  C
  C28      1.0000 0.24210  0.59136  0.90864  Biso   1.000  C
  C29      1.0000 0.59136  0.24210  0.90864  Biso   1.000  C
  C30      1.0000 0.59136  0.25790  0.59136  Biso   1.000  C
  C31      1.0000 0.90864  0.25790  0.90864  Biso   1.000  C
  C32      1.0000 0.90864  0.24210  0.59136  Biso   1.000  C
  C33      1.0000 0.90864  0.59136  0.24210  Biso   1.000  C
  C34      1.0000 0.59136  0.59136  0.25790  Biso   1.000  C
  C35      1.0000 0.90864  0.90864  0.25790  Biso   1.000  C
  C36      1.0000 0.59136  0.90864  0.24210  Biso   1.000  C
  C37      1.0000 0.40864  0.74210  0.40864  Biso   1.000  C
  C38      1.0000 0.09136  0.75790  0.40864  Biso   1.000  C
  C39      1.0000 0.40864  0.75790  0.09136  Biso   1.000  C
  C40      1.0000 0.09136  0.74210  0.09136  Biso   1.000  C
  C41      1.0000 0.74210  0.09136  0.09136  Biso   1.000  C
  C42      1.0000 0.75790  0.09136  0.40864  Biso   1.000  C
  C43      1.0000 0.75790  0.40864  0.09136  Biso   1.000  C
  C44      1.0000 0.74210  0.40864  0.40864  Biso   1.000  C
  C45      1.0000 0.09136  0.40864  0.75790  Biso   1.000  C
  C46      1.0000 0.09136  0.09136  0.74210  Biso   1.000  C
  C47      1.0000 0.40864  0.40864  0.74210  Biso   1.000  C
  C48      1.0000 0.40864  0.09136  0.75790  Biso   1.000  C
  H1       1.0000 0.28300  0.90130  0.59870  Biso   1.000  H
  H2       1.0000 0.21700  0.59870  0.59870  Biso   1.000  H
  H3       1.0000 0.21700  0.90130  0.90130  Biso   1.000  H
  H4       1.0000 0.28300  0.59870  0.90130  Biso   1.000  H
  H5       1.0000 0.59870  0.28300  0.90130  Biso   1.000  H
  H6       1.0000 0.59870  0.21700  0.59870  Biso   1.000  H
  H7       1.0000 0.90130  0.21700  0.90130  Biso   1.000  H
  H8       1.0000 0.90130  0.28300  0.59870  Biso   1.000  H
  H9       1.0000 0.90130  0.59870  0.28300  Biso   1.000  H
  H10      1.0000 0.59870  0.59870  0.21700  Biso   1.000  H
  H11      1.0000 0.90130  0.90130  0.21700  Biso   1.000  H
  H12      1.0000 0.59870  0.90130  0.28300  Biso   1.000  H
  H13      1.0000 0.40130  0.78300  0.40130  Biso   1.000  H
  H14      1.0000 0.09870  0.71700  0.40130  Biso   1.000  H
  H15      1.0000 0.40130  0.71700  0.09870  Biso   1.000  H
  H16      1.0000 0.09870  0.78300  0.09870  Biso   1.000  H
  H17      1.0000 0.78300  0.09870  0.09870  Biso   1.000  H
  H18      1.0000 0.71700  0.09870  0.40130  Biso   1.000  H
  H19      1.0000 0.71700  0.40130  0.09870  Biso   1.000  H
  H20      1.0000 0.78300  0.40130  0.40130  Biso   1.000  H
  H21      1.0000 0.09870  0.40130  0.71700  Biso   1.000  H
  H22      1.0000 0.09870  0.09870  0.78300  Biso   1.000  H
  H23      1.0000 0.40130  0.40130  0.78300  Biso   1.000  H
  H24      1.0000 0.40130  0.09870  0.71700  Biso   1.000  H
  C49      1.0000 0.19850  0.87739  0.62261  Biso   1.000  C
  C50      1.0000 0.30150  0.62261  0.62261  Biso   1.000  C
  C51      1.0000 0.30150  0.87739  0.87739  Biso   1.000  C
  C52      1.0000 0.19850  0.62261  0.87739  Biso   1.000  C
  C53      1.0000 0.62261  0.19850  0.87739  Biso   1.000  C
  C54      1.0000 0.62261  0.30150  0.62261  Biso   1.000  C
  C55      1.0000 0.87739  0.30150  0.87739  Biso   1.000  C
  C56      1.0000 0.87739  0.19850  0.62261  Biso   1.000  C
  C57      1.0000 0.87739  0.62261  0.19850  Biso   1.000  C
  C58      1.0000 0.62261  0.62261  0.30150  Biso   1.000  C
  C59      1.0000 0.87739  0.87739  0.30150  Biso   1.000  C
  C60      1.0000 0.62261  0.87739  0.19850  Biso   1.000  C
  C61      1.0000 0.37739  0.69850  0.37739  Biso   1.000  C
  C62      1.0000 0.12261  0.80150  0.37739  Biso   1.000  C
  C63      1.0000 0.37739  0.80150  0.12261  Biso   1.000  C
  C64      1.0000 0.12261  0.69850  0.12261  Biso   1.000  C
  C65      1.0000 0.69850  0.12261  0.12261  Biso   1.000  C
  C66      1.0000 0.80150  0.12261  0.37739  Biso   1.000  C
  C67      1.0000 0.80150  0.37739  0.12261  Biso   1.000  C
  C68      1.0000 0.69850  0.37739  0.37739  Biso   1.000  C
  C69      1.0000 0.12261  0.37739  0.80150  Biso   1.000  C
  C70      1.0000 0.12261  0.12261  0.69850  Biso   1.000  C
  C71      1.0000 0.37739  0.37739  0.69850  Biso   1.000  C
  C72      1.0000 0.37739  0.12261  0.80150  Biso   1.000  C
  C73      1.0000 0.13890  0.88944  0.61056  Biso   1.000  C
  C74      1.0000 0.36110  0.61056  0.61056  Biso   1.000  C
  C75      1.0000 0.36110  0.88944  0.88944  Biso   1.000  C
  C76      1.0000 0.13890  0.61056  0.88944  Biso   1.000  C
  C77      1.0000 0.61056  0.13890  0.88944  Biso   1.000  C
  C78      1.0000 0.61056  0.36110  0.61056  Biso   1.000  C
  C79      1.0000 0.88944  0.36110  0.88944  Biso   1.000  C
  C80      1.0000 0.88944  0.13890  0.61056  Biso   1.000  C
  C81      1.0000 0.88944  0.61056  0.13890  Biso   1.000  C
  C82      1.0000 0.61056  0.61056  0.36110  Biso   1.000  C
  C83      1.0000 0.88944  0.88944  0.36110  Biso   1.000  C
  C84      1.0000 0.61056  0.88944  0.13890  Biso   1.000  C
  C85      1.0000 0.38944  0.63890  0.38944  Biso   1.000  C
  C86      1.0000 0.11056  0.86110  0.38944  Biso   1.000  C
  C87      1.0000 0.38944  0.86110  0.11056  Biso   1.000  C
  C88      1.0000 0.11056  0.63890  0.11056  Biso   1.000  C
  C89      1.0000 0.63890  0.11056  0.11056  Biso   1.000  C
  C90      1.0000 0.86110  0.11056  0.38944  Biso   1.000  C
  C91      1.0000 0.86110  0.38944  0.11056  Biso   1.000  C
  C92      1.0000 0.63890  0.38944  0.38944  Biso   1.000  C
  C93      1.0000 0.11056  0.38944  0.86110  Biso   1.000  C
  C94      1.0000 0.11056  0.11056  0.63890  Biso   1.000  C
  C95      1.0000 0.38944  0.38944  0.63890  Biso   1.000  C
  C96      1.0000 0.38944  0.11056  0.86110  Biso   1.000  C
  H25      1.0000 0.10940  0.86810  0.63190  Biso   1.000  H
  H26      1.0000 0.39060  0.63190  0.63190  Biso   1.000  H
  H27      1.0000 0.39060  0.86810  0.86810  Biso   1.000  H
  H28      1.0000 0.10940  0.63190  0.86810  Biso   1.000  H
  H29      1.0000 0.63190  0.10940  0.86810  Biso   1.000  H
  H30      1.0000 0.63190  0.39060  0.63190  Biso   1.000  H
  H31      1.0000 0.86810  0.39060  0.86810  Biso   1.000  H
  H32      1.0000 0.86810  0.10940  0.63190  Biso   1.000  H
  H33      1.0000 0.86810  0.63190  0.10940  Biso   1.000  H
  H34      1.0000 0.63190  0.63190  0.39060  Biso   1.000  H
  H35      1.0000 0.86810  0.86810  0.39060  Biso   1.000  H
  H36      1.0000 0.63190  0.86810  0.10940  Biso   1.000  H
  H37      1.0000 0.36810  0.60940  0.36810  Biso   1.000  H
  H38      1.0000 0.13190  0.89060  0.36810  Biso   1.000  H
  H39      1.0000 0.36810  0.89060  0.13190  Biso   1.000  H
  H40      1.0000 0.13190  0.60940  0.13190  Biso   1.000  H
  H41      1.0000 0.60940  0.13190  0.13190  Biso   1.000  H
  H42      1.0000 0.89060  0.13190  0.36810  Biso   1.000  H
  H43      1.0000 0.89060  0.36810  0.13190  Biso   1.000  H
  H44      1.0000 0.60940  0.36810  0.36810  Biso   1.000  H
  H45      1.0000 0.13190  0.36810  0.89060  Biso   1.000  H
  H46      1.0000 0.13190  0.13190  0.60940  Biso   1.000  H
  H47      1.0000 0.36810  0.36810  0.60940  Biso   1.000  H
  H48      1.0000 0.36810  0.13190  0.89060  Biso   1.000  H
  C97      1.0000 0.16230  0.96032  0.53968  Biso   1.000  C
  C98      1.0000 0.33770  0.53968  0.53968  Biso   1.000  C
  C99      1.0000 0.33770  0.96032  0.96032  Biso   1.000  C
  C100     1.0000 0.16230  0.53968  0.96032  Biso   1.000  C
  C101     1.0000 0.53968  0.16230  0.96032  Biso   1.000  C
  C102     1.0000 0.53968  0.33770  0.53968  Biso   1.000  C
  C103     1.0000 0.96032  0.33770  0.96032  Biso   1.000  C
  C104     1.0000 0.96032  0.16230  0.53968  Biso   1.000  C
  C105     1.0000 0.96032  0.53968  0.16230  Biso   1.000  C
  C106     1.0000 0.53968  0.53968  0.33770  Biso   1.000  C
  C107     1.0000 0.96032  0.96032  0.33770  Biso   1.000  C
  C108     1.0000 0.53968  0.96032  0.16230  Biso   1.000  C
  C109     1.0000 0.46032  0.66230  0.46032  Biso   1.000  C
  C110     1.0000 0.03968  0.83770  0.46032  Biso   1.000  C
  C111     1.0000 0.46032  0.83770  0.03968  Biso   1.000  C
  C112     1.0000 0.03968  0.66230  0.03968  Biso   1.000  C
  C113     1.0000 0.66230  0.03968  0.03968  Biso   1.000  C
  C114     1.0000 0.83770  0.03968  0.46032  Biso   1.000  C
  C115     1.0000 0.83770  0.46032  0.03968  Biso   1.000  C
  C116     1.0000 0.66230  0.46032  0.46032  Biso   1.000  C
  C117     1.0000 0.03968  0.46032  0.83770  Biso   1.000  C
  C118     1.0000 0.03968  0.03968  0.66230  Biso   1.000  C
  C119     1.0000 0.46032  0.46032  0.66230  Biso   1.000  C
  C120     1.0000 0.46032  0.03968  0.83770  Biso   1.000  C
  C121     1.0000 0.22510  0.94989  0.55011  Biso   1.000  C
  C122     1.0000 0.27490  0.55011  0.55011  Biso   1.000  C
  C123     1.0000 0.27490  0.94989  0.94989  Biso   1.000  C
  C124     1.0000 0.22510  0.55011  0.94989  Biso   1.000  C
  C125     1.0000 0.55011  0.22510  0.94989  Biso   1.000  C
  C126     1.0000 0.55011  0.27490  0.55011  Biso   1.000  C
  C127     1.0000 0.94989  0.27490  0.94989  Biso   1.000  C
  C128     1.0000 0.94989  0.22510  0.55011  Biso   1.000  C
  C129     1.0000 0.94989  0.55011  0.22510  Biso   1.000  C
  C130     1.0000 0.55011  0.55011  0.27490  Biso   1.000  C
  C131     1.0000 0.94989  0.94989  0.27490  Biso   1.000  C
  C132     1.0000 0.55011  0.94989  0.22510  Biso   1.000  C
  C133     1.0000 0.44989  0.72510  0.44989  Biso   1.000  C
  C134     1.0000 0.05011  0.77490  0.44989  Biso   1.000  C
  C135     1.0000 0.44989  0.77490  0.05011  Biso   1.000  C
  C136     1.0000 0.05011  0.72510  0.05011  Biso   1.000  C
  C137     1.0000 0.72510  0.05011  0.05011  Biso   1.000  C
  C138     1.0000 0.77490  0.05011  0.44989  Biso   1.000  C
  C139     1.0000 0.77490  0.44989  0.05011  Biso   1.000  C
  C140     1.0000 0.72510  0.44989  0.44989  Biso   1.000  C
  C141     1.0000 0.05011  0.44989  0.77490  Biso   1.000  C
  C142     1.0000 0.05011  0.05011  0.72510  Biso   1.000  C
  C143     1.0000 0.44989  0.44989  0.72510  Biso   1.000  C
  C144     1.0000 0.44989  0.05011  0.77490  Biso   1.000  C
  H49      1.0000 0.25420  0.97150  0.52850  Biso   1.000  H
  H50      1.0000 0.24580  0.52850  0.52850  Biso   1.000  H
  H51      1.0000 0.24580  0.97150  0.97150  Biso   1.000  H
  H52      1.0000 0.25420  0.52850  0.97150  Biso   1.000  H
  H53      1.0000 0.52850  0.25420  0.97150  Biso   1.000  H
  H54      1.0000 0.52850  0.24580  0.52850  Biso   1.000  H
  H55      1.0000 0.97150  0.24580  0.97150  Biso   1.000  H
  H56      1.0000 0.97150  0.25420  0.52850  Biso   1.000  H
  H57      1.0000 0.97150  0.52850  0.25420  Biso   1.000  H
  H58      1.0000 0.52850  0.52850  0.24580  Biso   1.000  H
  H59      1.0000 0.97150  0.97150  0.24580  Biso   1.000  H
  H60      1.0000 0.52850  0.97150  0.25420  Biso   1.000  H
  H61      1.0000 0.47150  0.75420  0.47150  Biso   1.000  H
  H62      1.0000 0.02850  0.74580  0.47150  Biso   1.000  H
  H63      1.0000 0.47150  0.74580  0.02850  Biso   1.000  H
  H64      1.0000 0.02850  0.75420  0.02850  Biso   1.000  H
  H65      1.0000 0.75420  0.02850  0.02850  Biso   1.000  H
  H66      1.0000 0.74580  0.02850  0.47150  Biso   1.000  H
  H67      1.0000 0.74580  0.47150  0.02850  Biso   1.000  H
  H68      1.0000 0.75420  0.47150  0.47150  Biso   1.000  H
  H69      1.0000 0.02850  0.47150  0.74580  Biso   1.000  H
  H70      1.0000 0.02850  0.02850  0.75420  Biso   1.000  H
  H71      1.0000 0.47150  0.47150  0.75420  Biso   1.000  H
  H72      1.0000 0.47150  0.02850  0.74580  Biso   1.000  H
