data_image0
_cell_length_a       3.9552
_cell_length_b       19.0468
_cell_length_c       5.2605
_cell_angle_alpha    90
_cell_angle_beta     93.184
_cell_angle_gamma    90

_symmetry_space_group_name_H-M    "P 1"
_symmetry_int_tables_number       1

loop_
  _symmetry_equiv_pos_as_xyz
  'x, y, z'

loop_
  _atom_site_label
  _atom_site_occupancy
  _atom_site_fract_x
  _atom_site_fract_y
  _atom_site_fract_z
  _atom_site_thermal_displace_type
  _atom_site_B_iso_or_equiv
  _atom_site_type_symbol
  C1       1.0000 0.72130  0.35832  0.79640  Biso   1.000  C
  C2       1.0000 0.22130  0.64168  0.29640  Biso   1.000  C
  C3       1.0000 0.54290  0.34139  0.56950  Biso   1.000  C
  C4       1.0000 0.04290  0.65861  0.06950  Biso   1.000  C
  H1       1.0000 0.43700  0.37730  0.46830  Biso   1.000  H
  H2       1.0000 0.93700  0.62270  0.96830  Biso   1.000  H
  C5       1.0000 0.51980  0.27250  0.49170  Biso   1.000  C
  C6       1.0000 0.01980  0.72750  0.99170  Biso   1.000  C
  H3       1.0000 0.39920  0.26140  0.33560  Biso   1.000  H
  H4       1.0000 0.89920  0.73860  0.83560  Biso   1.000  H
  C7       1.0000 0.66910  0.21916  0.63650  Biso   1.000  C
  C8       1.0000 0.16910  0.78084  0.13650  Biso   1.000  C
  C9       1.0000 0.84810  0.23614  0.86320  Biso   1.000  C
  C10      1.0000 0.34810  0.76386  0.36320  Biso   1.000  C
  H5       1.0000 0.95170  0.20010  0.96530  Biso   1.000  H
  H6       1.0000 0.45170  0.79990  0.46530  Biso   1.000  H
  C11      1.0000 0.87510  0.30558  0.94010  Biso   1.000  C
  C12      1.0000 0.37510  0.69442  0.44010  Biso   1.000  C
  H7       1.0000 0.00120  0.31700  0.09350  Biso   1.000  H
  H8       1.0000 0.50120  0.68300  0.59350  Biso   1.000  H
  C13      1.0000 0.64250  0.14400  0.55970  Biso   1.000  C
  C14      1.0000 0.14250  0.85600  0.05970  Biso   1.000  C
  C15      1.0000 0.40920  0.06480  0.25290  Biso   1.000  C
  C16      1.0000 0.90920  0.93520  0.75290  Biso   1.000  C
  H9       1.0000 0.62930  0.04140  0.24720  Biso   1.000  H
  H10      1.0000 0.12930  0.95860  0.74720  Biso   1.000  H
  H11      1.0000 0.29670  0.06510  0.08220  Biso   1.000  H
  H12      1.0000 0.79670  0.93490  0.58220  Biso   1.000  H
  H13      1.0000 0.26820  0.03960  0.37000  Biso   1.000  H
  H14      1.0000 0.76820  0.96040  0.87000  Biso   1.000  H
  Cu1      1.0000 0.25941  0.47851  0.07643  Biso   1.000  Cu
  Cu2      1.0000 0.75941  0.52149  0.57643  Biso   1.000  Cu
  O1       1.0000 0.76960  0.09614  0.67850  Biso   1.000  O
  O2       1.0000 0.26960  0.90386  0.17850  Biso   1.000  O
  O3       1.0000 0.45850  0.13618  0.34040  Biso   1.000  O
  O4       1.0000 0.95850  0.86382  0.84040  Biso   1.000  O
  S1       1.0000 0.74532  0.44615  0.91147  Biso   1.000  S
  S2       1.0000 0.24532  0.55385  0.41147  Biso   1.000  S
