data_image0
_cell_length_a       3.9602
_cell_length_b       19.026
_cell_length_c       5.2746
_cell_angle_alpha    90
_cell_angle_beta     93.343
_cell_angle_gamma    90

_symmetry_space_group_name_H-M    "P 1"
_symmetry_int_tables_number       1

loop_
  _symmetry_equiv_pos_as_xyz
  'x, y, z'

loop_
  _atom_site_label
  _atom_site_occupancy
  _atom_site_fract_x
  _atom_site_fract_y
  _atom_site_fract_z
  _atom_site_thermal_displace_type
  _atom_site_B_iso_or_equiv
  _atom_site_type_symbol
  C1       1.0000 0.67760  0.35866  0.80780  Biso   1.000  C
  C2       1.0000 0.17760  0.64134  0.30780  Biso   1.000  C
  C3       1.0000 0.50040  0.34161  0.58220  Biso   1.000  C
  C4       1.0000 0.00040  0.65839  0.08220  Biso   1.000  C
  H1       1.0000 0.39830  0.37680  0.48250  Biso   1.000  H
  H2       1.0000 0.89830  0.62320  0.98250  Biso   1.000  H
  C5       1.0000 0.47510  0.27270  0.50550  Biso   1.000  C
  C6       1.0000 0.97510  0.72730  0.00550  Biso   1.000  C
  H3       1.0000 0.35550  0.26180  0.35370  Biso   1.000  H
  H4       1.0000 0.85550  0.73820  0.85370  Biso   1.000  H
  C7       1.0000 0.62420  0.21971  0.65000  Biso   1.000  C
  C8       1.0000 0.12420  0.78029  0.15000  Biso   1.000  C
  C9       1.0000 0.80140  0.23674  0.87590  Biso   1.000  C
  C10      1.0000 0.30140  0.76326  0.37590  Biso   1.000  C
  H5       1.0000 0.90140  0.20140  0.97640  Biso   1.000  H
  H6       1.0000 0.40140  0.79860  0.47640  Biso   1.000  H
  C11      1.0000 0.82980  0.30598  0.95180  Biso   1.000  C
  C12      1.0000 0.32980  0.69402  0.45180  Biso   1.000  C
  H7       1.0000 0.95290  0.31710  0.10200  Biso   1.000  H
  H8       1.0000 0.45290  0.68290  0.60200  Biso   1.000  H
  C13      1.0000 0.59520  0.14450  0.57420  Biso   1.000  C
  C14      1.0000 0.09520  0.85550  0.07420  Biso   1.000  C
  C15      1.0000 0.36250  0.06510  0.26820  Biso   1.000  C
  C16      1.0000 0.86250  0.93490  0.76820  Biso   1.000  C
  H9       1.0000 0.57720  0.04200  0.26130  Biso   1.000  H
  H10      1.0000 0.07720  0.95800  0.76130  Biso   1.000  H
  H11      1.0000 0.25030  0.06570  0.10190  Biso   1.000  H
  H12      1.0000 0.75030  0.93430  0.60190  Biso   1.000  H
  H13      1.0000 0.22550  0.04040  0.38310  Biso   1.000  H
  H14      1.0000 0.72550  0.95960  0.88310  Biso   1.000  H
  Cu1      1.0000 0.21770  0.47871  0.08670  Biso   1.000  Cu
  Cu2      1.0000 0.71770  0.52129  0.58670  Biso   1.000  Cu
  O1       1.0000 0.72080  0.09686  0.69320  Biso   1.000  O
  O2       1.0000 0.22080  0.90314  0.19320  Biso   1.000  O
  O3       1.0000 0.41430  0.13641  0.35620  Biso   1.000  O
  O4       1.0000 0.91430  0.86359  0.85620  Biso   1.000  O
  S1       1.0000 0.70279  0.44651  0.92213  Biso   1.000  S
  S2       1.0000 0.20279  0.55349  0.42213  Biso   1.000  S
