data_image0
_cell_length_a       3.9655
_cell_length_b       19.103
_cell_length_c       5.2888
_cell_angle_alpha    90
_cell_angle_beta     93.343
_cell_angle_gamma    90

_symmetry_space_group_name_H-M    "P 1"
_symmetry_int_tables_number       1

loop_
  _symmetry_equiv_pos_as_xyz
  'x, y, z'

loop_
  _atom_site_label
  _atom_site_occupancy
  _atom_site_fract_x
  _atom_site_fract_y
  _atom_site_fract_z
  _atom_site_thermal_displace_type
  _atom_site_B_iso_or_equiv
  _atom_site_type_symbol
  Cu1      1.0000 0.84400  0.02132  0.30520  Biso   1.000  Cu
  Cu2      1.0000 0.34400  0.97868  0.80520  Biso   1.000  Cu
  S1       1.0000 0.35830  0.05342  0.46950  Biso   1.000  S
  S2       1.0000 0.85830  0.94658  0.96950  Biso   1.000  S
  C1       1.0000 0.38500  0.14230  0.57800  Biso   1.000  C
  C2       1.0000 0.88500  0.85770  0.07800  Biso   1.000  C
  C3       1.0000 0.23800  0.19460  0.43800  Biso   1.000  C
  C4       1.0000 0.73800  0.80540  0.93800  Biso   1.000  C
  C5       1.0000 0.25500  0.26330  0.51500  Biso   1.000  C
  C6       1.0000 0.75500  0.73670  0.01500  Biso   1.000  C
  C7       1.0000 0.43300  0.28140  0.74100  Biso   1.000  C
  C8       1.0000 0.93300  0.71860  0.24100  Biso   1.000  C
  C9       1.0000 0.58300  0.22750  0.88300  Biso   1.000  C
  C10      1.0000 0.08300  0.77250  0.38300  Biso   1.000  C
  C11      1.0000 0.56600  0.15790  0.80900  Biso   1.000  C
  C12      1.0000 0.06600  0.84210  0.30900  Biso   1.000  C
  C13      1.0000 0.45700  0.35530  0.81400  Biso   1.000  C
  C14      1.0000 0.95700  0.64470  0.31400  Biso   1.000  C
  O1       1.0000 0.34100  0.40270  0.69900  Biso   1.000  O
  O2       1.0000 0.84100  0.59730  0.19900  Biso   1.000  O
  O3       1.0000 0.65600  0.36350  0.03400  Biso   1.000  O
  O4       1.0000 0.15600  0.63650  0.53400  Biso   1.000  O
  C15      1.0000 0.70100  0.43360  0.12100  Biso   1.000  C
  C16      1.0000 0.20100  0.56640  0.62100  Biso   1.000  C
  H1       1.0000 0.12440  0.18320  0.28550  Biso   1.000  H
  H2       1.0000 0.62440  0.81680  0.78550  Biso   1.000  H
  H3       1.0000 0.14970  0.29790  0.41420  Biso   1.000  H
  H4       1.0000 0.64970  0.70210  0.91420  Biso   1.000  H
  H5       1.0000 0.69830  0.23850  0.03540  Biso   1.000  H
  H6       1.0000 0.19830  0.76150  0.53540  Biso   1.000  H
  H7       1.0000 0.66780  0.12280  0.90860  Biso   1.000  H
  H8       1.0000 0.16780  0.87720  0.40860  Biso   1.000  H
  H9       1.0000 0.88920  0.43280  0.26130  Biso   1.000  H
  H10      1.0000 0.38920  0.56720  0.76130  Biso   1.000  H
  H11      1.0000 0.47730  0.44930  0.18940  Biso   1.000  H
  H12      1.0000 0.97730  0.55070  0.68940  Biso   1.000  H
  H13      1.0000 0.76330  0.46390  0.97330  Biso   1.000  H
  H14      1.0000 0.26330  0.53610  0.47330  Biso   1.000  H
