data_image0
_cell_length_a       22.118
_cell_length_b       10.2155
_cell_length_c       18.078
_cell_angle_alpha    90
_cell_angle_beta     117.68
_cell_angle_gamma    90

_symmetry_space_group_name_H-M    "P 1"
_symmetry_int_tables_number       1

loop_
  _symmetry_equiv_pos_as_xyz
  'x, y, z'

loop_
  _atom_site_label
  _atom_site_occupancy
  _atom_site_fract_x
  _atom_site_fract_y
  _atom_site_fract_z
  _atom_site_thermal_displace_type
  _atom_site_B_iso_or_equiv
  _atom_site_type_symbol
  Cu1      1.0000 0.50000  0.45410  0.25000  Biso   1.000  Cu
  Cu2      1.0000 0.00000  0.95410  0.25000  Biso   1.000  Cu
  Cu3      1.0000 0.50000  0.54590  0.75000  Biso   1.000  Cu
  Cu4      1.0000 0.00000  0.04590  0.75000  Biso   1.000  Cu
  Cu5      1.0000 0.50000  0.96670  0.25000  Biso   1.000  Cu
  Cu6      1.0000 0.00000  0.46670  0.25000  Biso   1.000  Cu
  Cu7      1.0000 0.50000  0.03330  0.75000  Biso   1.000  Cu
  Cu8      1.0000 0.00000  0.53330  0.75000  Biso   1.000  Cu
  Cu9      1.0000 0.43474  0.70353  0.16242  Biso   1.000  Cu
  Cu10     1.0000 0.93474  0.20353  0.16242  Biso   1.000  Cu
  Cu11     1.0000 0.56526  0.70353  0.33758  Biso   1.000  Cu
  Cu12     1.0000 0.06526  0.20353  0.33758  Biso   1.000  Cu
  Cu13     1.0000 0.56526  0.29647  0.83758  Biso   1.000  Cu
  Cu14     1.0000 0.06526  0.79647  0.83758  Biso   1.000  Cu
  Cu15     1.0000 0.43474  0.29647  0.66242  Biso   1.000  Cu
  Cu16     1.0000 0.93474  0.79647  0.66242  Biso   1.000  Cu
  Mo1      1.0000 0.18247  0.01316  0.00610  Biso   1.000  Mo
  Mo2      1.0000 0.68247  0.51316  0.00610  Biso   1.000  Mo
  Mo3      1.0000 0.81753  0.01316  0.49390  Biso   1.000  Mo
  Mo4      1.0000 0.31753  0.51316  0.49390  Biso   1.000  Mo
  Mo5      1.0000 0.81753  0.98684  0.99390  Biso   1.000  Mo
  Mo6      1.0000 0.31753  0.48684  0.99390  Biso   1.000  Mo
  Mo7      1.0000 0.18247  0.98684  0.50610  Biso   1.000  Mo
  Mo8      1.0000 0.68247  0.48684  0.50610  Biso   1.000  Mo
  Mo9      1.0000 0.32396  0.93176  0.00587  Biso   1.000  Mo
  Mo10     1.0000 0.82396  0.43176  0.00587  Biso   1.000  Mo
  Mo11     1.0000 0.67604  0.93176  0.49413  Biso   1.000  Mo
  Mo12     1.0000 0.17604  0.43176  0.49413  Biso   1.000  Mo
  Mo13     1.0000 0.67604  0.06824  0.99413  Biso   1.000  Mo
  Mo14     1.0000 0.17604  0.56824  0.99413  Biso   1.000  Mo
  Mo15     1.0000 0.32396  0.06824  0.50587  Biso   1.000  Mo
  Mo16     1.0000 0.82396  0.56824  0.50587  Biso   1.000  Mo
  Mo17     1.0000 0.39322  0.20624  0.10216  Biso   1.000  Mo
  Mo18     1.0000 0.89322  0.70624  0.10216  Biso   1.000  Mo
  Mo19     1.0000 0.60678  0.20624  0.39784  Biso   1.000  Mo
  Mo20     1.0000 0.10678  0.70624  0.39784  Biso   1.000  Mo
  Mo21     1.0000 0.60678  0.79376  0.89784  Biso   1.000  Mo
  Mo22     1.0000 0.10678  0.29376  0.89784  Biso   1.000  Mo
  Mo23     1.0000 0.39322  0.79376  0.60216  Biso   1.000  Mo
  Mo24     1.0000 0.89322  0.29376  0.60216  Biso   1.000  Mo
  Mo25     1.0000 0.25120  0.28271  0.09855  Biso   1.000  Mo
  Mo26     1.0000 0.75120  0.78271  0.09855  Biso   1.000  Mo
  Mo27     1.0000 0.74880  0.28271  0.40145  Biso   1.000  Mo
  Mo28     1.0000 0.24880  0.78271  0.40145  Biso   1.000  Mo
  Mo29     1.0000 0.74880  0.71729  0.90145  Biso   1.000  Mo
  Mo30     1.0000 0.24880  0.21729  0.90145  Biso   1.000  Mo
  Mo31     1.0000 0.25120  0.71729  0.59855  Biso   1.000  Mo
  Mo32     1.0000 0.75120  0.21729  0.59855  Biso   1.000  Mo
  C1       1.0000 0.34060  0.64170  0.23370  Biso   1.000  C
  C2       1.0000 0.84060  0.14170  0.23370  Biso   1.000  C
  C3       1.0000 0.65940  0.64170  0.26630  Biso   1.000  C
  C4       1.0000 0.15940  0.14170  0.26630  Biso   1.000  C
  C5       1.0000 0.65940  0.35830  0.76630  Biso   1.000  C
  C6       1.0000 0.15940  0.85830  0.76630  Biso   1.000  C
  C7       1.0000 0.34060  0.35830  0.73370  Biso   1.000  C
  C8       1.0000 0.84060  0.85830  0.73370  Biso   1.000  C
  C9       1.0000 0.38720  0.46310  0.29950  Biso   1.000  C
  C10      1.0000 0.88720  0.96310  0.29950  Biso   1.000  C
  C11      1.0000 0.61280  0.46310  0.20050  Biso   1.000  C
  C12      1.0000 0.11280  0.96310  0.20050  Biso   1.000  C
  C13      1.0000 0.61280  0.53690  0.70050  Biso   1.000  C
  C14      1.0000 0.11280  0.03690  0.70050  Biso   1.000  C
  C15      1.0000 0.38720  0.53690  0.79950  Biso   1.000  C
  C16      1.0000 0.88720  0.03690  0.79950  Biso   1.000  C
  C17      1.0000 0.51410  0.76810  0.07080  Biso   1.000  C
  C18      1.0000 0.01410  0.26810  0.07080  Biso   1.000  C
  C19      1.0000 0.48590  0.76810  0.42920  Biso   1.000  C
  C20      1.0000 0.98590  0.26810  0.42920  Biso   1.000  C
  C21      1.0000 0.48590  0.23190  0.92920  Biso   1.000  C
  C22      1.0000 0.98590  0.73190  0.92920  Biso   1.000  C
  C23      1.0000 0.51410  0.23190  0.57080  Biso   1.000  C
  C24      1.0000 0.01410  0.73190  0.57080  Biso   1.000  C
  C25      1.0000 0.56110  0.95010  0.13380  Biso   1.000  C
  C26      1.0000 0.06110  0.45010  0.13380  Biso   1.000  C
  C27      1.0000 0.43890  0.95010  0.36620  Biso   1.000  C
  C28      1.0000 0.93890  0.45010  0.36620  Biso   1.000  C
  C29      1.0000 0.43890  0.04990  0.86620  Biso   1.000  C
  C30      1.0000 0.93890  0.54990  0.86620  Biso   1.000  C
  C31      1.0000 0.56110  0.04990  0.63380  Biso   1.000  C
  C32      1.0000 0.06110  0.54990  0.63380  Biso   1.000  C
  N1       1.0000 0.59700  0.05490  0.15340  Biso   1.000  N
  N2       1.0000 0.09700  0.55490  0.15340  Biso   1.000  N
  N3       1.0000 0.40300  0.05490  0.34660  Biso   1.000  N
  N4       1.0000 0.90300  0.55490  0.34660  Biso   1.000  N
  N5       1.0000 0.40300  0.94510  0.84660  Biso   1.000  N
  N6       1.0000 0.90300  0.44510  0.84660  Biso   1.000  N
  N7       1.0000 0.59700  0.94510  0.65340  Biso   1.000  N
  N8       1.0000 0.09700  0.44510  0.65340  Biso   1.000  N
  H1       1.0000 0.59860  0.10420  0.19280  Biso   1.000  H
  H2       1.0000 0.09860  0.60420  0.19280  Biso   1.000  H
  H3       1.0000 0.40140  0.10420  0.30720  Biso   1.000  H
  H4       1.0000 0.90140  0.60420  0.30720  Biso   1.000  H
  H5       1.0000 0.40140  0.89580  0.80720  Biso   1.000  H
  H6       1.0000 0.90140  0.39580  0.80720  Biso   1.000  H
  H7       1.0000 0.59860  0.89580  0.69280  Biso   1.000  H
  H8       1.0000 0.09860  0.39580  0.69280  Biso   1.000  H
  H9       1.0000 0.61960  0.07590  0.12720  Biso   1.000  H
  H10      1.0000 0.11960  0.57590  0.12720  Biso   1.000  H
  H11      1.0000 0.38040  0.07590  0.37280  Biso   1.000  H
  H12      1.0000 0.88040  0.57590  0.37280  Biso   1.000  H
  H13      1.0000 0.38040  0.92410  0.87280  Biso   1.000  H
  H14      1.0000 0.88040  0.42410  0.87280  Biso   1.000  H
  H15      1.0000 0.61960  0.92410  0.62720  Biso   1.000  H
  H16      1.0000 0.11960  0.42410  0.62720  Biso   1.000  H
  N9       1.0000 0.30300  0.73960  0.21410  Biso   1.000  N
  N10      1.0000 0.80300  0.23960  0.21410  Biso   1.000  N
  N11      1.0000 0.69700  0.73960  0.28590  Biso   1.000  N
  N12      1.0000 0.19700  0.23960  0.28590  Biso   1.000  N
  N13      1.0000 0.69700  0.26040  0.78590  Biso   1.000  N
  N14      1.0000 0.19700  0.76040  0.78590  Biso   1.000  N
  N15      1.0000 0.30300  0.26040  0.71410  Biso   1.000  N
  N16      1.0000 0.80300  0.76040  0.71410  Biso   1.000  N
  N17      1.0000 0.39660  0.36980  0.34790  Biso   1.000  N
  N18      1.0000 0.89660  0.86980  0.34790  Biso   1.000  N
  N19      1.0000 0.60340  0.36980  0.15210  Biso   1.000  N
  N20      1.0000 0.10340  0.86980  0.15210  Biso   1.000  N
  N21      1.0000 0.60340  0.63020  0.65210  Biso   1.000  N
  N22      1.0000 0.10340  0.13020  0.65210  Biso   1.000  N
  N23      1.0000 0.39660  0.63020  0.84790  Biso   1.000  N
  N24      1.0000 0.89660  0.13020  0.84790  Biso   1.000  N
  H17      1.0000 0.43130  0.31930  0.36170  Biso   1.000  H
  H18      1.0000 0.93130  0.81930  0.36170  Biso   1.000  H
  H19      1.0000 0.56870  0.31930  0.13830  Biso   1.000  H
  H20      1.0000 0.06870  0.81930  0.13830  Biso   1.000  H
  H21      1.0000 0.56870  0.68070  0.63830  Biso   1.000  H
  H22      1.0000 0.06870  0.18070  0.63830  Biso   1.000  H
  H23      1.0000 0.43130  0.68070  0.86170  Biso   1.000  H
  H24      1.0000 0.93130  0.18070  0.86170  Biso   1.000  H
  H25      1.0000 0.36840  0.35590  0.36750  Biso   1.000  H
  H26      1.0000 0.86840  0.85590  0.36750  Biso   1.000  H
  H27      1.0000 0.63160  0.35590  0.13250  Biso   1.000  H
  H28      1.0000 0.13160  0.85590  0.13250  Biso   1.000  H
  H29      1.0000 0.63160  0.64410  0.63250  Biso   1.000  H
  H30      1.0000 0.13160  0.14410  0.63250  Biso   1.000  H
  H31      1.0000 0.36840  0.64410  0.86750  Biso   1.000  H
  H32      1.0000 0.86840  0.14410  0.86750  Biso   1.000  H
  N25      1.0000 0.50860  0.66400  0.03190  Biso   1.000  N
  N26      1.0000 0.00860  0.16400  0.03190  Biso   1.000  N
  N27      1.0000 0.49140  0.66400  0.46810  Biso   1.000  N
  N28      1.0000 0.99140  0.16400  0.46810  Biso   1.000  N
  N29      1.0000 0.49140  0.33600  0.96810  Biso   1.000  N
  N30      1.0000 0.99140  0.83600  0.96810  Biso   1.000  N
  N31      1.0000 0.50860  0.33600  0.53190  Biso   1.000  N
  N32      1.0000 0.00860  0.83600  0.53190  Biso   1.000  N
  H33      1.0000 0.49000  0.59620  0.04140  Biso   1.000  H
  H34      1.0000 0.99000  0.09620  0.04140  Biso   1.000  H
  H35      1.0000 0.51000  0.59620  0.45860  Biso   1.000  H
  H36      1.0000 0.01000  0.09620  0.45860  Biso   1.000  H
  H37      1.0000 0.51000  0.40380  0.95860  Biso   1.000  H
  H38      1.0000 0.01000  0.90380  0.95860  Biso   1.000  H
  H39      1.0000 0.49000  0.40380  0.54140  Biso   1.000  H
  H40      1.0000 0.99000  0.90380  0.54140  Biso   1.000  H
  H41      1.0000 0.52340  0.65920  0.99560  Biso   1.000  H
  H42      1.0000 0.02340  0.15920  0.99560  Biso   1.000  H
  H43      1.0000 0.47660  0.65920  0.50440  Biso   1.000  H
  H44      1.0000 0.97660  0.15920  0.50440  Biso   1.000  H
  H45      1.0000 0.47660  0.34080  0.00440  Biso   1.000  H
  H46      1.0000 0.97660  0.84080  0.00440  Biso   1.000  H
  H47      1.0000 0.52340  0.34080  0.49560  Biso   1.000  H
  H48      1.0000 0.02340  0.84080  0.49560  Biso   1.000  H
  N33      1.0000 0.33530  0.54750  0.28270  Biso   1.000  N
  N34      1.0000 0.83530  0.04750  0.28270  Biso   1.000  N
  N35      1.0000 0.66470  0.54750  0.21730  Biso   1.000  N
  N36      1.0000 0.16470  0.04750  0.21730  Biso   1.000  N
  N37      1.0000 0.66470  0.45250  0.71730  Biso   1.000  N
  N38      1.0000 0.16470  0.95250  0.71730  Biso   1.000  N
  N39      1.0000 0.33530  0.45250  0.78270  Biso   1.000  N
  N40      1.0000 0.83530  0.95250  0.78270  Biso   1.000  N
  H49      1.0000 0.30500  0.54220  0.29970  Biso   1.000  H
  H50      1.0000 0.80500  0.04220  0.29970  Biso   1.000  H
  H51      1.0000 0.69500  0.54220  0.20030  Biso   1.000  H
  H52      1.0000 0.19500  0.04220  0.20030  Biso   1.000  H
  H53      1.0000 0.69500  0.45780  0.70030  Biso   1.000  H
  H54      1.0000 0.19500  0.95780  0.70030  Biso   1.000  H
  H55      1.0000 0.30500  0.45780  0.79970  Biso   1.000  H
  H56      1.0000 0.80500  0.95780  0.79970  Biso   1.000  H
  N41      1.0000 0.55670  0.86550  0.07470  Biso   1.000  N
  N42      1.0000 0.05670  0.36550  0.07470  Biso   1.000  N
  N43      1.0000 0.44330  0.86550  0.42530  Biso   1.000  N
  N44      1.0000 0.94330  0.36550  0.42530  Biso   1.000  N
  N45      1.0000 0.44330  0.13450  0.92530  Biso   1.000  N
  N46      1.0000 0.94330  0.63450  0.92530  Biso   1.000  N
  N47      1.0000 0.55670  0.13450  0.57470  Biso   1.000  N
  N48      1.0000 0.05670  0.63450  0.57470  Biso   1.000  N
  H57      1.0000 0.57740  0.87230  0.04460  Biso   1.000  H
  H58      1.0000 0.07740  0.37230  0.04460  Biso   1.000  H
  H59      1.0000 0.42260  0.87230  0.45540  Biso   1.000  H
  H60      1.0000 0.92260  0.37230  0.45540  Biso   1.000  H
  H61      1.0000 0.42260  0.12770  0.95540  Biso   1.000  H
  H62      1.0000 0.92260  0.62770  0.95540  Biso   1.000  H
  H63      1.0000 0.57740  0.12770  0.54460  Biso   1.000  H
  H64      1.0000 0.07740  0.62770  0.54460  Biso   1.000  H
  N49      1.0000 0.39310  0.61580  0.22070  Biso   1.000  N
  N50      1.0000 0.89310  0.11580  0.22070  Biso   1.000  N
  N51      1.0000 0.60690  0.61580  0.27930  Biso   1.000  N
  N52      1.0000 0.10690  0.11580  0.27930  Biso   1.000  N
  N53      1.0000 0.60690  0.38420  0.77930  Biso   1.000  N
  N54      1.0000 0.10690  0.88420  0.77930  Biso   1.000  N
  N55      1.0000 0.39310  0.38420  0.72070  Biso   1.000  N
  N56      1.0000 0.89310  0.88420  0.72070  Biso   1.000  N
  N57      1.0000 0.42330  0.50000  0.26360  Biso   1.000  N
  N58      1.0000 0.92330  0.00000  0.26360  Biso   1.000  N
  N59      1.0000 0.57670  0.50000  0.23640  Biso   1.000  N
  N60      1.0000 0.07670  0.00000  0.23640  Biso   1.000  N
  N61      1.0000 0.57670  0.50000  0.73640  Biso   1.000  N
  N62      1.0000 0.07670  0.00000  0.73640  Biso   1.000  N
  N63      1.0000 0.42330  0.50000  0.76360  Biso   1.000  N
  N64      1.0000 0.92330  0.00000  0.76360  Biso   1.000  N
  N65      1.0000 0.49410  0.78920  0.12750  Biso   1.000  N
  N66      1.0000 0.99410  0.28920  0.12750  Biso   1.000  N
  N67      1.0000 0.50590  0.78920  0.37250  Biso   1.000  N
  N68      1.0000 0.00590  0.28920  0.37250  Biso   1.000  N
  N69      1.0000 0.50590  0.21080  0.87250  Biso   1.000  N
  N70      1.0000 0.00590  0.71080  0.87250  Biso   1.000  N
  N71      1.0000 0.49410  0.21080  0.62750  Biso   1.000  N
  N72      1.0000 0.99410  0.71080  0.62750  Biso   1.000  N
  N73      1.0000 0.52460  0.90620  0.16790  Biso   1.000  N
  N74      1.0000 0.02460  0.40620  0.16790  Biso   1.000  N
  N75      1.0000 0.47540  0.90620  0.33210  Biso   1.000  N
  N76      1.0000 0.97540  0.40620  0.33210  Biso   1.000  N
  N77      1.0000 0.47540  0.09380  0.83210  Biso   1.000  N
  N78      1.0000 0.97540  0.59380  0.83210  Biso   1.000  N
  N79      1.0000 0.52460  0.09380  0.66790  Biso   1.000  N
  N80      1.0000 0.02460  0.59380  0.66790  Biso   1.000  N
  O1       1.0000 0.46440  0.28950  0.11640  Biso   1.000  O
  O2       1.0000 0.96440  0.78950  0.11640  Biso   1.000  O
  O3       1.0000 0.53560  0.28950  0.38360  Biso   1.000  O
  O4       1.0000 0.03560  0.78950  0.38360  Biso   1.000  O
  O5       1.0000 0.53560  0.71050  0.88360  Biso   1.000  O
  O6       1.0000 0.03560  0.21050  0.88360  Biso   1.000  O
  O7       1.0000 0.46440  0.71050  0.61640  Biso   1.000  O
  O8       1.0000 0.96440  0.21050  0.61640  Biso   1.000  O
  O9       1.0000 0.10080  0.95810  0.95280  Biso   1.000  O
  O10      1.0000 0.60080  0.45810  0.95280  Biso   1.000  O
  O11      1.0000 0.89920  0.95810  0.54720  Biso   1.000  O
  O12      1.0000 0.39920  0.45810  0.54720  Biso   1.000  O
  O13      1.0000 0.89920  0.04190  0.04720  Biso   1.000  O
  O14      1.0000 0.39920  0.54190  0.04720  Biso   1.000  O
  O15      1.0000 0.10080  0.04190  0.45280  Biso   1.000  O
  O16      1.0000 0.60080  0.54190  0.45280  Biso   1.000  O
  O17      1.0000 0.35070  0.86600  0.10300  Biso   1.000  O
  O18      1.0000 0.85070  0.36600  0.10300  Biso   1.000  O
  O19      1.0000 0.64930  0.86600  0.39700  Biso   1.000  O
  O20      1.0000 0.14930  0.36600  0.39700  Biso   1.000  O
  O21      1.0000 0.64930  0.13400  0.89700  Biso   1.000  O
  O22      1.0000 0.14930  0.63400  0.89700  Biso   1.000  O
  O23      1.0000 0.35070  0.13400  0.60300  Biso   1.000  O
  O24      1.0000 0.85070  0.63400  0.60300  Biso   1.000  O
  O25      1.0000 0.34660  0.82290  0.95290  Biso   1.000  O
  O26      1.0000 0.84660  0.32290  0.95290  Biso   1.000  O
  O27      1.0000 0.65340  0.82290  0.54710  Biso   1.000  O
  O28      1.0000 0.15340  0.32290  0.54710  Biso   1.000  O
  O29      1.0000 0.65340  0.17710  0.04710  Biso   1.000  O
  O30      1.0000 0.15340  0.67710  0.04710  Biso   1.000  O
  O31      1.0000 0.34660  0.17710  0.45290  Biso   1.000  O
  O32      1.0000 0.84660  0.67710  0.45290  Biso   1.000  O
  O33      1.0000 0.28120  0.13220  0.03830  Biso   1.000  O
  O34      1.0000 0.78120  0.63220  0.03830  Biso   1.000  O
  O35      1.0000 0.71880  0.13220  0.46170  Biso   1.000  O
  O36      1.0000 0.21880  0.63220  0.46170  Biso   1.000  O
  O37      1.0000 0.71880  0.86780  0.96170  Biso   1.000  O
  O38      1.0000 0.21880  0.36780  0.96170  Biso   1.000  O
  O39      1.0000 0.28120  0.86780  0.53830  Biso   1.000  O
  O40      1.0000 0.78120  0.36780  0.53830  Biso   1.000  O
  O41      1.0000 0.41600  0.13340  0.19680  Biso   1.000  O
  O42      1.0000 0.91600  0.63340  0.19680  Biso   1.000  O
  O43      1.0000 0.58400  0.13340  0.30320  Biso   1.000  O
  O44      1.0000 0.08400  0.63340  0.30320  Biso   1.000  O
  O45      1.0000 0.58400  0.86660  0.80320  Biso   1.000  O
  O46      1.0000 0.08400  0.36660  0.80320  Biso   1.000  O
  O47      1.0000 0.41600  0.86660  0.69680  Biso   1.000  O
  O48      1.0000 0.91600  0.36660  0.69680  Biso   1.000  O
  O49      1.0000 0.16300  0.14810  0.89140  Biso   1.000  O
  O50      1.0000 0.66300  0.64810  0.89140  Biso   1.000  O
  O51      1.0000 0.83700  0.14810  0.60860  Biso   1.000  O
  O52      1.0000 0.33700  0.64810  0.60860  Biso   1.000  O
  O53      1.0000 0.83700  0.85190  0.10860  Biso   1.000  O
  O54      1.0000 0.33700  0.35190  0.10860  Biso   1.000  O
  O55      1.0000 0.16300  0.85190  0.39140  Biso   1.000  O
  O56      1.0000 0.66300  0.35190  0.39140  Biso   1.000  O
  O57      1.0000 0.28330  0.06740  0.89290  Biso   1.000  O
  O58      1.0000 0.78330  0.56740  0.89290  Biso   1.000  O
  O59      1.0000 0.71670  0.06740  0.60710  Biso   1.000  O
  O60      1.0000 0.21670  0.56740  0.60710  Biso   1.000  O
  O61      1.0000 0.71670  0.93260  0.10710  Biso   1.000  O
  O62      1.0000 0.21670  0.43260  0.10710  Biso   1.000  O
  O63      1.0000 0.28330  0.93260  0.39290  Biso   1.000  O
  O64      1.0000 0.78330  0.43260  0.39290  Biso   1.000  O
  O65      1.0000 0.16410  0.19600  0.03120  Biso   1.000  O
  O66      1.0000 0.66410  0.69600  0.03120  Biso   1.000  O
  O67      1.0000 0.83590  0.19600  0.46880  Biso   1.000  O
  O68      1.0000 0.33590  0.69600  0.46880  Biso   1.000  O
  O69      1.0000 0.83590  0.80400  0.96880  Biso   1.000  O
  O70      1.0000 0.33590  0.30400  0.96880  Biso   1.000  O
  O71      1.0000 0.16410  0.80400  0.53120  Biso   1.000  O
  O72      1.0000 0.66410  0.30400  0.53120  Biso   1.000  O
  O73      1.0000 0.27670  0.20970  0.19230  Biso   1.000  O
  O74      1.0000 0.77670  0.70970  0.19230  Biso   1.000  O
  O75      1.0000 0.72330  0.20970  0.30770  Biso   1.000  O
  O76      1.0000 0.22330  0.70970  0.30770  Biso   1.000  O
  O77      1.0000 0.72330  0.79030  0.80770  Biso   1.000  O
  O78      1.0000 0.22330  0.29030  0.80770  Biso   1.000  O
  O79      1.0000 0.27670  0.79030  0.69230  Biso   1.000  O
  O80      1.0000 0.77670  0.29030  0.69230  Biso   1.000  O
  O81      1.0000 0.39620  0.06190  0.03740  Biso   1.000  O
  O82      1.0000 0.89620  0.56190  0.03740  Biso   1.000  O
  O83      1.0000 0.60380  0.06190  0.46260  Biso   1.000  O
  O84      1.0000 0.10380  0.56190  0.46260  Biso   1.000  O
  O85      1.0000 0.60380  0.93810  0.96260  Biso   1.000  O
  O86      1.0000 0.10380  0.43810  0.96260  Biso   1.000  O
  O87      1.0000 0.39620  0.93810  0.53740  Biso   1.000  O
  O88      1.0000 0.89620  0.43810  0.53740  Biso   1.000  O
  O89      1.0000 0.22780  0.90550  0.96300  Biso   1.000  O
  O90      1.0000 0.72780  0.40550  0.96300  Biso   1.000  O
  O91      1.0000 0.77220  0.90550  0.53700  Biso   1.000  O
  O92      1.0000 0.27220  0.40550  0.53700  Biso   1.000  O
  O93      1.0000 0.77220  0.09450  0.03700  Biso   1.000  O
  O94      1.0000 0.27220  0.59450  0.03700  Biso   1.000  O
  O95      1.0000 0.22780  0.09450  0.46300  Biso   1.000  O
  O96      1.0000 0.72780  0.59450  0.46300  Biso   1.000  O
  O97      1.0000 0.21200  0.95300  0.10520  Biso   1.000  O
  O98      1.0000 0.71200  0.45300  0.10520  Biso   1.000  O
  O99      1.0000 0.78800  0.95300  0.39480  Biso   1.000  O
  O100     1.0000 0.28800  0.45300  0.39480  Biso   1.000  O
  O101     1.0000 0.78800  0.04700  0.89480  Biso   1.000  O
  O102     1.0000 0.28800  0.54700  0.89480  Biso   1.000  O
  O103     1.0000 0.21200  0.04700  0.60520  Biso   1.000  O
  O104     1.0000 0.71200  0.54700  0.60520  Biso   1.000  O
