data_image0
_cell_length_a       14.9949
_cell_length_b       12.601
_cell_length_c       15.8868
_cell_angle_alpha    90
_cell_angle_beta     100.147
_cell_angle_gamma    90

_symmetry_space_group_name_H-M    "P 1"
_symmetry_int_tables_number       1

loop_
  _symmetry_equiv_pos_as_xyz
  'x, y, z'

loop_
  _atom_site_label
  _atom_site_occupancy
  _atom_site_fract_x
  _atom_site_fract_y
  _atom_site_fract_z
  _atom_site_thermal_displace_type
  _atom_site_B_iso_or_equiv
  _atom_site_type_symbol
  Mo1      1.0000 0.92529  0.39494  0.01634  Biso   1.000  Mo
  Mo2      1.0000 0.57471  0.89494  0.48366  Biso   1.000  Mo
  Mo3      1.0000 0.07471  0.60506  0.98366  Biso   1.000  Mo
  Mo4      1.0000 0.42529  0.10506  0.51634  Biso   1.000  Mo
  Mo5      1.0000 0.16533  0.35897  0.07028  Biso   1.000  Mo
  Mo6      1.0000 0.33467  0.85897  0.42972  Biso   1.000  Mo
  Mo7      1.0000 0.83467  0.64103  0.92972  Biso   1.000  Mo
  Mo8      1.0000 0.66533  0.14103  0.57028  Biso   1.000  Mo
  Mo9      1.0000 0.13119  0.39678  0.84346  Biso   1.000  Mo
  Mo10     1.0000 0.36881  0.89678  0.65654  Biso   1.000  Mo
  Mo11     1.0000 0.86881  0.60322  0.15654  Biso   1.000  Mo
  Mo12     1.0000 0.63119  0.10322  0.34346  Biso   1.000  Mo
  Mo13     1.0000 0.93409  0.52871  0.78622  Biso   1.000  Mo
  Mo14     1.0000 0.56591  0.02871  0.71378  Biso   1.000  Mo
  Mo15     1.0000 0.06591  0.47129  0.21378  Biso   1.000  Mo
  Mo16     1.0000 0.43409  0.97129  0.28622  Biso   1.000  Mo
  Cu1      1.0000 0.59683  0.51412  0.12765  Biso   1.000  Cu
  Cu2      1.0000 0.90317  0.01412  0.37235  Biso   1.000  Cu
  Cu3      1.0000 0.40317  0.48588  0.87235  Biso   1.000  Cu
  Cu4      1.0000 0.09683  0.98588  0.62765  Biso   1.000  Cu
  Cu5      1.0000 0.59161  0.59016  0.91362  Biso   1.000  Cu
  Cu6      1.0000 0.90839  0.09016  0.58638  Biso   1.000  Cu
  Cu7      1.0000 0.40839  0.40984  0.08638  Biso   1.000  Cu
  Cu8      1.0000 0.09161  0.90984  0.41362  Biso   1.000  Cu
  C1       1.0000 0.63180  0.30640  0.04460  Biso   1.000  C
  C2       1.0000 0.86820  0.80640  0.45540  Biso   1.000  C
  C3       1.0000 0.36820  0.69360  0.95540  Biso   1.000  C
  C4       1.0000 0.13180  0.19360  0.54460  Biso   1.000  C
  C5       1.0000 0.63110  0.75360  0.23360  Biso   1.000  C
  C6       1.0000 0.86890  0.25360  0.26640  Biso   1.000  C
  C7       1.0000 0.36890  0.24640  0.76640  Biso   1.000  C
  C8       1.0000 0.13110  0.74640  0.73360  Biso   1.000  C
  H1       1.0000 0.63160  0.68340  0.25720  Biso   1.000  H
  H2       1.0000 0.86840  0.18340  0.24280  Biso   1.000  H
  H3       1.0000 0.36840  0.31660  0.74280  Biso   1.000  H
  H4       1.0000 0.13160  0.81660  0.75720  Biso   1.000  H
  H5       1.0000 0.58240  0.79360  0.24980  Biso   1.000  H
  H6       1.0000 0.91760  0.29360  0.25020  Biso   1.000  H
  H7       1.0000 0.41760  0.20640  0.75020  Biso   1.000  H
  H8       1.0000 0.08240  0.70640  0.74980  Biso   1.000  H
  H9       1.0000 0.68770  0.78810  0.25500  Biso   1.000  H
  H10      1.0000 0.81230  0.28810  0.24500  Biso   1.000  H
  H11      1.0000 0.31230  0.21190  0.74500  Biso   1.000  H
  H12      1.0000 0.18770  0.71190  0.75500  Biso   1.000  H
  C9       1.0000 0.57170  0.46170  0.31140  Biso   1.000  C
  C10      1.0000 0.92830  0.96170  0.18860  Biso   1.000  C
  C11      1.0000 0.42830  0.53830  0.68860  Biso   1.000  C
  C12      1.0000 0.07170  0.03830  0.81140  Biso   1.000  C
  C13      1.0000 0.65150  0.51200  0.36460  Biso   1.000  C
  C14      1.0000 0.84850  0.01200  0.13540  Biso   1.000  C
  C15      1.0000 0.34850  0.48800  0.63540  Biso   1.000  C
  C16      1.0000 0.15150  0.98800  0.86460  Biso   1.000  C
  H13      1.0000 0.68810  0.54520  0.32830  Biso   1.000  H
  H14      1.0000 0.81190  0.04520  0.17170  Biso   1.000  H
  H15      1.0000 0.31190  0.45480  0.67170  Biso   1.000  H
  H16      1.0000 0.18810  0.95480  0.82830  Biso   1.000  H
  H17      1.0000 0.63160  0.56440  0.40110  Biso   1.000  H
  H18      1.0000 0.86840  0.06440  0.09890  Biso   1.000  H
  H19      1.0000 0.36840  0.43560  0.59890  Biso   1.000  H
  H20      1.0000 0.13160  0.93560  0.90110  Biso   1.000  H
  H21      1.0000 0.68650  0.45890  0.39910  Biso   1.000  H
  H22      1.0000 0.81350  0.95890  0.10090  Biso   1.000  H
  H23      1.0000 0.31350  0.54110  0.60090  Biso   1.000  H
  H24      1.0000 0.18650  0.04110  0.89910  Biso   1.000  H
  C17      1.0000 0.64070  0.24090  0.12190  Biso   1.000  C
  C18      1.0000 0.85930  0.74090  0.37810  Biso   1.000  C
  C19      1.0000 0.35930  0.75910  0.87810  Biso   1.000  C
  C20      1.0000 0.14070  0.25910  0.62190  Biso   1.000  C
  H25      1.0000 0.63000  0.28380  0.16900  Biso   1.000  H
  H26      1.0000 0.87000  0.78380  0.33100  Biso   1.000  H
  H27      1.0000 0.37000  0.71620  0.83100  Biso   1.000  H
  H28      1.0000 0.13000  0.21620  0.66900  Biso   1.000  H
  H29      1.0000 0.70070  0.21160  0.13440  Biso   1.000  H
  H30      1.0000 0.79930  0.71160  0.36560  Biso   1.000  H
  H31      1.0000 0.29930  0.78840  0.86560  Biso   1.000  H
  H32      1.0000 0.20070  0.28840  0.63440  Biso   1.000  H
  H33      1.0000 0.59720  0.18430  0.11280  Biso   1.000  H
  H34      1.0000 0.90280  0.68430  0.38720  Biso   1.000  H
  H35      1.0000 0.40280  0.81570  0.88720  Biso   1.000  H
  H36      1.0000 0.09720  0.31570  0.61280  Biso   1.000  H
  C21      1.0000 0.60010  0.86730  0.93110  Biso   1.000  C
  C22      1.0000 0.89990  0.36730  0.56890  Biso   1.000  C
  C23      1.0000 0.39990  0.13270  0.06890  Biso   1.000  C
  C24      1.0000 0.10010  0.63270  0.43110  Biso   1.000  C
  H37      1.0000 0.59380  0.82450  0.88040  Biso   1.000  H
  H38      1.0000 0.90620  0.32450  0.61960  Biso   1.000  H
  H39      1.0000 0.40620  0.17550  0.11960  Biso   1.000  H
  H40      1.0000 0.09380  0.67550  0.38040  Biso   1.000  H
  H41      1.0000 0.65400  0.90950  0.93570  Biso   1.000  H
  H42      1.0000 0.84600  0.40950  0.56430  Biso   1.000  H
  H43      1.0000 0.34600  0.09050  0.06430  Biso   1.000  H
  H44      1.0000 0.15400  0.59050  0.43570  Biso   1.000  H
  H45      1.0000 0.54840  0.91300  0.92780  Biso   1.000  H
  H46      1.0000 0.95160  0.41300  0.57220  Biso   1.000  H
  H47      1.0000 0.45160  0.08700  0.07220  Biso   1.000  H
  H48      1.0000 0.04840  0.58700  0.42780  Biso   1.000  H
  C25      1.0000 0.63000  0.35490  0.91160  Biso   1.000  C
  C26      1.0000 0.87000  0.85490  0.58840  Biso   1.000  C
  C27      1.0000 0.37000  0.64510  0.08840  Biso   1.000  C
  C28      1.0000 0.13000  0.14510  0.41160  Biso   1.000  C
  C29      1.0000 0.64120  0.34830  0.82130  Biso   1.000  C
  C30      1.0000 0.85880  0.84830  0.67870  Biso   1.000  C
  C31      1.0000 0.35880  0.65170  0.17870  Biso   1.000  C
  C32      1.0000 0.14120  0.15170  0.32130  Biso   1.000  C
  H49      1.0000 0.62860  0.41620  0.79450  Biso   1.000  H
  H50      1.0000 0.87140  0.91620  0.70550  Biso   1.000  H
  H51      1.0000 0.37140  0.58380  0.20550  Biso   1.000  H
  H52      1.0000 0.12860  0.08380  0.29450  Biso   1.000  H
  H53      1.0000 0.60000  0.29650  0.79220  Biso   1.000  H
  H54      1.0000 0.90000  0.79650  0.70780  Biso   1.000  H
  H55      1.0000 0.40000  0.70350  0.20780  Biso   1.000  H
  H56      1.0000 0.10000  0.20350  0.29220  Biso   1.000  H
  H57      1.0000 0.70220  0.32780  0.81850  Biso   1.000  H
  H58      1.0000 0.79780  0.82780  0.68150  Biso   1.000  H
  H59      1.0000 0.29780  0.67220  0.18150  Biso   1.000  H
  H60      1.0000 0.20220  0.17220  0.31850  Biso   1.000  H
  C33      1.0000 0.36620  0.30480  0.28830  Biso   1.000  C
  C34      1.0000 0.13380  0.80480  0.21170  Biso   1.000  C
  C35      1.0000 0.63380  0.69520  0.71170  Biso   1.000  C
  C36      1.0000 0.86620  0.19520  0.78830  Biso   1.000  C
  H61      1.0000 0.33340  0.28650  0.23270  Biso   1.000  H
  H62      1.0000 0.16660  0.78650  0.26730  Biso   1.000  H
  H63      1.0000 0.66660  0.71350  0.76730  Biso   1.000  H
  H64      1.0000 0.83340  0.21350  0.73270  Biso   1.000  H
  H65      1.0000 0.38570  0.24110  0.31940  Biso   1.000  H
  H66      1.0000 0.11430  0.74110  0.18060  Biso   1.000  H
  H67      1.0000 0.61430  0.75890  0.68060  Biso   1.000  H
  H68      1.0000 0.88570  0.25890  0.81940  Biso   1.000  H
  H69      1.0000 0.32770  0.34460  0.31890  Biso   1.000  H
  H70      1.0000 0.17230  0.84460  0.18110  Biso   1.000  H
  H71      1.0000 0.67230  0.65540  0.68110  Biso   1.000  H
  H72      1.0000 0.82770  0.15540  0.81890  Biso   1.000  H
  C37      1.0000 0.61850  0.74690  0.13990  Biso   1.000  C
  C38      1.0000 0.88150  0.24690  0.36010  Biso   1.000  C
  C39      1.0000 0.38150  0.25310  0.86010  Biso   1.000  C
  C40      1.0000 0.11850  0.75310  0.63990  Biso   1.000  C
  C41      1.0000 0.44710  0.37020  0.27890  Biso   1.000  C
  C42      1.0000 0.05290  0.87020  0.22110  Biso   1.000  C
  C43      1.0000 0.55290  0.62980  0.72110  Biso   1.000  C
  C44      1.0000 0.94710  0.12980  0.77890  Biso   1.000  C
  C45      1.0000 0.60640  0.79770  0.00710  Biso   1.000  C
  C46      1.0000 0.89360  0.29770  0.49290  Biso   1.000  C
  C47      1.0000 0.39360  0.20230  0.99290  Biso   1.000  C
  C48      1.0000 0.10640  0.70230  0.50710  Biso   1.000  C
  N1       1.0000 0.60180  0.69340  0.00790  Biso   1.000  N
  N2       1.0000 0.89820  0.19340  0.49210  Biso   1.000  N
  N3       1.0000 0.39820  0.30660  0.99210  Biso   1.000  N
  N4       1.0000 0.10180  0.80660  0.50790  Biso   1.000  N
  N5       1.0000 0.38060  0.05870  0.88940  Biso   1.000  N
  N6       1.0000 0.11940  0.55870  0.61060  Biso   1.000  N
  N7       1.0000 0.61940  0.94130  0.11060  Biso   1.000  N
  N8       1.0000 0.88060  0.44130  0.38940  Biso   1.000  N
  H73      1.0000 0.38490  0.01090  0.92850  Biso   1.000  H
  H74      1.0000 0.11510  0.51090  0.57150  Biso   1.000  H
  H75      1.0000 0.61510  0.98910  0.07150  Biso   1.000  H
  H76      1.0000 0.88490  0.48910  0.42850  Biso   1.000  H
  H77      1.0000 0.37430  0.04040  0.83650  Biso   1.000  H
  H78      1.0000 0.12570  0.54040  0.66350  Biso   1.000  H
  H79      1.0000 0.62570  0.95960  0.16350  Biso   1.000  H
  H80      1.0000 0.87430  0.45960  0.33650  Biso   1.000  H
  N9       1.0000 0.64310  0.27020  0.96700  Biso   1.000  N
  N10      1.0000 0.85690  0.77020  0.53300  Biso   1.000  N
  N11      1.0000 0.35690  0.72980  0.03300  Biso   1.000  N
  N12      1.0000 0.14310  0.22980  0.46700  Biso   1.000  N
  N13      1.0000 0.61610  0.83410  0.08830  Biso   1.000  N
  N14      1.0000 0.88390  0.33410  0.41170  Biso   1.000  N
  N15      1.0000 0.38390  0.16590  0.91170  Biso   1.000  N
  N16      1.0000 0.11610  0.66590  0.58830  Biso   1.000  N
  N17      1.0000 0.67160  0.16620  0.95330  Biso   1.000  N
  N18      1.0000 0.82840  0.66620  0.54670  Biso   1.000  N
  N19      1.0000 0.32840  0.83380  0.04670  Biso   1.000  N
  N20      1.0000 0.17160  0.33380  0.45330  Biso   1.000  N
  H81      1.0000 0.68270  0.12240  0.99530  Biso   1.000  H
  H82      1.0000 0.81730  0.62240  0.50470  Biso   1.000  H
  H83      1.0000 0.31730  0.87760  0.00470  Biso   1.000  H
  H84      1.0000 0.18270  0.37760  0.49530  Biso   1.000  H
  H85      1.0000 0.67780  0.14650  0.90280  Biso   1.000  H
  H86      1.0000 0.82220  0.64650  0.59720  Biso   1.000  H
  H87      1.0000 0.32220  0.85350  0.09720  Biso   1.000  H
  H88      1.0000 0.17780  0.35350  0.40280  Biso   1.000  H
  N21      1.0000 0.55170  0.45740  0.22790  Biso   1.000  N
  N22      1.0000 0.94830  0.95740  0.27210  Biso   1.000  N
  N23      1.0000 0.44830  0.54260  0.77210  Biso   1.000  N
  N24      1.0000 0.05170  0.04260  0.72790  Biso   1.000  N
  N25      1.0000 0.61200  0.40770  0.03770  Biso   1.000  N
  N26      1.0000 0.88800  0.90770  0.46230  Biso   1.000  N
  N27      1.0000 0.38800  0.59230  0.96230  Biso   1.000  N
  N28      1.0000 0.11200  0.09230  0.53770  Biso   1.000  N
  N29      1.0000 0.61090  0.43820  0.95300  Biso   1.000  N
  N30      1.0000 0.88910  0.93820  0.54700  Biso   1.000  N
  N31      1.0000 0.38910  0.56180  0.04700  Biso   1.000  N
  N32      1.0000 0.11090  0.06180  0.45300  Biso   1.000  N
  N33      1.0000 0.47170  0.39890  0.20710  Biso   1.000  N
  N34      1.0000 0.02830  0.89890  0.29290  Biso   1.000  N
  N35      1.0000 0.52830  0.60110  0.79290  Biso   1.000  N
  N36      1.0000 0.97170  0.10110  0.70710  Biso   1.000  N
  N37      1.0000 0.61060  0.66120  0.09340  Biso   1.000  N
  N38      1.0000 0.88940  0.16120  0.40660  Biso   1.000  N
  N39      1.0000 0.38940  0.33880  0.90660  Biso   1.000  N
  N40      1.0000 0.11060  0.83880  0.59340  Biso   1.000  N
  N41      1.0000 0.49320  0.59770  0.56690  Biso   1.000  N
  N42      1.0000 0.00680  0.09770  0.93310  Biso   1.000  N
  N43      1.0000 0.50680  0.40230  0.43310  Biso   1.000  N
  N44      1.0000 0.99320  0.90230  0.06690  Biso   1.000  N
  H89      1.0000 0.53690  0.62960  0.54890  Biso   1.000  H
  H90      1.0000 0.96310  0.12960  0.95110  Biso   1.000  H
  H91      1.0000 0.46310  0.37040  0.45110  Biso   1.000  H
  H92      1.0000 0.03690  0.87040  0.04890  Biso   1.000  H
  H93      1.0000 0.45000  0.56960  0.53100  Biso   1.000  H
  H94      1.0000 0.05000  0.06960  0.96900  Biso   1.000  H
  H95      1.0000 0.55000  0.43040  0.46900  Biso   1.000  H
  H96      1.0000 0.95000  0.93040  0.03100  Biso   1.000  H
  N45      1.0000 0.50770  0.40860  0.34500  Biso   1.000  N
  N46      1.0000 0.99230  0.90860  0.15500  Biso   1.000  N
  N47      1.0000 0.49230  0.59140  0.65500  Biso   1.000  N
  N48      1.0000 0.00770  0.09140  0.84500  Biso   1.000  N
  O1       1.0000 0.15810  0.26670  0.83780  Biso   1.000  O
  O2       1.0000 0.34190  0.76670  0.66220  Biso   1.000  O
  O3       1.0000 0.84190  0.73330  0.16220  Biso   1.000  O
  O4       1.0000 0.65810  0.23330  0.33780  Biso   1.000  O
  O5       1.0000 0.96120  0.58190  0.69540  Biso   1.000  O
  O6       1.0000 0.53880  0.08190  0.80460  Biso   1.000  O
  O7       1.0000 0.03880  0.41810  0.30460  Biso   1.000  O
  O8       1.0000 0.46120  0.91810  0.19540  Biso   1.000  O
  O9       1.0000 0.83410  0.31700  0.99130  Biso   1.000  O
  O10      1.0000 0.66590  0.81700  0.50870  Biso   1.000  O
  O11      1.0000 0.16590  0.68300  0.00870  Biso   1.000  O
  O12      1.0000 0.33410  0.18300  0.49130  Biso   1.000  O
  O13      1.0000 0.01730  0.31600  0.00340  Biso   1.000  O
  O14      1.0000 0.48270  0.81600  0.49660  Biso   1.000  O
  O15      1.0000 0.98270  0.68400  0.99660  Biso   1.000  O
  O16      1.0000 0.51730  0.18400  0.50340  Biso   1.000  O
  O17      1.0000 0.18960  0.23170  0.04850  Biso   1.000  O
  O18      1.0000 0.31040  0.73170  0.45150  Biso   1.000  O
  O19      1.0000 0.81040  0.76830  0.95150  Biso   1.000  O
  O20      1.0000 0.68960  0.26830  0.54850  Biso   1.000  O
  O21      1.0000 0.83460  0.46460  0.75190  Biso   1.000  O
  O22      1.0000 0.66540  0.96460  0.74810  Biso   1.000  O
  O23      1.0000 0.16540  0.53540  0.24810  Biso   1.000  O
  O24      1.0000 0.33460  0.03540  0.25190  Biso   1.000  O
  O25      1.0000 0.01070  0.40000  0.79520  Biso   1.000  O
  O26      1.0000 0.48930  0.90000  0.70480  Biso   1.000  O
  O27      1.0000 0.98930  0.60000  0.20480  Biso   1.000  O
  O28      1.0000 0.51070  0.10000  0.29520  Biso   1.000  O
  O29      1.0000 0.91980  0.49230  0.92860  Biso   1.000  O
  O30      1.0000 0.58020  0.99230  0.57140  Biso   1.000  O
  O31      1.0000 0.08020  0.50770  0.07140  Biso   1.000  O
  O32      1.0000 0.41980  0.00770  0.42860  Biso   1.000  O
  O33      1.0000 0.26520  0.41220  0.11870  Biso   1.000  O
  O34      1.0000 0.23480  0.91220  0.38130  Biso   1.000  O
  O35      1.0000 0.73480  0.58780  0.88130  Biso   1.000  O
  O36      1.0000 0.76520  0.08780  0.61870  Biso   1.000  O
  O37      1.0000 0.16470  0.42790  0.95850  Biso   1.000  O
  O38      1.0000 0.33530  0.92790  0.54150  Biso   1.000  O
  O39      1.0000 0.83530  0.57210  0.04150  Biso   1.000  O
  O40      1.0000 0.66470  0.07210  0.45850  Biso   1.000  O
  O41      1.0000 0.93690  0.42520  0.12970  Biso   1.000  O
  O42      1.0000 0.56310  0.92520  0.37030  Biso   1.000  O
  O43      1.0000 0.06310  0.57480  0.87030  Biso   1.000  O
  O44      1.0000 0.43690  0.07480  0.62970  Biso   1.000  O
  O45      1.0000 0.10920  0.34470  0.16770  Biso   1.000  O
  O46      1.0000 0.39080  0.84470  0.33230  Biso   1.000  O
  O47      1.0000 0.89080  0.65530  0.83230  Biso   1.000  O
  O48      1.0000 0.60920  0.15530  0.66770  Biso   1.000  O
  O49      1.0000 0.19620  0.46220  0.78290  Biso   1.000  O
  O50      1.0000 0.30380  0.96220  0.71710  Biso   1.000  O
  O51      1.0000 0.80380  0.53780  0.21710  Biso   1.000  O
  O52      1.0000 0.69620  0.03780  0.28290  Biso   1.000  O
  O53      1.0000 0.68000  0.48580  0.60490  Biso   1.000  O
  O54      1.0000 0.82000  0.98580  0.89510  Biso   1.000  O
  O55      1.0000 0.32000  0.51420  0.39510  Biso   1.000  O
  O56      1.0000 0.18000  0.01420  0.10490  Biso   1.000  O
