data_image0
_cell_length_a       13.3504
_cell_length_b       18.7993
_cell_length_c       21.6475
_cell_angle_alpha    90
_cell_angle_beta     90
_cell_angle_gamma    90

_symmetry_space_group_name_H-M    "P 1"
_symmetry_int_tables_number       1

loop_
  _symmetry_equiv_pos_as_xyz
  'x, y, z'

loop_
  _atom_site_label
  _atom_site_occupancy
  _atom_site_fract_x
  _atom_site_fract_y
  _atom_site_fract_z
  _atom_site_thermal_displace_type
  _atom_site_B_iso_or_equiv
  _atom_site_type_symbol
  Mo1      1.0000 0.09549  0.42998  0.00000  Biso   1.000  Mo
  Mo2      1.0000 0.59549  0.92998  0.50000  Biso   1.000  Mo
  Mo3      1.0000 0.90451  0.57002  0.00000  Biso   1.000  Mo
  Mo4      1.0000 0.40451  0.92998  0.00000  Biso   1.000  Mo
  Mo5      1.0000 0.59549  0.07002  0.00000  Biso   1.000  Mo
  Mo6      1.0000 0.40451  0.07002  0.50000  Biso   1.000  Mo
  Mo7      1.0000 0.90451  0.42998  0.50000  Biso   1.000  Mo
  Mo8      1.0000 0.09549  0.57002  0.50000  Biso   1.000  Mo
  Mo9      1.0000 0.92434  0.42465  0.10297  Biso   1.000  Mo
  Mo10     1.0000 0.42434  0.92465  0.60297  Biso   1.000  Mo
  Mo11     1.0000 0.07566  0.57535  0.10297  Biso   1.000  Mo
  Mo12     1.0000 0.57566  0.92465  0.89703  Biso   1.000  Mo
  Mo13     1.0000 0.42434  0.07535  0.89703  Biso   1.000  Mo
  Mo14     1.0000 0.57566  0.07535  0.60297  Biso   1.000  Mo
  Mo15     1.0000 0.07566  0.42465  0.39703  Biso   1.000  Mo
  Mo16     1.0000 0.92434  0.57535  0.39703  Biso   1.000  Mo
  Mo17     1.0000 0.07566  0.57535  0.89703  Biso   1.000  Mo
  Mo18     1.0000 0.57566  0.07535  0.39703  Biso   1.000  Mo
  Mo19     1.0000 0.92434  0.42465  0.89703  Biso   1.000  Mo
  Mo20     1.0000 0.42434  0.07535  0.10297  Biso   1.000  Mo
  Mo21     1.0000 0.57566  0.92465  0.10297  Biso   1.000  Mo
  Mo22     1.0000 0.42434  0.92465  0.39703  Biso   1.000  Mo
  Mo23     1.0000 0.92434  0.57535  0.60297  Biso   1.000  Mo
  Mo24     1.0000 0.07566  0.42465  0.60297  Biso   1.000  Mo
  Mo25     1.0000 0.74577  0.42035  0.00000  Biso   1.000  Mo
  Mo26     1.0000 0.24577  0.92035  0.50000  Biso   1.000  Mo
  Mo27     1.0000 0.25423  0.57965  0.00000  Biso   1.000  Mo
  Mo28     1.0000 0.75423  0.92035  0.00000  Biso   1.000  Mo
  Mo29     1.0000 0.24577  0.07965  0.00000  Biso   1.000  Mo
  Mo30     1.0000 0.75423  0.07965  0.50000  Biso   1.000  Mo
  Mo31     1.0000 0.25423  0.42035  0.50000  Biso   1.000  Mo
  Mo32     1.0000 0.74577  0.57965  0.50000  Biso   1.000  Mo
  Cu1      1.0000 0.00000  0.36656  0.75000  Biso   1.000  Cu
  Cu2      1.0000 0.50000  0.86656  0.25000  Biso   1.000  Cu
  Cu3      1.0000 0.00000  0.63344  0.75000  Biso   1.000  Cu
  Cu4      1.0000 0.50000  0.13344  0.25000  Biso   1.000  Cu
  Cu5      1.0000 0.00000  0.63344  0.25000  Biso   1.000  Cu
  Cu6      1.0000 0.50000  0.13344  0.75000  Biso   1.000  Cu
  Cu7      1.0000 0.00000  0.36656  0.25000  Biso   1.000  Cu
  Cu8      1.0000 0.50000  0.86656  0.75000  Biso   1.000  Cu
  Cu9      1.0000 0.17070  0.50000  0.75000  Biso   1.000  Cu
  Cu10     1.0000 0.67070  0.00000  0.25000  Biso   1.000  Cu
  Cu11     1.0000 0.82930  0.50000  0.75000  Biso   1.000  Cu
  Cu12     1.0000 0.32930  0.00000  0.25000  Biso   1.000  Cu
  Cu13     1.0000 0.82930  0.50000  0.25000  Biso   1.000  Cu
  Cu14     1.0000 0.32930  0.00000  0.75000  Biso   1.000  Cu
  Cu15     1.0000 0.17070  0.50000  0.25000  Biso   1.000  Cu
  Cu16     1.0000 0.67070  0.00000  0.75000  Biso   1.000  Cu
  C1       1.0000 0.10880  0.23880  0.84500  Biso   1.000  C
  C2       1.0000 0.60880  0.73880  0.34500  Biso   1.000  C
  C3       1.0000 0.89120  0.76120  0.84500  Biso   1.000  C
  C4       1.0000 0.39120  0.73880  0.15500  Biso   1.000  C
  C5       1.0000 0.60880  0.26120  0.15500  Biso   1.000  C
  C6       1.0000 0.39120  0.26120  0.34500  Biso   1.000  C
  C7       1.0000 0.89120  0.23880  0.65500  Biso   1.000  C
  C8       1.0000 0.10880  0.76120  0.65500  Biso   1.000  C
  C9       1.0000 0.89120  0.76120  0.15500  Biso   1.000  C
  C10      1.0000 0.39120  0.26120  0.65500  Biso   1.000  C
  C11      1.0000 0.10880  0.23880  0.15500  Biso   1.000  C
  C12      1.0000 0.60880  0.26120  0.84500  Biso   1.000  C
  C13      1.0000 0.39120  0.73880  0.84500  Biso   1.000  C
  C14      1.0000 0.60880  0.73880  0.65500  Biso   1.000  C
  C15      1.0000 0.10880  0.76120  0.34500  Biso   1.000  C
  C16      1.0000 0.89120  0.23880  0.34500  Biso   1.000  C
  H1       1.0000 0.10610  0.22910  0.88900  Biso   1.000  H
  H2       1.0000 0.60610  0.72910  0.38900  Biso   1.000  H
  H3       1.0000 0.89390  0.77090  0.88900  Biso   1.000  H
  H4       1.0000 0.39390  0.72910  0.11100  Biso   1.000  H
  H5       1.0000 0.60610  0.27090  0.11100  Biso   1.000  H
  H6       1.0000 0.39390  0.27090  0.38900  Biso   1.000  H
  H7       1.0000 0.89390  0.22910  0.61100  Biso   1.000  H
  H8       1.0000 0.10610  0.77090  0.61100  Biso   1.000  H
  H9       1.0000 0.89390  0.77090  0.11100  Biso   1.000  H
  H10      1.0000 0.39390  0.27090  0.61100  Biso   1.000  H
  H11      1.0000 0.10610  0.22910  0.11100  Biso   1.000  H
  H12      1.0000 0.60610  0.27090  0.88900  Biso   1.000  H
  H13      1.0000 0.39390  0.72910  0.88900  Biso   1.000  H
  H14      1.0000 0.60610  0.72910  0.61100  Biso   1.000  H
  H15      1.0000 0.10610  0.77090  0.38900  Biso   1.000  H
  H16      1.0000 0.89390  0.22910  0.38900  Biso   1.000  H
  H17      1.0000 0.04090  0.23810  0.82920  Biso   1.000  H
  H18      1.0000 0.54090  0.73810  0.32920  Biso   1.000  H
  H19      1.0000 0.95910  0.76190  0.82920  Biso   1.000  H
  H20      1.0000 0.45910  0.73810  0.17080  Biso   1.000  H
  H21      1.0000 0.54090  0.26190  0.17080  Biso   1.000  H
  H22      1.0000 0.45910  0.26190  0.32920  Biso   1.000  H
  H23      1.0000 0.95910  0.23810  0.67080  Biso   1.000  H
  H24      1.0000 0.04090  0.76190  0.67080  Biso   1.000  H
  H25      1.0000 0.95910  0.76190  0.17080  Biso   1.000  H
  H26      1.0000 0.45910  0.26190  0.67080  Biso   1.000  H
  H27      1.0000 0.04090  0.23810  0.17080  Biso   1.000  H
  H28      1.0000 0.54090  0.26190  0.82920  Biso   1.000  H
  H29      1.0000 0.45910  0.73810  0.82920  Biso   1.000  H
  H30      1.0000 0.54090  0.73810  0.67080  Biso   1.000  H
  H31      1.0000 0.04090  0.76190  0.32920  Biso   1.000  H
  H32      1.0000 0.95910  0.23810  0.32920  Biso   1.000  H
  C17      1.0000 0.25790  0.39960  0.83960  Biso   1.000  C
  C18      1.0000 0.75790  0.89960  0.33960  Biso   1.000  C
  C19      1.0000 0.74210  0.60040  0.83960  Biso   1.000  C
  C20      1.0000 0.24210  0.89960  0.16040  Biso   1.000  C
  C21      1.0000 0.75790  0.10040  0.16040  Biso   1.000  C
  C22      1.0000 0.24210  0.10040  0.33960  Biso   1.000  C
  C23      1.0000 0.74210  0.39960  0.66040  Biso   1.000  C
  C24      1.0000 0.25790  0.60040  0.66040  Biso   1.000  C
  C25      1.0000 0.74210  0.60040  0.16040  Biso   1.000  C
  C26      1.0000 0.24210  0.10040  0.66040  Biso   1.000  C
  C27      1.0000 0.25790  0.39960  0.16040  Biso   1.000  C
  C28      1.0000 0.75790  0.10040  0.83960  Biso   1.000  C
  C29      1.0000 0.24210  0.89960  0.83960  Biso   1.000  C
  C30      1.0000 0.75790  0.89960  0.66040  Biso   1.000  C
  C31      1.0000 0.25790  0.60040  0.33960  Biso   1.000  C
  C32      1.0000 0.74210  0.39960  0.33960  Biso   1.000  C
  C33      1.0000 0.15350  0.31020  0.83460  Biso   1.000  C
  C34      1.0000 0.65350  0.81020  0.33460  Biso   1.000  C
  C35      1.0000 0.84650  0.68980  0.83460  Biso   1.000  C
  C36      1.0000 0.34650  0.81020  0.16540  Biso   1.000  C
  C37      1.0000 0.65350  0.18980  0.16540  Biso   1.000  C
  C38      1.0000 0.34650  0.18980  0.33460  Biso   1.000  C
  C39      1.0000 0.84650  0.31020  0.66540  Biso   1.000  C
  C40      1.0000 0.15350  0.68980  0.66540  Biso   1.000  C
  C41      1.0000 0.84650  0.68980  0.16540  Biso   1.000  C
  C42      1.0000 0.34650  0.18980  0.66540  Biso   1.000  C
  C43      1.0000 0.15350  0.31020  0.16540  Biso   1.000  C
  C44      1.0000 0.65350  0.18980  0.83460  Biso   1.000  C
  C45      1.0000 0.34650  0.81020  0.83460  Biso   1.000  C
  C46      1.0000 0.65350  0.81020  0.66540  Biso   1.000  C
  C47      1.0000 0.15350  0.68980  0.33460  Biso   1.000  C
  C48      1.0000 0.84650  0.31020  0.33460  Biso   1.000  C
  C49      1.0000 0.44270  0.41000  0.84180  Biso   1.000  C
  C50      1.0000 0.94270  0.91000  0.34180  Biso   1.000  C
  C51      1.0000 0.55730  0.59000  0.84180  Biso   1.000  C
  C52      1.0000 0.05730  0.91000  0.15820  Biso   1.000  C
  C53      1.0000 0.94270  0.09000  0.15820  Biso   1.000  C
  C54      1.0000 0.05730  0.09000  0.34180  Biso   1.000  C
  C55      1.0000 0.55730  0.41000  0.65820  Biso   1.000  C
  C56      1.0000 0.44270  0.59000  0.65820  Biso   1.000  C
  C57      1.0000 0.55730  0.59000  0.15820  Biso   1.000  C
  C58      1.0000 0.05730  0.09000  0.65820  Biso   1.000  C
  C59      1.0000 0.44270  0.41000  0.15820  Biso   1.000  C
  C60      1.0000 0.94270  0.09000  0.84180  Biso   1.000  C
  C61      1.0000 0.05730  0.91000  0.84180  Biso   1.000  C
  C62      1.0000 0.94270  0.91000  0.65820  Biso   1.000  C
  C63      1.0000 0.44270  0.59000  0.34180  Biso   1.000  C
  C64      1.0000 0.55730  0.41000  0.34180  Biso   1.000  C
  H33      1.0000 0.49650  0.44020  0.85510  Biso   1.000  H
  H34      1.0000 0.99650  0.94020  0.35510  Biso   1.000  H
  H35      1.0000 0.50350  0.55980  0.85510  Biso   1.000  H
  H36      1.0000 0.00350  0.94020  0.14490  Biso   1.000  H
  H37      1.0000 0.99650  0.05980  0.14490  Biso   1.000  H
  H38      1.0000 0.00350  0.05980  0.35510  Biso   1.000  H
  H39      1.0000 0.50350  0.44020  0.64490  Biso   1.000  H
  H40      1.0000 0.49650  0.55980  0.64490  Biso   1.000  H
  H41      1.0000 0.50350  0.55980  0.14490  Biso   1.000  H
  H42      1.0000 0.00350  0.05980  0.64490  Biso   1.000  H
  H43      1.0000 0.49650  0.44020  0.14490  Biso   1.000  H
  H44      1.0000 0.99650  0.05980  0.85510  Biso   1.000  H
  H45      1.0000 0.00350  0.94020  0.85510  Biso   1.000  H
  H46      1.0000 0.99650  0.94020  0.64490  Biso   1.000  H
  H47      1.0000 0.49650  0.55980  0.35510  Biso   1.000  H
  H48      1.0000 0.50350  0.44020  0.35510  Biso   1.000  H
  H49      1.0000 0.44840  0.36450  0.86160  Biso   1.000  H
  H50      1.0000 0.94840  0.86450  0.36160  Biso   1.000  H
  H51      1.0000 0.55160  0.63550  0.86160  Biso   1.000  H
  H52      1.0000 0.05160  0.86450  0.13840  Biso   1.000  H
  H53      1.0000 0.94840  0.13550  0.13840  Biso   1.000  H
  H54      1.0000 0.05160  0.13550  0.36160  Biso   1.000  H
  H55      1.0000 0.55160  0.36450  0.63840  Biso   1.000  H
  H56      1.0000 0.44840  0.63550  0.63840  Biso   1.000  H
  H57      1.0000 0.55160  0.63550  0.13840  Biso   1.000  H
  H58      1.0000 0.05160  0.13550  0.63840  Biso   1.000  H
  H59      1.0000 0.44840  0.36450  0.13840  Biso   1.000  H
  H60      1.0000 0.94840  0.13550  0.86160  Biso   1.000  H
  H61      1.0000 0.05160  0.86450  0.86160  Biso   1.000  H
  H62      1.0000 0.94840  0.86450  0.63840  Biso   1.000  H
  H63      1.0000 0.44840  0.63550  0.36160  Biso   1.000  H
  H64      1.0000 0.55160  0.36450  0.36160  Biso   1.000  H
  H65      1.0000 0.44600  0.40400  0.79780  Biso   1.000  H
  H66      1.0000 0.94600  0.90400  0.29780  Biso   1.000  H
  H67      1.0000 0.55400  0.59600  0.79780  Biso   1.000  H
  H68      1.0000 0.05400  0.90400  0.20220  Biso   1.000  H
  H69      1.0000 0.94600  0.09600  0.20220  Biso   1.000  H
  H70      1.0000 0.05400  0.09600  0.29780  Biso   1.000  H
  H71      1.0000 0.55400  0.40400  0.70220  Biso   1.000  H
  H72      1.0000 0.44600  0.59600  0.70220  Biso   1.000  H
  H73      1.0000 0.55400  0.59600  0.20220  Biso   1.000  H
  H74      1.0000 0.05400  0.09600  0.70220  Biso   1.000  H
  H75      1.0000 0.44600  0.40400  0.20220  Biso   1.000  H
  H76      1.0000 0.94600  0.09600  0.79780  Biso   1.000  H
  H77      1.0000 0.05400  0.90400  0.79780  Biso   1.000  H
  H78      1.0000 0.94600  0.90400  0.70220  Biso   1.000  H
  H79      1.0000 0.44600  0.59600  0.29780  Biso   1.000  H
  H80      1.0000 0.55400  0.40400  0.29780  Biso   1.000  H
  C65      1.0000 0.17030  0.18170  0.81310  Biso   1.000  C
  C66      1.0000 0.67030  0.68170  0.31310  Biso   1.000  C
  C67      1.0000 0.82970  0.81830  0.81310  Biso   1.000  C
  C68      1.0000 0.32970  0.68170  0.18690  Biso   1.000  C
  C69      1.0000 0.67030  0.31830  0.18690  Biso   1.000  C
  C70      1.0000 0.32970  0.31830  0.31310  Biso   1.000  C
  C71      1.0000 0.82970  0.18170  0.68690  Biso   1.000  C
  C72      1.0000 0.17030  0.81830  0.68690  Biso   1.000  C
  C73      1.0000 0.82970  0.81830  0.18690  Biso   1.000  C
  C74      1.0000 0.32970  0.31830  0.68690  Biso   1.000  C
  C75      1.0000 0.17030  0.18170  0.18690  Biso   1.000  C
  C76      1.0000 0.67030  0.31830  0.81310  Biso   1.000  C
  C77      1.0000 0.32970  0.68170  0.81310  Biso   1.000  C
  C78      1.0000 0.67030  0.68170  0.68690  Biso   1.000  C
  C79      1.0000 0.17030  0.81830  0.31310  Biso   1.000  C
  C80      1.0000 0.82970  0.18170  0.31310  Biso   1.000  C
  H81      1.0000 0.14090  0.13600  0.82070  Biso   1.000  H
  H82      1.0000 0.64090  0.63600  0.32070  Biso   1.000  H
  H83      1.0000 0.85910  0.86400  0.82070  Biso   1.000  H
  H84      1.0000 0.35910  0.63600  0.17930  Biso   1.000  H
  H85      1.0000 0.64090  0.36400  0.17930  Biso   1.000  H
  H86      1.0000 0.35910  0.36400  0.32070  Biso   1.000  H
  H87      1.0000 0.85910  0.13600  0.67930  Biso   1.000  H
  H88      1.0000 0.14090  0.86400  0.67930  Biso   1.000  H
  H89      1.0000 0.85910  0.86400  0.17930  Biso   1.000  H
  H90      1.0000 0.35910  0.36400  0.67930  Biso   1.000  H
  H91      1.0000 0.14090  0.13600  0.17930  Biso   1.000  H
  H92      1.0000 0.64090  0.36400  0.82070  Biso   1.000  H
  H93      1.0000 0.35910  0.63600  0.82070  Biso   1.000  H
  H94      1.0000 0.64090  0.63600  0.67930  Biso   1.000  H
  H95      1.0000 0.14090  0.86400  0.32070  Biso   1.000  H
  H96      1.0000 0.85910  0.13600  0.32070  Biso   1.000  H
  H97      1.0000 0.17150  0.19070  0.76940  Biso   1.000  H
  H98      1.0000 0.67150  0.69070  0.26940  Biso   1.000  H
  H99      1.0000 0.82850  0.80930  0.76940  Biso   1.000  H
  H100     1.0000 0.32850  0.69070  0.23060  Biso   1.000  H
  H101     1.0000 0.67150  0.30930  0.23060  Biso   1.000  H
  H102     1.0000 0.32850  0.30930  0.26940  Biso   1.000  H
  H103     1.0000 0.82850  0.19070  0.73060  Biso   1.000  H
  H104     1.0000 0.17150  0.80930  0.73060  Biso   1.000  H
  H105     1.0000 0.82850  0.80930  0.23060  Biso   1.000  H
  H106     1.0000 0.32850  0.30930  0.73060  Biso   1.000  H
  H107     1.0000 0.17150  0.19070  0.23060  Biso   1.000  H
  H108     1.0000 0.67150  0.30930  0.76940  Biso   1.000  H
  H109     1.0000 0.32850  0.69070  0.76940  Biso   1.000  H
  H110     1.0000 0.67150  0.69070  0.73060  Biso   1.000  H
  H111     1.0000 0.17150  0.80930  0.26940  Biso   1.000  H
  H112     1.0000 0.82850  0.19070  0.26940  Biso   1.000  H
  H113     1.0000 0.23750  0.18240  0.82890  Biso   1.000  H
  H114     1.0000 0.73750  0.68240  0.32890  Biso   1.000  H
  H115     1.0000 0.76250  0.81760  0.82890  Biso   1.000  H
  H116     1.0000 0.26250  0.68240  0.17110  Biso   1.000  H
  H117     1.0000 0.73750  0.31760  0.17110  Biso   1.000  H
  H118     1.0000 0.26250  0.31760  0.32890  Biso   1.000  H
  H119     1.0000 0.76250  0.18240  0.67110  Biso   1.000  H
  H120     1.0000 0.23750  0.81760  0.67110  Biso   1.000  H
  H121     1.0000 0.76250  0.81760  0.17110  Biso   1.000  H
  H122     1.0000 0.26250  0.31760  0.67110  Biso   1.000  H
  H123     1.0000 0.23750  0.18240  0.17110  Biso   1.000  H
  H124     1.0000 0.73750  0.31760  0.82890  Biso   1.000  H
  H125     1.0000 0.26250  0.68240  0.82890  Biso   1.000  H
  H126     1.0000 0.73750  0.68240  0.67110  Biso   1.000  H
  H127     1.0000 0.23750  0.81760  0.32890  Biso   1.000  H
  H128     1.0000 0.76250  0.18240  0.32890  Biso   1.000  H
  C81      1.0000 0.34560  0.44300  0.85860  Biso   1.000  C
  C82      1.0000 0.84560  0.94300  0.35860  Biso   1.000  C
  C83      1.0000 0.65440  0.55700  0.85860  Biso   1.000  C
  C84      1.0000 0.15440  0.94300  0.14140  Biso   1.000  C
  C85      1.0000 0.84560  0.05700  0.14140  Biso   1.000  C
  C86      1.0000 0.15440  0.05700  0.35860  Biso   1.000  C
  C87      1.0000 0.65440  0.44300  0.64140  Biso   1.000  C
  C88      1.0000 0.34560  0.55700  0.64140  Biso   1.000  C
  C89      1.0000 0.65440  0.55700  0.14140  Biso   1.000  C
  C90      1.0000 0.15440  0.05700  0.64140  Biso   1.000  C
  C91      1.0000 0.34560  0.44300  0.14140  Biso   1.000  C
  C92      1.0000 0.84560  0.05700  0.85860  Biso   1.000  C
  C93      1.0000 0.15440  0.94300  0.85860  Biso   1.000  C
  C94      1.0000 0.84560  0.94300  0.64140  Biso   1.000  C
  C95      1.0000 0.34560  0.55700  0.35860  Biso   1.000  C
  C96      1.0000 0.65440  0.44300  0.35860  Biso   1.000  C
  H129     1.0000 0.34340  0.45000  0.90290  Biso   1.000  H
  H130     1.0000 0.84340  0.95000  0.40290  Biso   1.000  H
  H131     1.0000 0.65660  0.55000  0.90290  Biso   1.000  H
  H132     1.0000 0.15660  0.95000  0.09710  Biso   1.000  H
  H133     1.0000 0.84340  0.05000  0.09710  Biso   1.000  H
  H134     1.0000 0.15660  0.05000  0.40290  Biso   1.000  H
  H135     1.0000 0.65660  0.45000  0.59710  Biso   1.000  H
  H136     1.0000 0.34340  0.55000  0.59710  Biso   1.000  H
  H137     1.0000 0.65660  0.55000  0.09710  Biso   1.000  H
  H138     1.0000 0.15660  0.05000  0.59710  Biso   1.000  H
  H139     1.0000 0.34340  0.45000  0.09710  Biso   1.000  H
  H140     1.0000 0.84340  0.05000  0.90290  Biso   1.000  H
  H141     1.0000 0.15660  0.95000  0.90290  Biso   1.000  H
  H142     1.0000 0.84340  0.95000  0.59710  Biso   1.000  H
  H143     1.0000 0.34340  0.55000  0.40290  Biso   1.000  H
  H144     1.0000 0.65660  0.45000  0.40290  Biso   1.000  H
  H145     1.0000 0.34100  0.48940  0.83920  Biso   1.000  H
  H146     1.0000 0.84100  0.98940  0.33920  Biso   1.000  H
  H147     1.0000 0.65900  0.51060  0.83920  Biso   1.000  H
  H148     1.0000 0.15900  0.98940  0.16080  Biso   1.000  H
  H149     1.0000 0.84100  0.01060  0.16080  Biso   1.000  H
  H150     1.0000 0.15900  0.01060  0.33920  Biso   1.000  H
  H151     1.0000 0.65900  0.48940  0.66080  Biso   1.000  H
  H152     1.0000 0.34100  0.51060  0.66080  Biso   1.000  H
  H153     1.0000 0.65900  0.51060  0.16080  Biso   1.000  H
  H154     1.0000 0.15900  0.01060  0.66080  Biso   1.000  H
  H155     1.0000 0.34100  0.48940  0.16080  Biso   1.000  H
  H156     1.0000 0.84100  0.01060  0.83920  Biso   1.000  H
  H157     1.0000 0.15900  0.98940  0.83920  Biso   1.000  H
  H158     1.0000 0.84100  0.98940  0.66080  Biso   1.000  H
  H159     1.0000 0.34100  0.51060  0.33920  Biso   1.000  H
  H160     1.0000 0.65900  0.48940  0.33920  Biso   1.000  H
  N1       1.0000 0.12430  0.35750  0.79438  Biso   1.000  N
  N2       1.0000 0.62430  0.85750  0.29438  Biso   1.000  N
  N3       1.0000 0.87570  0.64250  0.79438  Biso   1.000  N
  N4       1.0000 0.37570  0.85750  0.20562  Biso   1.000  N
  N5       1.0000 0.62430  0.14250  0.20562  Biso   1.000  N
  N6       1.0000 0.37570  0.14250  0.29438  Biso   1.000  N
  N7       1.0000 0.87570  0.35750  0.70562  Biso   1.000  N
  N8       1.0000 0.12430  0.64250  0.70562  Biso   1.000  N
  N9       1.0000 0.87570  0.64250  0.20562  Biso   1.000  N
  N10      1.0000 0.37570  0.14250  0.70562  Biso   1.000  N
  N11      1.0000 0.12430  0.35750  0.20562  Biso   1.000  N
  N12      1.0000 0.62430  0.14250  0.79438  Biso   1.000  N
  N13      1.0000 0.37570  0.85750  0.79438  Biso   1.000  N
  N14      1.0000 0.62430  0.85750  0.70562  Biso   1.000  N
  N15      1.0000 0.12430  0.64250  0.29438  Biso   1.000  N
  N16      1.0000 0.87570  0.35750  0.29438  Biso   1.000  N
  N17      1.0000 0.19130  0.41440  0.79710  Biso   1.000  N
  N18      1.0000 0.69130  0.91440  0.29710  Biso   1.000  N
  N19      1.0000 0.80870  0.58560  0.79710  Biso   1.000  N
  N20      1.0000 0.30870  0.91440  0.20290  Biso   1.000  N
  N21      1.0000 0.69130  0.08560  0.20290  Biso   1.000  N
  N22      1.0000 0.30870  0.08560  0.29710  Biso   1.000  N
  N23      1.0000 0.80870  0.41440  0.70290  Biso   1.000  N
  N24      1.0000 0.19130  0.58560  0.70290  Biso   1.000  N
  N25      1.0000 0.80870  0.58560  0.20290  Biso   1.000  N
  N26      1.0000 0.30870  0.08560  0.70290  Biso   1.000  N
  N27      1.0000 0.19130  0.41440  0.20290  Biso   1.000  N
  N28      1.0000 0.69130  0.08560  0.79710  Biso   1.000  N
  N29      1.0000 0.30870  0.91440  0.79710  Biso   1.000  N
  N30      1.0000 0.69130  0.91440  0.70290  Biso   1.000  N
  N31      1.0000 0.19130  0.58560  0.29710  Biso   1.000  N
  N32      1.0000 0.80870  0.41440  0.29710  Biso   1.000  N
  N33      1.0000 0.71070  0.30180  0.58510  Biso   1.000  N
  N34      1.0000 0.21070  0.80180  0.08510  Biso   1.000  N
  N35      1.0000 0.28930  0.69820  0.58510  Biso   1.000  N
  N36      1.0000 0.78930  0.80180  0.41490  Biso   1.000  N
  N37      1.0000 0.21070  0.19820  0.41490  Biso   1.000  N
  N38      1.0000 0.78930  0.19820  0.08510  Biso   1.000  N
  N39      1.0000 0.28930  0.30180  0.91490  Biso   1.000  N
  N40      1.0000 0.71070  0.69820  0.91490  Biso   1.000  N
  N41      1.0000 0.28930  0.69820  0.41490  Biso   1.000  N
  N42      1.0000 0.78930  0.19820  0.91490  Biso   1.000  N
  N43      1.0000 0.71070  0.30180  0.41490  Biso   1.000  N
  N44      1.0000 0.21070  0.19820  0.58510  Biso   1.000  N
  N45      1.0000 0.78930  0.80180  0.58510  Biso   1.000  N
  N46      1.0000 0.21070  0.80180  0.91490  Biso   1.000  N
  N47      1.0000 0.71070  0.69820  0.08510  Biso   1.000  N
  N48      1.0000 0.28930  0.30180  0.08510  Biso   1.000  N
  H161     1.0000 0.66260  0.32400  0.56710  Biso   1.000  H
  H162     1.0000 0.16260  0.82400  0.06710  Biso   1.000  H
  H163     1.0000 0.33740  0.67600  0.56710  Biso   1.000  H
  H164     1.0000 0.83740  0.82400  0.43290  Biso   1.000  H
  H165     1.0000 0.16260  0.17600  0.43290  Biso   1.000  H
  H166     1.0000 0.83740  0.17600  0.06710  Biso   1.000  H
  H167     1.0000 0.33740  0.32400  0.93290  Biso   1.000  H
  H168     1.0000 0.66260  0.67600  0.93290  Biso   1.000  H
  H169     1.0000 0.33740  0.67600  0.43290  Biso   1.000  H
  H170     1.0000 0.83740  0.17600  0.93290  Biso   1.000  H
  H171     1.0000 0.66260  0.32400  0.43290  Biso   1.000  H
  H172     1.0000 0.16260  0.17600  0.56710  Biso   1.000  H
  H173     1.0000 0.83740  0.82400  0.56710  Biso   1.000  H
  H174     1.0000 0.16260  0.82400  0.93290  Biso   1.000  H
  H175     1.0000 0.66260  0.67600  0.06710  Biso   1.000  H
  H176     1.0000 0.33740  0.32400  0.06710  Biso   1.000  H
  H177     1.0000 0.72800  0.26010  0.57250  Biso   1.000  H
  H178     1.0000 0.22800  0.76010  0.07250  Biso   1.000  H
  H179     1.0000 0.27200  0.73990  0.57250  Biso   1.000  H
  H180     1.0000 0.77200  0.76010  0.42750  Biso   1.000  H
  H181     1.0000 0.22800  0.23990  0.42750  Biso   1.000  H
  H182     1.0000 0.77200  0.23990  0.07250  Biso   1.000  H
  H183     1.0000 0.27200  0.26010  0.92750  Biso   1.000  H
  H184     1.0000 0.72800  0.73990  0.92750  Biso   1.000  H
  H185     1.0000 0.27200  0.73990  0.42750  Biso   1.000  H
  H186     1.0000 0.77200  0.23990  0.92750  Biso   1.000  H
  H187     1.0000 0.72800  0.26010  0.42750  Biso   1.000  H
  H188     1.0000 0.22800  0.23990  0.57250  Biso   1.000  H
  H189     1.0000 0.77200  0.76010  0.57250  Biso   1.000  H
  H190     1.0000 0.22800  0.76010  0.92750  Biso   1.000  H
  H191     1.0000 0.72800  0.73990  0.07250  Biso   1.000  H
  H192     1.0000 0.27200  0.26010  0.07250  Biso   1.000  H
  N49      1.0000 0.23740  0.33430  0.86350  Biso   1.000  N
  N50      1.0000 0.73740  0.83430  0.36350  Biso   1.000  N
  N51      1.0000 0.76260  0.66570  0.86350  Biso   1.000  N
  N52      1.0000 0.26260  0.83430  0.13650  Biso   1.000  N
  N53      1.0000 0.73740  0.16570  0.13650  Biso   1.000  N
  N54      1.0000 0.26260  0.16570  0.36350  Biso   1.000  N
  N55      1.0000 0.76260  0.33430  0.63650  Biso   1.000  N
  N56      1.0000 0.23740  0.66570  0.63650  Biso   1.000  N
  N57      1.0000 0.76260  0.66570  0.13650  Biso   1.000  N
  N58      1.0000 0.26260  0.16570  0.63650  Biso   1.000  N
  N59      1.0000 0.23740  0.33430  0.13650  Biso   1.000  N
  N60      1.0000 0.73740  0.16570  0.86350  Biso   1.000  N
  N61      1.0000 0.26260  0.83430  0.86350  Biso   1.000  N
  N62      1.0000 0.73740  0.83430  0.63650  Biso   1.000  N
  N63      1.0000 0.23740  0.66570  0.36350  Biso   1.000  N
  N64      1.0000 0.76260  0.33430  0.36350  Biso   1.000  N
  O1       1.0000 0.62100  0.43910  0.00000  Biso   1.000  O
  O2       1.0000 0.12100  0.93910  0.50000  Biso   1.000  O
  O3       1.0000 0.37900  0.56090  0.00000  Biso   1.000  O
  O4       1.0000 0.87900  0.93910  0.00000  Biso   1.000  O
  O5       1.0000 0.12100  0.06090  0.00000  Biso   1.000  O
  O6       1.0000 0.87900  0.06090  0.50000  Biso   1.000  O
  O7       1.0000 0.37900  0.43910  0.50000  Biso   1.000  O
  O8       1.0000 0.62100  0.56090  0.50000  Biso   1.000  O
  O9       1.0000 0.75140  0.33030  0.00000  Biso   1.000  O
  O10      1.0000 0.25140  0.83030  0.50000  Biso   1.000  O
  O11      1.0000 0.24860  0.66970  0.00000  Biso   1.000  O
  O12      1.0000 0.74860  0.83030  0.00000  Biso   1.000  O
  O13      1.0000 0.25140  0.16970  0.00000  Biso   1.000  O
  O14      1.0000 0.74860  0.16970  0.50000  Biso   1.000  O
  O15      1.0000 0.24860  0.33030  0.50000  Biso   1.000  O
  O16      1.0000 0.75140  0.66970  0.50000  Biso   1.000  O
  O17      1.0000 0.93450  0.44210  0.00000  Biso   1.000  O
  O18      1.0000 0.43450  0.94210  0.50000  Biso   1.000  O
  O19      1.0000 0.06550  0.55790  0.00000  Biso   1.000  O
  O20      1.0000 0.56550  0.94210  0.00000  Biso   1.000  O
  O21      1.0000 0.43450  0.05790  0.00000  Biso   1.000  O
  O22      1.0000 0.56550  0.05790  0.50000  Biso   1.000  O
  O23      1.0000 0.06550  0.44210  0.50000  Biso   1.000  O
  O24      1.0000 0.93450  0.55790  0.50000  Biso   1.000  O
  O25      1.0000 0.78820  0.43760  0.08370  Biso   1.000  O
  O26      1.0000 0.28820  0.93760  0.58370  Biso   1.000  O
  O27      1.0000 0.21180  0.56240  0.08370  Biso   1.000  O
  O28      1.0000 0.71180  0.93760  0.91630  Biso   1.000  O
  O29      1.0000 0.28820  0.06240  0.91630  Biso   1.000  O
  O30      1.0000 0.71180  0.06240  0.58370  Biso   1.000  O
  O31      1.0000 0.21180  0.43760  0.41630  Biso   1.000  O
  O32      1.0000 0.78820  0.56240  0.41630  Biso   1.000  O
  O33      1.0000 0.21180  0.56240  0.91630  Biso   1.000  O
  O34      1.0000 0.71180  0.06240  0.41630  Biso   1.000  O
  O35      1.0000 0.78820  0.43760  0.91630  Biso   1.000  O
  O36      1.0000 0.28820  0.06240  0.08370  Biso   1.000  O
  O37      1.0000 0.71180  0.93760  0.08370  Biso   1.000  O
  O38      1.0000 0.28820  0.93760  0.41630  Biso   1.000  O
  O39      1.0000 0.78820  0.56240  0.58370  Biso   1.000  O
  O40      1.0000 0.21180  0.43760  0.58370  Biso   1.000  O
  O41      1.0000 0.92500  0.44470  0.18093  Biso   1.000  O
  O42      1.0000 0.42500  0.94470  0.68093  Biso   1.000  O
  O43      1.0000 0.07500  0.55530  0.18093  Biso   1.000  O
  O44      1.0000 0.57500  0.94470  0.81907  Biso   1.000  O
  O45      1.0000 0.42500  0.05530  0.81907  Biso   1.000  O
  O46      1.0000 0.57500  0.05530  0.68093  Biso   1.000  O
  O47      1.0000 0.07500  0.44470  0.31907  Biso   1.000  O
  O48      1.0000 0.92500  0.55530  0.31907  Biso   1.000  O
  O49      1.0000 0.07500  0.55530  0.81907  Biso   1.000  O
  O50      1.0000 0.57500  0.05530  0.31907  Biso   1.000  O
  O51      1.0000 0.92500  0.44470  0.81907  Biso   1.000  O
  O52      1.0000 0.42500  0.05530  0.18093  Biso   1.000  O
  O53      1.0000 0.57500  0.94470  0.18093  Biso   1.000  O
  O54      1.0000 0.42500  0.94470  0.31907  Biso   1.000  O
  O55      1.0000 0.92500  0.55530  0.68093  Biso   1.000  O
  O56      1.0000 0.07500  0.44470  0.68093  Biso   1.000  O
  O57      1.0000 0.21910  0.45980  0.00000  Biso   1.000  O
  O58      1.0000 0.71910  0.95980  0.50000  Biso   1.000  O
  O59      1.0000 0.78090  0.54020  0.00000  Biso   1.000  O
  O60      1.0000 0.28090  0.95980  0.00000  Biso   1.000  O
  O61      1.0000 0.71910  0.04020  0.00000  Biso   1.000  O
  O62      1.0000 0.28090  0.04020  0.50000  Biso   1.000  O
  O63      1.0000 0.78090  0.45980  0.50000  Biso   1.000  O
  O64      1.0000 0.21910  0.54020  0.50000  Biso   1.000  O
  O65      1.0000 0.06620  0.45000  0.08567  Biso   1.000  O
  O66      1.0000 0.56620  0.95000  0.58567  Biso   1.000  O
  O67      1.0000 0.93380  0.55000  0.08567  Biso   1.000  O
  O68      1.0000 0.43380  0.95000  0.91433  Biso   1.000  O
  O69      1.0000 0.56620  0.05000  0.91433  Biso   1.000  O
  O70      1.0000 0.43380  0.05000  0.58567  Biso   1.000  O
  O71      1.0000 0.93380  0.45000  0.41433  Biso   1.000  O
  O72      1.0000 0.06620  0.55000  0.41433  Biso   1.000  O
  O73      1.0000 0.93380  0.55000  0.91433  Biso   1.000  O
  O74      1.0000 0.43380  0.05000  0.41433  Biso   1.000  O
  O75      1.0000 0.06620  0.45000  0.91433  Biso   1.000  O
  O76      1.0000 0.56620  0.05000  0.08567  Biso   1.000  O
  O77      1.0000 0.43380  0.95000  0.08567  Biso   1.000  O
  O78      1.0000 0.56620  0.95000  0.41433  Biso   1.000  O
  O79      1.0000 0.06620  0.55000  0.58567  Biso   1.000  O
  O80      1.0000 0.93380  0.45000  0.58567  Biso   1.000  O
  O81      1.0000 0.10360  0.34010  0.00000  Biso   1.000  O
  O82      1.0000 0.60360  0.84010  0.50000  Biso   1.000  O
  O83      1.0000 0.89640  0.65990  0.00000  Biso   1.000  O
  O84      1.0000 0.39640  0.84010  0.00000  Biso   1.000  O
  O85      1.0000 0.60360  0.15990  0.00000  Biso   1.000  O
  O86      1.0000 0.39640  0.15990  0.50000  Biso   1.000  O
  O87      1.0000 0.89640  0.34010  0.50000  Biso   1.000  O
  O88      1.0000 0.10360  0.65990  0.50000  Biso   1.000  O
  O89      1.0000 0.93440  0.33480  0.10083  Biso   1.000  O
  O90      1.0000 0.43440  0.83480  0.60083  Biso   1.000  O
  O91      1.0000 0.06560  0.66520  0.10083  Biso   1.000  O
  O92      1.0000 0.56560  0.83480  0.89917  Biso   1.000  O
  O93      1.0000 0.43440  0.16520  0.89917  Biso   1.000  O
  O94      1.0000 0.56560  0.16520  0.60083  Biso   1.000  O
  O95      1.0000 0.06560  0.33480  0.39917  Biso   1.000  O
  O96      1.0000 0.93440  0.66520  0.39917  Biso   1.000  O
  O97      1.0000 0.06560  0.66520  0.89917  Biso   1.000  O
  O98      1.0000 0.56560  0.16520  0.39917  Biso   1.000  O
  O99      1.0000 0.93440  0.33480  0.89917  Biso   1.000  O
  O100     1.0000 0.43440  0.16520  0.10083  Biso   1.000  O
  O101     1.0000 0.56560  0.83480  0.10083  Biso   1.000  O
  O102     1.0000 0.43440  0.83480  0.39917  Biso   1.000  O
  O103     1.0000 0.93440  0.66520  0.60083  Biso   1.000  O
  O104     1.0000 0.06560  0.33480  0.60083  Biso   1.000  O
