data_image0
_cell_length_a       10.801
_cell_length_b       12.219
_cell_length_c       17.6311
_cell_angle_alpha    90.525
_cell_angle_beta     103.755
_cell_angle_gamma    115.838

_symmetry_space_group_name_H-M    "P 1"
_symmetry_int_tables_number       1

loop_
  _symmetry_equiv_pos_as_xyz
  'x, y, z'

loop_
  _atom_site_label
  _atom_site_occupancy
  _atom_site_fract_x
  _atom_site_fract_y
  _atom_site_fract_z
  _atom_site_thermal_displace_type
  _atom_site_B_iso_or_equiv
  _atom_site_type_symbol
  Mo1      1.0000 0.85451  0.81888  0.09265  Biso   1.000  Mo
  Mo2      1.0000 0.14549  0.18112  0.90735  Biso   1.000  Mo
  Mo3      1.0000 0.90870  0.90383  0.90742  Biso   1.000  Mo
  Mo4      1.0000 0.09130  0.09617  0.09258  Biso   1.000  Mo
  Mo5      1.0000 0.14050  0.84564  0.02846  Biso   1.000  Mo
  Mo6      1.0000 0.85950  0.15436  0.97154  Biso   1.000  Mo
  Mo7      1.0000 0.61589  0.87674  0.97338  Biso   1.000  Mo
  Mo8      1.0000 0.38411  0.12326  0.02662  Biso   1.000  Mo
  Mo9      1.0000 0.29560  0.63039  0.50371  Biso   1.000  Mo
  Mo10     1.0000 0.70440  0.36961  0.49629  Biso   1.000  Mo
  Mo11     1.0000 0.94682  0.40224  0.41038  Biso   1.000  Mo
  Mo12     1.0000 0.05318  0.59776  0.58962  Biso   1.000  Mo
  Mo13     1.0000 0.22310  0.34484  0.51435  Biso   1.000  Mo
  Mo14     1.0000 0.77690  0.65516  0.48565  Biso   1.000  Mo
  Mo15     1.0000 0.02162  0.68707  0.39774  Biso   1.000  Mo
  Mo16     1.0000 0.97838  0.31293  0.60226  Biso   1.000  Mo
  Cu1      1.0000 0.48431  0.71208  0.34339  Biso   1.000  Cu
  Cu2      1.0000 0.51569  0.28792  0.65661  Biso   1.000  Cu
  Cu3      1.0000 0.26674  0.76760  0.22766  Biso   1.000  Cu
  Cu4      1.0000 0.73326  0.23240  0.77234  Biso   1.000  Cu
  Cu5      1.0000 0.51924  0.81382  0.15930  Biso   1.000  Cu
  Cu6      1.0000 0.48076  0.18618  0.84070  Biso   1.000  Cu
  Cu7      1.0000 0.72023  0.72351  0.27229  Biso   1.000  Cu
  Cu8      1.0000 0.27977  0.27649  0.72771  Biso   1.000  Cu
  C1       1.0000 0.95880  0.47960  0.15830  Biso   1.000  C
  C2       1.0000 0.04120  0.52040  0.84170  Biso   1.000  C
  H1       1.0000 0.96150  0.55860  0.15270  Biso   1.000  H
  H2       1.0000 0.03850  0.44140  0.84730  Biso   1.000  H
  H3       1.0000 0.94070  0.43820  0.10730  Biso   1.000  H
  H4       1.0000 0.05930  0.56180  0.89270  Biso   1.000  H
  H5       1.0000 0.88420  0.43180  0.18200  Biso   1.000  H
  H6       1.0000 0.11580  0.56820  0.81800  Biso   1.000  H
  C3       1.0000 0.39200  0.55630  0.08130  Biso   1.000  C
  C4       1.0000 0.60800  0.44370  0.91870  Biso   1.000  C
  C5       1.0000 0.70870  0.96210  0.42040  Biso   1.000  C
  C6       1.0000 0.29130  0.03790  0.57960  Biso   1.000  C
  C7       1.0000 0.01780  0.01470  0.35040  Biso   1.000  C
  C8       1.0000 0.98220  0.98530  0.64960  Biso   1.000  C
  H7       1.0000 0.01330  0.95320  0.31410  Biso   1.000  H
  H8       1.0000 0.98670  0.04680  0.68590  Biso   1.000  H
  H9       1.0000 0.03690  0.08880  0.32670  Biso   1.000  H
  H10      1.0000 0.96310  0.91120  0.67330  Biso   1.000  H
  H11      1.0000 0.09280  0.03060  0.39740  Biso   1.000  H
  H12      1.0000 0.90720  0.96940  0.60260  Biso   1.000  H
  C9       1.0000 0.32940  0.06510  0.30580  Biso   1.000  C
  C10      1.0000 0.67060  0.93490  0.69420  Biso   1.000  C
  H13      1.0000 0.24450  0.98980  0.30140  Biso   1.000  H
  H14      1.0000 0.75550  0.01020  0.69860  Biso   1.000  H
  H15      1.0000 0.37330  0.09880  0.36020  Biso   1.000  H
  H16      1.0000 0.62670  0.90120  0.63980  Biso   1.000  H
  H17      1.0000 0.30480  0.12240  0.27710  Biso   1.000  H
  H18      1.0000 0.69520  0.87760  0.72290  Biso   1.000  H
  C11      1.0000 0.26570  0.45380  0.27730  Biso   1.000  C
  C12      1.0000 0.73430  0.54620  0.72270  Biso   1.000  C
  C13      1.0000 0.75850  0.12340  0.21630  Biso   1.000  C
  C14      1.0000 0.24150  0.87660  0.78370  Biso   1.000  C
  H19      1.0000 0.77240  0.06210  0.19010  Biso   1.000  H
  H20      1.0000 0.22760  0.93790  0.80990  Biso   1.000  H
  H21      1.0000 0.76290  0.18610  0.18320  Biso   1.000  H
  H22      1.0000 0.23710  0.81390  0.81680  Biso   1.000  H
  H23      1.0000 0.83190  0.15890  0.26490  Biso   1.000  H
  H24      1.0000 0.16810  0.84110  0.73510  Biso   1.000  H
  C15      1.0000 0.42960  0.04090  0.27320  Biso   1.000  C
  C16      1.0000 0.57040  0.95910  0.72680  Biso   1.000  C
  C17      1.0000 0.09740  0.49500  0.20860  Biso   1.000  C
  C18      1.0000 0.90260  0.50500  0.79140  Biso   1.000  C
  C19      1.0000 0.53420  0.49680  0.16020  Biso   1.000  C
  C20      1.0000 0.46580  0.50320  0.83980  Biso   1.000  C
  C21      1.0000 0.27610  0.55510  0.01750  Biso   1.000  C
  C22      1.0000 0.72390  0.44490  0.98250  Biso   1.000  C
  H25      1.0000 0.27740  0.63420  0.02020  Biso   1.000  H
  H26      1.0000 0.72260  0.36580  0.97980  Biso   1.000  H
  H27      1.0000 0.28870  0.53650  0.96770  Biso   1.000  H
  H28      1.0000 0.71130  0.46350  0.03230  Biso   1.000  H
  H29      1.0000 0.18610  0.49400  0.02280  Biso   1.000  H
  H30      1.0000 0.81390  0.50600  0.97720  Biso   1.000  H
  C23      1.0000 0.87990  0.97100  0.37040  Biso   1.000  C
  C24      1.0000 0.12010  0.02900  0.62960  Biso   1.000  C
  C25      1.0000 0.61710  0.06630  0.23280  Biso   1.000  C
  C26      1.0000 0.38290  0.93370  0.76720  Biso   1.000  C
  C27      1.0000 0.59960  0.42110  0.19920  Biso   1.000  C
  C28      1.0000 0.40040  0.57890  0.80080  Biso   1.000  C
  H31      1.0000 0.55300  0.34060  0.17000  Biso   1.000  H
  H32      1.0000 0.44700  0.65940  0.83000  Biso   1.000  H
  H33      1.0000 0.69920  0.45830  0.20110  Biso   1.000  H
  H34      1.0000 0.30080  0.54170  0.79890  Biso   1.000  H
  H35      1.0000 0.58900  0.41500  0.25170  Biso   1.000  H
  H36      1.0000 0.41100  0.58500  0.74830  Biso   1.000  H
  C29      1.0000 0.34220  0.38300  0.31090  Biso   1.000  C
  C30      1.0000 0.65780  0.61700  0.68910  Biso   1.000  C
  H37      1.0000 0.43540  0.43810  0.34330  Biso   1.000  H
  H38      1.0000 0.56460  0.56190  0.65670  Biso   1.000  H
  H39      1.0000 0.28960  0.32630  0.34230  Biso   1.000  H
  H40      1.0000 0.71040  0.67370  0.65770  Biso   1.000  H
  H41      1.0000 0.35130  0.33860  0.26910  Biso   1.000  H
  H42      1.0000 0.64870  0.66140  0.73090  Biso   1.000  H
  C31      1.0000 0.62890  0.99640  0.46510  Biso   1.000  C
  C32      1.0000 0.37110  0.00360  0.53490  Biso   1.000  C
  H43      1.0000 0.69010  0.07580  0.49500  Biso   1.000  H
  H44      1.0000 0.30990  0.92420  0.50500  Biso   1.000  H
  H45      1.0000 0.54820  0.99890  0.42920  Biso   1.000  H
  H46      1.0000 0.45180  0.00110  0.57080  Biso   1.000  H
  H47      1.0000 0.59640  0.93700  0.50010  Biso   1.000  H
  H48      1.0000 0.40360  0.06300  0.49990  Biso   1.000  H
  N1       1.0000 0.76800  0.86670  0.34157  Biso   1.000  N
  N2       1.0000 0.23200  0.13330  0.65843  Biso   1.000  N
  N3       1.0000 0.52530  0.94990  0.21563  Biso   1.000  N
  N4       1.0000 0.47470  0.05010  0.78437  Biso   1.000  N
  N5       1.0000 0.31460  0.57320  0.28549  Biso   1.000  N
  N6       1.0000 0.68540  0.42680  0.71451  Biso   1.000  N
  N7       1.0000 0.40660  0.93370  0.24148  Biso   1.000  N
  N8       1.0000 0.59340  0.06630  0.75852  Biso   1.000  N
  N9       1.0000 0.56080  0.12480  0.26903  Biso   1.000  N
  N10      1.0000 0.43920  0.87520  0.73097  Biso   1.000  N
  H49      1.0000 0.60120  0.20170  0.28640  Biso   1.000  H
  H50      1.0000 0.39880  0.79830  0.71360  Biso   1.000  H
  N11      1.0000 0.48380  0.64860  0.13605  Biso   1.000  N
  N12      1.0000 0.51620  0.35140  0.86395  Biso   1.000  N
  N13      1.0000 0.57320  0.61050  0.18519  Biso   1.000  N
  N14      1.0000 0.42680  0.38950  0.81481  Biso   1.000  N
  N15      1.0000 0.20740  0.59960  0.24162  Biso   1.000  N
  N16      1.0000 0.79260  0.40040  0.75838  Biso   1.000  N
  N17      1.0000 0.13140  0.40310  0.22900  Biso   1.000  N
  N18      1.0000 0.86860  0.59690  0.77100  Biso   1.000  N
  H51      1.0000 0.07730  0.32610  0.21390  Biso   1.000  H
  H52      1.0000 0.92270  0.67390  0.78610  Biso   1.000  H
  N19      1.0000 0.65930  0.86050  0.37326  Biso   1.000  N
  N20      1.0000 0.34070  0.13950  0.62674  Biso   1.000  N
  N21      1.0000 0.84650  0.03280  0.41990  Biso   1.000  N
  N22      1.0000 0.15350  0.96720  0.58010  Biso   1.000  N
  H53      1.0000 0.90240  0.10400  0.44630  Biso   1.000  H
  H54      1.0000 0.09760  0.89600  0.55370  Biso   1.000  H
  N23      1.0000 0.42130  0.46010  0.09540  Biso   1.000  N
  N24      1.0000 0.57870  0.53990  0.90460  Biso   1.000  N
  H55      1.0000 0.37650  0.38870  0.06810  Biso   1.000  H
  H56      1.0000 0.62350  0.61130  0.93190  Biso   1.000  H
  O1       1.0000 0.67490  0.75430  0.01451  Biso   1.000  O
  O2       1.0000 0.32510  0.24570  0.98549  Biso   1.000  O
  O3       1.0000 0.93130  0.79530  0.98414  Biso   1.000  O
  O4       1.0000 0.06870  0.20470  0.01586  Biso   1.000  O
  O5       1.0000 0.87840  0.98610  0.02109  Biso   1.000  O
  O6       1.0000 0.12160  0.01390  0.97891  Biso   1.000  O
  O7       1.0000 0.06220  0.93360  0.11718  Biso   1.000  O
  O8       1.0000 0.93780  0.06640  0.88282  Biso   1.000  O
  O9       1.0000 0.81550  0.87540  0.16787  Biso   1.000  O
  O10      1.0000 0.18450  0.12460  0.83213  Biso   1.000  O
  O11      1.0000 0.85580  0.68700  0.11959  Biso   1.000  O
  O12      1.0000 0.14420  0.31300  0.88041  Biso   1.000  O
  O13      1.0000 0.94540  0.84880  0.83080  Biso   1.000  O
  O14      1.0000 0.05460  0.15120  0.16920  Biso   1.000  O
  O15      1.0000 0.72240  0.83700  0.88327  Biso   1.000  O
  O16      1.0000 0.27760  0.16300  0.11673  Biso   1.000  O
  O17      1.0000 0.13940  0.74340  0.09485  Biso   1.000  O
  O18      1.0000 0.86060  0.25660  0.90515  Biso   1.000  O
  O19      1.0000 0.16170  0.78830  0.94753  Biso   1.000  O
  O20      1.0000 0.83830  0.21170  0.05247  Biso   1.000  O
  O21      1.0000 0.32440  0.97620  0.07338  Biso   1.000  O
  O22      1.0000 0.67560  0.02380  0.92662  Biso   1.000  O
  O23      1.0000 0.58760  0.91980  0.05776  Biso   1.000  O
  O24      1.0000 0.41240  0.08020  0.94224  Biso   1.000  O
  O25      1.0000 0.45010  0.78860  0.91389  Biso   1.000  O
  O26      1.0000 0.54990  0.21140  0.08611  Biso   1.000  O
  O27      1.0000 0.08590  0.55900  0.39282  Biso   1.000  O
  O28      1.0000 0.91410  0.44100  0.60718  Biso   1.000  O
  O29      1.0000 0.31130  0.49120  0.46869  Biso   1.000  O
  O30      1.0000 0.68870  0.50880  0.53131  Biso   1.000  O
  O31      1.0000 0.11040  0.47230  0.53593  Biso   1.000  O
  O32      1.0000 0.88960  0.52770  0.46407  Biso   1.000  O
  O33      1.0000 0.16590  0.69900  0.52251  Biso   1.000  O
  O34      1.0000 0.83410  0.30100  0.47749  Biso   1.000  O
  O35      1.0000 0.40790  0.67670  0.59592  Biso   1.000  O
  O36      1.0000 0.59210  0.32330  0.40408  Biso   1.000  O
  O37      1.0000 0.38220  0.73200  0.44569  Biso   1.000  O
  O38      1.0000 0.61780  0.26800  0.55431  Biso   1.000  O
  O39      1.0000 0.81820  0.35970  0.32382  Biso   1.000  O
  O40      1.0000 0.18180  0.64030  0.67618  Biso   1.000  O
  O41      1.0000 0.04050  0.31820  0.40313  Biso   1.000  O
  O42      1.0000 0.95950  0.68180  0.59687  Biso   1.000  O
  O43      1.0000 0.95190  0.76500  0.45957  Biso   1.000  O
  O44      1.0000 0.04810  0.23500  0.54043  Biso   1.000  O
  O45      1.0000 0.33670  0.38600  0.60709  Biso   1.000  O
  O46      1.0000 0.66330  0.61400  0.39291  Biso   1.000  O
  O47      1.0000 0.26050  0.24400  0.46972  Biso   1.000  O
  O48      1.0000 0.73950  0.75600  0.53028  Biso   1.000  O
  O49      1.0000 0.88710  0.64410  0.31245  Biso   1.000  O
  O50      1.0000 0.11290  0.35590  0.68755  Biso   1.000  O
  O51      1.0000 0.16000  0.80880  0.37883  Biso   1.000  O
  O52      1.0000 0.84000  0.19120  0.62117  Biso   1.000  O
