data_image0
_cell_length_a       17.223
_cell_length_b       14.8767
_cell_length_c       21.411
_cell_angle_alpha    90
_cell_angle_beta     110.561
_cell_angle_gamma    90

_symmetry_space_group_name_H-M    "P 1"
_symmetry_int_tables_number       1

loop_
  _symmetry_equiv_pos_as_xyz
  'x, y, z'

loop_
  _atom_site_label
  _atom_site_occupancy
  _atom_site_fract_x
  _atom_site_fract_y
  _atom_site_fract_z
  _atom_site_thermal_displace_type
  _atom_site_B_iso_or_equiv
  _atom_site_type_symbol
  Mo1      1.0000 0.25341  0.58023  0.12175  Biso   1.000  Mo
  Mo2      1.0000 0.75341  0.08023  0.12175  Biso   1.000  Mo
  Mo3      1.0000 0.74659  0.58023  0.37825  Biso   1.000  Mo
  Mo4      1.0000 0.24659  0.08023  0.37825  Biso   1.000  Mo
  Mo5      1.0000 0.74659  0.41977  0.87825  Biso   1.000  Mo
  Mo6      1.0000 0.24659  0.91977  0.87825  Biso   1.000  Mo
  Mo7      1.0000 0.25341  0.41977  0.62175  Biso   1.000  Mo
  Mo8      1.0000 0.75341  0.91977  0.62175  Biso   1.000  Mo
  Mo9      1.0000 0.14777  0.72277  0.99651  Biso   1.000  Mo
  Mo10     1.0000 0.64777  0.22277  0.99651  Biso   1.000  Mo
  Mo11     1.0000 0.85223  0.72277  0.50349  Biso   1.000  Mo
  Mo12     1.0000 0.35223  0.22277  0.50349  Biso   1.000  Mo
  Mo13     1.0000 0.85223  0.27723  0.00349  Biso   1.000  Mo
  Mo14     1.0000 0.35223  0.77723  0.00349  Biso   1.000  Mo
  Mo15     1.0000 0.14777  0.27723  0.49651  Biso   1.000  Mo
  Mo16     1.0000 0.64777  0.77723  0.49651  Biso   1.000  Mo
  Mo17     1.0000 0.31203  0.79045  0.13856  Biso   1.000  Mo
  Mo18     1.0000 0.81203  0.29045  0.13856  Biso   1.000  Mo
  Mo19     1.0000 0.68797  0.79045  0.36144  Biso   1.000  Mo
  Mo20     1.0000 0.18797  0.29045  0.36144  Biso   1.000  Mo
  Mo21     1.0000 0.68797  0.20955  0.86144  Biso   1.000  Mo
  Mo22     1.0000 0.18797  0.70955  0.86144  Biso   1.000  Mo
  Mo23     1.0000 0.31203  0.20955  0.63856  Biso   1.000  Mo
  Mo24     1.0000 0.81203  0.70955  0.63856  Biso   1.000  Mo
  Mo25     1.0000 0.29960  0.56973  0.98752  Biso   1.000  Mo
  Mo26     1.0000 0.79960  0.06973  0.98752  Biso   1.000  Mo
  Mo27     1.0000 0.70040  0.56973  0.51248  Biso   1.000  Mo
  Mo28     1.0000 0.20040  0.06973  0.51248  Biso   1.000  Mo
  Mo29     1.0000 0.70040  0.43027  0.01248  Biso   1.000  Mo
  Mo30     1.0000 0.20040  0.93027  0.01248  Biso   1.000  Mo
  Mo31     1.0000 0.29960  0.43027  0.48752  Biso   1.000  Mo
  Mo32     1.0000 0.79960  0.93027  0.48752  Biso   1.000  Mo
  Cu1      1.0000 0.54191  0.81670  0.19044  Biso   1.000  Cu
  Cu2      1.0000 0.04191  0.31670  0.19044  Biso   1.000  Cu
  Cu3      1.0000 0.45809  0.81670  0.30956  Biso   1.000  Cu
  Cu4      1.0000 0.95809  0.31670  0.30956  Biso   1.000  Cu
  Cu5      1.0000 0.45809  0.18330  0.80956  Biso   1.000  Cu
  Cu6      1.0000 0.95809  0.68330  0.80956  Biso   1.000  Cu
  Cu7      1.0000 0.54191  0.18330  0.69044  Biso   1.000  Cu
  Cu8      1.0000 0.04191  0.68330  0.69044  Biso   1.000  Cu
  Cu9      1.0000 0.46113  0.61117  0.17285  Biso   1.000  Cu
  Cu10     1.0000 0.96113  0.11117  0.17285  Biso   1.000  Cu
  Cu11     1.0000 0.53887  0.61117  0.32715  Biso   1.000  Cu
  Cu12     1.0000 0.03887  0.11117  0.32715  Biso   1.000  Cu
  Cu13     1.0000 0.53887  0.38883  0.82715  Biso   1.000  Cu
  Cu14     1.0000 0.03887  0.88883  0.82715  Biso   1.000  Cu
  Cu15     1.0000 0.46113  0.38883  0.67285  Biso   1.000  Cu
  Cu16     1.0000 0.96113  0.88883  0.67285  Biso   1.000  Cu
  C1       1.0000 0.63240  0.57160  0.18900  Biso   1.000  C
  C2       1.0000 0.13240  0.07160  0.18900  Biso   1.000  C
  C3       1.0000 0.36760  0.57160  0.31100  Biso   1.000  C
  C4       1.0000 0.86760  0.07160  0.31100  Biso   1.000  C
  C5       1.0000 0.36760  0.42840  0.81100  Biso   1.000  C
  C6       1.0000 0.86760  0.92840  0.81100  Biso   1.000  C
  C7       1.0000 0.63240  0.42840  0.68900  Biso   1.000  C
  C8       1.0000 0.13240  0.92840  0.68900  Biso   1.000  C
  C9       1.0000 0.62740  0.47160  0.19520  Biso   1.000  C
  C10      1.0000 0.12740  0.97160  0.19520  Biso   1.000  C
  C11      1.0000 0.37260  0.47160  0.30480  Biso   1.000  C
  C12      1.0000 0.87260  0.97160  0.30480  Biso   1.000  C
  C13      1.0000 0.37260  0.52840  0.80480  Biso   1.000  C
  C14      1.0000 0.87260  0.02840  0.80480  Biso   1.000  C
  C15      1.0000 0.62740  0.52840  0.69520  Biso   1.000  C
  C16      1.0000 0.12740  0.02840  0.69520  Biso   1.000  C
  H1       1.0000 0.61810  0.45790  0.23630  Biso   1.000  H
  H2       1.0000 0.11810  0.95790  0.23630  Biso   1.000  H
  H3       1.0000 0.38190  0.45790  0.26370  Biso   1.000  H
  H4       1.0000 0.88190  0.95790  0.26370  Biso   1.000  H
  H5       1.0000 0.38190  0.54210  0.76370  Biso   1.000  H
  H6       1.0000 0.88190  0.04210  0.76370  Biso   1.000  H
  H7       1.0000 0.61810  0.54210  0.73630  Biso   1.000  H
  H8       1.0000 0.11810  0.04210  0.73630  Biso   1.000  H
  H9       1.0000 0.68030  0.44550  0.19840  Biso   1.000  H
  H10      1.0000 0.18030  0.94550  0.19840  Biso   1.000  H
  H11      1.0000 0.31970  0.44550  0.30160  Biso   1.000  H
  H12      1.0000 0.81970  0.94550  0.30160  Biso   1.000  H
  H13      1.0000 0.31970  0.55450  0.80160  Biso   1.000  H
  H14      1.0000 0.81970  0.05450  0.80160  Biso   1.000  H
  H15      1.0000 0.68030  0.55450  0.69840  Biso   1.000  H
  H16      1.0000 0.18030  0.05450  0.69840  Biso   1.000  H
  C17      1.0000 0.76100  0.77000  0.11900  Biso   1.000  C
  C18      1.0000 0.26100  0.27000  0.11900  Biso   1.000  C
  C19      1.0000 0.23900  0.77000  0.38100  Biso   1.000  C
  C20      1.0000 0.73900  0.27000  0.38100  Biso   1.000  C
  C21      1.0000 0.23900  0.23000  0.88100  Biso   1.000  C
  C22      1.0000 0.73900  0.73000  0.88100  Biso   1.000  C
  C23      1.0000 0.76100  0.23000  0.61900  Biso   1.000  C
  C24      1.0000 0.26100  0.73000  0.61900  Biso   1.000  C
  H17      1.0000 0.76950  0.70730  0.11080  Biso   1.000  H
  H18      1.0000 0.26950  0.20730  0.11080  Biso   1.000  H
  H19      1.0000 0.23050  0.70730  0.38920  Biso   1.000  H
  H20      1.0000 0.73050  0.20730  0.38920  Biso   1.000  H
  H21      1.0000 0.23050  0.29270  0.88920  Biso   1.000  H
  H22      1.0000 0.73050  0.79270  0.88920  Biso   1.000  H
  H23      1.0000 0.76950  0.29270  0.61080  Biso   1.000  H
  H24      1.0000 0.26950  0.79270  0.61080  Biso   1.000  H
  H25      1.0000 0.71350  0.79130  0.08210  Biso   1.000  H
  H26      1.0000 0.21350  0.29130  0.08210  Biso   1.000  H
  H27      1.0000 0.28650  0.79130  0.41790  Biso   1.000  H
  H28      1.0000 0.78650  0.29130  0.41790  Biso   1.000  H
  H29      1.0000 0.28650  0.20870  0.91790  Biso   1.000  H
  H30      1.0000 0.78650  0.70870  0.91790  Biso   1.000  H
  H31      1.0000 0.71350  0.20870  0.58210  Biso   1.000  H
  H32      1.0000 0.21350  0.70870  0.58210  Biso   1.000  H
  C25      1.0000 0.43010  0.06850  0.08830  Biso   1.000  C
  C26      1.0000 0.93010  0.56850  0.08830  Biso   1.000  C
  C27      1.0000 0.56990  0.06850  0.41170  Biso   1.000  C
  C28      1.0000 0.06990  0.56850  0.41170  Biso   1.000  C
  C29      1.0000 0.56990  0.93150  0.91170  Biso   1.000  C
  C30      1.0000 0.06990  0.43150  0.91170  Biso   1.000  C
  C31      1.0000 0.43010  0.93150  0.58830  Biso   1.000  C
  C32      1.0000 0.93010  0.43150  0.58830  Biso   1.000  C
  H33      1.0000 0.39430  0.01610  0.07940  Biso   1.000  H
  H34      1.0000 0.89430  0.51610  0.07940  Biso   1.000  H
  H35      1.0000 0.60570  0.01610  0.42060  Biso   1.000  H
  H36      1.0000 0.10570  0.51610  0.42060  Biso   1.000  H
  H37      1.0000 0.60570  0.98390  0.92060  Biso   1.000  H
  H38      1.0000 0.10570  0.48390  0.92060  Biso   1.000  H
  H39      1.0000 0.39430  0.98390  0.57940  Biso   1.000  H
  H40      1.0000 0.89430  0.48390  0.57940  Biso   1.000  H
  H41      1.0000 0.40580  0.11410  0.10820  Biso   1.000  H
  H42      1.0000 0.90580  0.61410  0.10820  Biso   1.000  H
  H43      1.0000 0.59420  0.11410  0.39180  Biso   1.000  H
  H44      1.0000 0.09420  0.61410  0.39180  Biso   1.000  H
  H45      1.0000 0.59420  0.88590  0.89180  Biso   1.000  H
  H46      1.0000 0.09420  0.38590  0.89180  Biso   1.000  H
  H47      1.0000 0.40580  0.88590  0.60820  Biso   1.000  H
  H48      1.0000 0.90580  0.38590  0.60820  Biso   1.000  H
  C33      1.0000 0.50980  0.00970  0.20160  Biso   1.000  C
  C34      1.0000 0.00980  0.50970  0.20160  Biso   1.000  C
  C35      1.0000 0.49020  0.00970  0.29840  Biso   1.000  C
  C36      1.0000 0.99020  0.50970  0.29840  Biso   1.000  C
  C37      1.0000 0.49020  0.99030  0.79840  Biso   1.000  C
  C38      1.0000 0.99020  0.49030  0.79840  Biso   1.000  C
  C39      1.0000 0.50980  0.99030  0.70160  Biso   1.000  C
  C40      1.0000 0.00980  0.49030  0.70160  Biso   1.000  C
  C41      1.0000 0.55730  0.32630  0.14700  Biso   1.000  C
  C42      1.0000 0.05730  0.82630  0.14700  Biso   1.000  C
  C43      1.0000 0.44270  0.32630  0.35300  Biso   1.000  C
  C44      1.0000 0.94270  0.82630  0.35300  Biso   1.000  C
  C45      1.0000 0.44270  0.67370  0.85300  Biso   1.000  C
  C46      1.0000 0.94270  0.17370  0.85300  Biso   1.000  C
  C47      1.0000 0.55730  0.67370  0.64700  Biso   1.000  C
  C48      1.0000 0.05730  0.17370  0.64700  Biso   1.000  C
  H49      1.0000 0.51420  0.29970  0.11000  Biso   1.000  H
  H50      1.0000 0.01420  0.79970  0.11000  Biso   1.000  H
  H51      1.0000 0.48580  0.29970  0.39000  Biso   1.000  H
  H52      1.0000 0.98580  0.79970  0.39000  Biso   1.000  H
  H53      1.0000 0.48580  0.70030  0.89000  Biso   1.000  H
  H54      1.0000 0.98580  0.20030  0.89000  Biso   1.000  H
  H55      1.0000 0.51420  0.70030  0.61000  Biso   1.000  H
  H56      1.0000 0.01420  0.20030  0.61000  Biso   1.000  H
  H57      1.0000 0.54710  0.31410  0.18750  Biso   1.000  H
  H58      1.0000 0.04710  0.81410  0.18750  Biso   1.000  H
  H59      1.0000 0.45290  0.31410  0.31250  Biso   1.000  H
  H60      1.0000 0.95290  0.81410  0.31250  Biso   1.000  H
  H61      1.0000 0.45290  0.68590  0.81250  Biso   1.000  H
  H62      1.0000 0.95290  0.18590  0.81250  Biso   1.000  H
  H63      1.0000 0.54710  0.68590  0.68750  Biso   1.000  H
  H64      1.0000 0.04710  0.18590  0.68750  Biso   1.000  H
  H65      1.0000 0.60990  0.30120  0.15010  Biso   1.000  H
  H66      1.0000 0.10990  0.80120  0.15010  Biso   1.000  H
  H67      1.0000 0.39010  0.30120  0.34990  Biso   1.000  H
  H68      1.0000 0.89010  0.80120  0.34990  Biso   1.000  H
  H69      1.0000 0.39010  0.69880  0.84990  Biso   1.000  H
  H70      1.0000 0.89010  0.19880  0.84990  Biso   1.000  H
  H71      1.0000 0.60990  0.69880  0.65010  Biso   1.000  H
  H72      1.0000 0.10990  0.19880  0.65010  Biso   1.000  H
  C49      1.0000 0.51630  0.04290  0.13830  Biso   1.000  C
  C50      1.0000 0.01630  0.54290  0.13830  Biso   1.000  C
  C51      1.0000 0.48370  0.04290  0.36170  Biso   1.000  C
  C52      1.0000 0.98370  0.54290  0.36170  Biso   1.000  C
  C53      1.0000 0.48370  0.95710  0.86170  Biso   1.000  C
  C54      1.0000 0.98370  0.45710  0.86170  Biso   1.000  C
  C55      1.0000 0.51630  0.95710  0.63830  Biso   1.000  C
  C56      1.0000 0.01630  0.45710  0.63830  Biso   1.000  C
  H73      1.0000 0.54050  0.99650  0.11900  Biso   1.000  H
  H74      1.0000 0.04050  0.49650  0.11900  Biso   1.000  H
  H75      1.0000 0.45950  0.99650  0.38100  Biso   1.000  H
  H76      1.0000 0.95950  0.49650  0.38100  Biso   1.000  H
  H77      1.0000 0.45950  0.00350  0.88100  Biso   1.000  H
  H78      1.0000 0.95950  0.50350  0.88100  Biso   1.000  H
  H79      1.0000 0.54050  0.00350  0.61900  Biso   1.000  H
  H80      1.0000 0.04050  0.50350  0.61900  Biso   1.000  H
  H81      1.0000 0.55240  0.09500  0.14720  Biso   1.000  H
  H82      1.0000 0.05240  0.59500  0.14720  Biso   1.000  H
  H83      1.0000 0.44760  0.09500  0.35280  Biso   1.000  H
  H84      1.0000 0.94760  0.59500  0.35280  Biso   1.000  H
  H85      1.0000 0.44760  0.90500  0.85280  Biso   1.000  H
  H86      1.0000 0.94760  0.40500  0.85280  Biso   1.000  H
  H87      1.0000 0.55240  0.90500  0.64720  Biso   1.000  H
  H88      1.0000 0.05240  0.40500  0.64720  Biso   1.000  H
  C57      1.0000 0.55850  0.42730  0.13680  Biso   1.000  C
  C58      1.0000 0.05850  0.92730  0.13680  Biso   1.000  C
  C59      1.0000 0.44150  0.42730  0.36320  Biso   1.000  C
  C60      1.0000 0.94150  0.92730  0.36320  Biso   1.000  C
  C61      1.0000 0.44150  0.57270  0.86320  Biso   1.000  C
  C62      1.0000 0.94150  0.07270  0.86320  Biso   1.000  C
  C63      1.0000 0.55850  0.57270  0.63680  Biso   1.000  C
  C64      1.0000 0.05850  0.07270  0.63680  Biso   1.000  C
  H89      1.0000 0.50530  0.45270  0.13330  Biso   1.000  H
  H90      1.0000 0.00530  0.95270  0.13330  Biso   1.000  H
  H91      1.0000 0.49470  0.45270  0.36670  Biso   1.000  H
  H92      1.0000 0.99470  0.95270  0.36670  Biso   1.000  H
  H93      1.0000 0.49470  0.54730  0.86670  Biso   1.000  H
  H94      1.0000 0.99470  0.04730  0.86670  Biso   1.000  H
  H95      1.0000 0.50530  0.54730  0.63330  Biso   1.000  H
  H96      1.0000 0.00530  0.04730  0.63330  Biso   1.000  H
  H97      1.0000 0.56780  0.43970  0.09540  Biso   1.000  H
  H98      1.0000 0.06780  0.93970  0.09540  Biso   1.000  H
  H99      1.0000 0.43220  0.43970  0.40460  Biso   1.000  H
  H100     1.0000 0.93220  0.93970  0.40460  Biso   1.000  H
  H101     1.0000 0.43220  0.56030  0.90460  Biso   1.000  H
  H102     1.0000 0.93220  0.06030  0.90460  Biso   1.000  H
  H103     1.0000 0.56780  0.56030  0.59540  Biso   1.000  H
  H104     1.0000 0.06780  0.06030  0.59540  Biso   1.000  H
  C65      1.0000 0.74210  0.77750  0.18380  Biso   1.000  C
  C66      1.0000 0.24210  0.27750  0.18380  Biso   1.000  C
  C67      1.0000 0.25790  0.77750  0.31620  Biso   1.000  C
  C68      1.0000 0.75790  0.27750  0.31620  Biso   1.000  C
  C69      1.0000 0.25790  0.22250  0.81620  Biso   1.000  C
  C70      1.0000 0.75790  0.72250  0.81620  Biso   1.000  C
  C71      1.0000 0.74210  0.22250  0.68380  Biso   1.000  C
  C72      1.0000 0.24210  0.72250  0.68380  Biso   1.000  C
  H105     1.0000 0.79310  0.77120  0.22180  Biso   1.000  H
  H106     1.0000 0.29310  0.27120  0.22180  Biso   1.000  H
  H107     1.0000 0.20690  0.77120  0.27820  Biso   1.000  H
  H108     1.0000 0.70690  0.27120  0.27820  Biso   1.000  H
  H109     1.0000 0.20690  0.22880  0.77820  Biso   1.000  H
  H110     1.0000 0.70690  0.72880  0.77820  Biso   1.000  H
  H111     1.0000 0.79310  0.22880  0.72180  Biso   1.000  H
  H112     1.0000 0.29310  0.72880  0.72180  Biso   1.000  H
  H113     1.0000 0.71890  0.83630  0.18620  Biso   1.000  H
  H114     1.0000 0.21890  0.33630  0.18620  Biso   1.000  H
  H115     1.0000 0.28110  0.83630  0.31380  Biso   1.000  H
  H116     1.0000 0.78110  0.33630  0.31380  Biso   1.000  H
  H117     1.0000 0.28110  0.16370  0.81380  Biso   1.000  H
  H118     1.0000 0.78110  0.66370  0.81380  Biso   1.000  H
  H119     1.0000 0.71890  0.16370  0.68620  Biso   1.000  H
  H120     1.0000 0.21890  0.66370  0.68620  Biso   1.000  H
  C73      1.0000 0.83690  0.82330  0.12110  Biso   1.000  C
  C74      1.0000 0.33690  0.32330  0.12110  Biso   1.000  C
  C75      1.0000 0.16310  0.82330  0.37890  Biso   1.000  C
  C76      1.0000 0.66310  0.32330  0.37890  Biso   1.000  C
  C77      1.0000 0.16310  0.17670  0.87890  Biso   1.000  C
  C78      1.0000 0.66310  0.67670  0.87890  Biso   1.000  C
  C79      1.0000 0.83690  0.17670  0.62110  Biso   1.000  C
  C80      1.0000 0.33690  0.67670  0.62110  Biso   1.000  C
  H121     1.0000 0.84600  0.81620  0.07960  Biso   1.000  H
  H122     1.0000 0.34600  0.31620  0.07960  Biso   1.000  H
  H123     1.0000 0.15400  0.81620  0.42040  Biso   1.000  H
  H124     1.0000 0.65400  0.31620  0.42040  Biso   1.000  H
  H125     1.0000 0.15400  0.18380  0.92040  Biso   1.000  H
  H126     1.0000 0.65400  0.68380  0.92040  Biso   1.000  H
  H127     1.0000 0.84600  0.18380  0.57960  Biso   1.000  H
  H128     1.0000 0.34600  0.68380  0.57960  Biso   1.000  H
  H129     1.0000 0.88440  0.80170  0.15700  Biso   1.000  H
  H130     1.0000 0.38440  0.30170  0.15700  Biso   1.000  H
  H131     1.0000 0.11560  0.80170  0.34300  Biso   1.000  H
  H132     1.0000 0.61560  0.30170  0.34300  Biso   1.000  H
  H133     1.0000 0.11560  0.19830  0.84300  Biso   1.000  H
  H134     1.0000 0.61560  0.69830  0.84300  Biso   1.000  H
  H135     1.0000 0.88440  0.19830  0.65700  Biso   1.000  H
  H136     1.0000 0.38440  0.69830  0.65700  Biso   1.000  H
  H137     1.0000 0.82830  0.88570  0.12810  Biso   1.000  H
  H138     1.0000 0.32830  0.38570  0.12810  Biso   1.000  H
  H139     1.0000 0.17170  0.88570  0.37190  Biso   1.000  H
  H140     1.0000 0.67170  0.38570  0.37190  Biso   1.000  H
  H141     1.0000 0.17170  0.11430  0.87190  Biso   1.000  H
  H142     1.0000 0.67170  0.61430  0.87190  Biso   1.000  H
  H143     1.0000 0.82830  0.11430  0.62810  Biso   1.000  H
  H144     1.0000 0.32830  0.61430  0.62810  Biso   1.000  H
  C81      1.0000 0.43390  0.10390  0.02290  Biso   1.000  C
  C82      1.0000 0.93390  0.60390  0.02290  Biso   1.000  C
  C83      1.0000 0.56610  0.10390  0.47710  Biso   1.000  C
  C84      1.0000 0.06610  0.60390  0.47710  Biso   1.000  C
  C85      1.0000 0.56610  0.89610  0.97710  Biso   1.000  C
  C86      1.0000 0.06610  0.39610  0.97710  Biso   1.000  C
  C87      1.0000 0.43390  0.89610  0.52290  Biso   1.000  C
  C88      1.0000 0.93390  0.39610  0.52290  Biso   1.000  C
  H145     1.0000 0.37900  0.11910  0.99360  Biso   1.000  H
  H146     1.0000 0.87900  0.61910  0.99360  Biso   1.000  H
  H147     1.0000 0.62100  0.11910  0.50640  Biso   1.000  H
  H148     1.0000 0.12100  0.61910  0.50640  Biso   1.000  H
  H149     1.0000 0.62100  0.88090  0.00640  Biso   1.000  H
  H150     1.0000 0.12100  0.38090  0.00640  Biso   1.000  H
  H151     1.0000 0.37900  0.88090  0.49360  Biso   1.000  H
  H152     1.0000 0.87900  0.38090  0.49360  Biso   1.000  H
  H153     1.0000 0.45660  0.05850  0.00250  Biso   1.000  H
  H154     1.0000 0.95660  0.55850  0.00250  Biso   1.000  H
  H155     1.0000 0.54340  0.05850  0.49750  Biso   1.000  H
  H156     1.0000 0.04340  0.55850  0.49750  Biso   1.000  H
  H157     1.0000 0.54340  0.94150  0.99750  Biso   1.000  H
  H158     1.0000 0.04340  0.44150  0.99750  Biso   1.000  H
  H159     1.0000 0.45660  0.94150  0.50250  Biso   1.000  H
  H160     1.0000 0.95660  0.44150  0.50250  Biso   1.000  H
  H161     1.0000 0.46840  0.15640  0.03130  Biso   1.000  H
  H162     1.0000 0.96840  0.65640  0.03130  Biso   1.000  H
  H163     1.0000 0.53160  0.15640  0.46870  Biso   1.000  H
  H164     1.0000 0.03160  0.65640  0.46870  Biso   1.000  H
  H165     1.0000 0.53160  0.84360  0.96870  Biso   1.000  H
  H166     1.0000 0.03160  0.34360  0.96870  Biso   1.000  H
  H167     1.0000 0.46840  0.84360  0.53130  Biso   1.000  H
  H168     1.0000 0.96840  0.34360  0.53130  Biso   1.000  H
  C89      1.0000 0.68250  0.70680  0.18610  Biso   1.000  C
  C90      1.0000 0.18250  0.20680  0.18610  Biso   1.000  C
  C91      1.0000 0.31750  0.70680  0.31390  Biso   1.000  C
  C92      1.0000 0.81750  0.20680  0.31390  Biso   1.000  C
  C93      1.0000 0.31750  0.29320  0.81390  Biso   1.000  C
  C94      1.0000 0.81750  0.79320  0.81390  Biso   1.000  C
  C95      1.0000 0.68250  0.29320  0.68610  Biso   1.000  C
  C96      1.0000 0.18250  0.79320  0.68610  Biso   1.000  C
  N1       1.0000 0.60430  0.71580  0.17960  Biso   1.000  N
  N2       1.0000 0.10430  0.21580  0.17960  Biso   1.000  N
  N3       1.0000 0.39570  0.71580  0.32040  Biso   1.000  N
  N4       1.0000 0.89570  0.21580  0.32040  Biso   1.000  N
  N5       1.0000 0.39570  0.28420  0.82040  Biso   1.000  N
  N6       1.0000 0.89570  0.78420  0.82040  Biso   1.000  N
  N7       1.0000 0.60430  0.28420  0.67960  Biso   1.000  N
  N8       1.0000 0.10430  0.78420  0.67960  Biso   1.000  N
  N9       1.0000 0.50720  0.92590  0.22000  Biso   1.000  N
  N10      1.0000 0.00720  0.42590  0.22000  Biso   1.000  N
  N11      1.0000 0.49280  0.92590  0.28000  Biso   1.000  N
  N12      1.0000 0.99280  0.42590  0.28000  Biso   1.000  N
  N13      1.0000 0.49280  0.07410  0.78000  Biso   1.000  N
  N14      1.0000 0.99280  0.57410  0.78000  Biso   1.000  N
  N15      1.0000 0.50720  0.07410  0.72000  Biso   1.000  N
  N16      1.0000 0.00720  0.57410  0.72000  Biso   1.000  N
  N17      1.0000 0.70190  0.61750  0.19230  Biso   1.000  N
  N18      1.0000 0.20190  0.11750  0.19230  Biso   1.000  N
  N19      1.0000 0.29810  0.61750  0.30770  Biso   1.000  N
  N20      1.0000 0.79810  0.11750  0.30770  Biso   1.000  N
  N21      1.0000 0.29810  0.38250  0.80770  Biso   1.000  N
  N22      1.0000 0.79810  0.88250  0.80770  Biso   1.000  N
  N23      1.0000 0.70190  0.38250  0.69230  Biso   1.000  N
  N24      1.0000 0.20190  0.88250  0.69230  Biso   1.000  N
  N25      1.0000 0.78290  0.58350  0.20550  Biso   1.000  N
  N26      1.0000 0.28290  0.08350  0.20550  Biso   1.000  N
  N27      1.0000 0.21710  0.58350  0.29450  Biso   1.000  N
  N28      1.0000 0.71710  0.08350  0.29450  Biso   1.000  N
  N29      1.0000 0.21710  0.41650  0.79450  Biso   1.000  N
  N30      1.0000 0.71710  0.91650  0.79450  Biso   1.000  N
  N31      1.0000 0.78290  0.41650  0.70550  Biso   1.000  N
  N32      1.0000 0.28290  0.91650  0.70550  Biso   1.000  N
  H169     1.0000 0.79260  0.52700  0.21270  Biso   1.000  H
  H170     1.0000 0.29260  0.02700  0.21270  Biso   1.000  H
  H171     1.0000 0.20740  0.52700  0.28730  Biso   1.000  H
  H172     1.0000 0.70740  0.02700  0.28730  Biso   1.000  H
  H173     1.0000 0.20740  0.47300  0.78730  Biso   1.000  H
  H174     1.0000 0.70740  0.97300  0.78730  Biso   1.000  H
  H175     1.0000 0.79260  0.47300  0.71270  Biso   1.000  H
  H176     1.0000 0.29260  0.97300  0.71270  Biso   1.000  H
  H177     1.0000 0.82240  0.61930  0.20640  Biso   1.000  H
  H178     1.0000 0.32240  0.11930  0.20640  Biso   1.000  H
  H179     1.0000 0.17760  0.61930  0.29360  Biso   1.000  H
  H180     1.0000 0.67760  0.11930  0.29360  Biso   1.000  H
  H181     1.0000 0.17760  0.38070  0.79360  Biso   1.000  H
  H182     1.0000 0.67760  0.88070  0.79360  Biso   1.000  H
  H183     1.0000 0.82240  0.38070  0.70640  Biso   1.000  H
  H184     1.0000 0.32240  0.88070  0.70640  Biso   1.000  H
  N33      1.0000 0.57300  0.62970  0.18160  Biso   1.000  N
  N34      1.0000 0.07300  0.12970  0.18160  Biso   1.000  N
  N35      1.0000 0.42700  0.62970  0.31840  Biso   1.000  N
  N36      1.0000 0.92700  0.12970  0.31840  Biso   1.000  N
  N37      1.0000 0.42700  0.37030  0.81840  Biso   1.000  N
  N38      1.0000 0.92700  0.87030  0.81840  Biso   1.000  N
  N39      1.0000 0.57300  0.37030  0.68160  Biso   1.000  N
  N40      1.0000 0.07300  0.87030  0.68160  Biso   1.000  N
  O1       1.0000 0.25510  0.69630  0.16275  Biso   1.000  O
  O2       1.0000 0.75510  0.19630  0.16275  Biso   1.000  O
  O3       1.0000 0.74490  0.69630  0.33725  Biso   1.000  O
  O4       1.0000 0.24490  0.19630  0.33725  Biso   1.000  O
  O5       1.0000 0.74490  0.30370  0.83725  Biso   1.000  O
  O6       1.0000 0.24490  0.80370  0.83725  Biso   1.000  O
  O7       1.0000 0.25510  0.30370  0.66275  Biso   1.000  O
  O8       1.0000 0.75510  0.80370  0.66275  Biso   1.000  O
  O9       1.0000 0.27670  0.49330  0.92440  Biso   1.000  O
  O10      1.0000 0.77670  0.99330  0.92440  Biso   1.000  O
  O11      1.0000 0.72330  0.49330  0.57560  Biso   1.000  O
  O12      1.0000 0.22330  0.99330  0.57560  Biso   1.000  O
  O13      1.0000 0.72330  0.50670  0.07560  Biso   1.000  O
  O14      1.0000 0.22330  0.00670  0.07560  Biso   1.000  O
  O15      1.0000 0.27670  0.50670  0.42440  Biso   1.000  O
  O16      1.0000 0.77670  0.00670  0.42440  Biso   1.000  O
  O17      1.0000 0.30360  0.87530  0.18870  Biso   1.000  O
  O18      1.0000 0.80360  0.37530  0.18870  Biso   1.000  O
  O19      1.0000 0.69640  0.87530  0.31130  Biso   1.000  O
  O20      1.0000 0.19640  0.37530  0.31130  Biso   1.000  O
  O21      1.0000 0.69640  0.12470  0.81130  Biso   1.000  O
  O22      1.0000 0.19640  0.62470  0.81130  Biso   1.000  O
  O23      1.0000 0.30360  0.12470  0.68870  Biso   1.000  O
  O24      1.0000 0.80360  0.62470  0.68870  Biso   1.000  O
  O25      1.0000 0.20610  0.51220  0.16130  Biso   1.000  O
  O26      1.0000 0.70610  0.01220  0.16130  Biso   1.000  O
  O27      1.0000 0.79390  0.51220  0.33870  Biso   1.000  O
  O28      1.0000 0.29390  0.01220  0.33870  Biso   1.000  O
  O29      1.0000 0.79390  0.48780  0.83870  Biso   1.000  O
  O30      1.0000 0.29390  0.98780  0.83870  Biso   1.000  O
  O31      1.0000 0.20610  0.48780  0.66130  Biso   1.000  O
  O32      1.0000 0.70610  0.98780  0.66130  Biso   1.000  O
  O33      1.0000 0.18490  0.82080  0.06128  Biso   1.000  O
  O34      1.0000 0.68490  0.32080  0.06128  Biso   1.000  O
  O35      1.0000 0.81510  0.82080  0.43872  Biso   1.000  O
  O36      1.0000 0.31510  0.32080  0.43872  Biso   1.000  O
  O37      1.0000 0.81510  0.17920  0.93872  Biso   1.000  O
  O38      1.0000 0.31510  0.67920  0.93872  Biso   1.000  O
  O39      1.0000 0.18490  0.17920  0.56128  Biso   1.000  O
  O40      1.0000 0.68490  0.67920  0.56128  Biso   1.000  O
  O41      1.0000 0.24430  0.51860  0.04230  Biso   1.000  O
  O42      1.0000 0.74430  0.01860  0.04230  Biso   1.000  O
  O43      1.0000 0.75570  0.51860  0.45770  Biso   1.000  O
  O44      1.0000 0.25570  0.01860  0.45770  Biso   1.000  O
  O45      1.0000 0.75570  0.48140  0.95770  Biso   1.000  O
  O46      1.0000 0.25570  0.98140  0.95770  Biso   1.000  O
  O47      1.0000 0.24430  0.48140  0.54230  Biso   1.000  O
  O48      1.0000 0.74430  0.98140  0.54230  Biso   1.000  O
  O49      1.0000 0.14080  0.64030  0.05397  Biso   1.000  O
  O50      1.0000 0.64080  0.14030  0.05397  Biso   1.000  O
  O51      1.0000 0.85920  0.64030  0.44603  Biso   1.000  O
  O52      1.0000 0.35920  0.14030  0.44603  Biso   1.000  O
  O53      1.0000 0.85920  0.35970  0.94603  Biso   1.000  O
  O54      1.0000 0.35920  0.85970  0.94603  Biso   1.000  O
  O55      1.0000 0.14080  0.35970  0.55397  Biso   1.000  O
  O56      1.0000 0.64080  0.85970  0.55397  Biso   1.000  O
  O57      1.0000 0.16960  0.64010  0.93413  Biso   1.000  O
  O58      1.0000 0.66960  0.14010  0.93413  Biso   1.000  O
  O59      1.0000 0.83040  0.64010  0.56587  Biso   1.000  O
  O60      1.0000 0.33040  0.14010  0.56587  Biso   1.000  O
  O61      1.0000 0.83040  0.35990  0.06587  Biso   1.000  O
  O62      1.0000 0.33040  0.85990  0.06587  Biso   1.000  O
  O63      1.0000 0.16960  0.35990  0.43413  Biso   1.000  O
  O64      1.0000 0.66960  0.85990  0.43413  Biso   1.000  O
  O65      1.0000 0.04900  0.75230  0.95350  Biso   1.000  O
  O66      1.0000 0.54900  0.25230  0.95350  Biso   1.000  O
  O67      1.0000 0.95100  0.75230  0.54650  Biso   1.000  O
  O68      1.0000 0.45100  0.25230  0.54650  Biso   1.000  O
  O69      1.0000 0.95100  0.24770  0.04650  Biso   1.000  O
  O70      1.0000 0.45100  0.74770  0.04650  Biso   1.000  O
  O71      1.0000 0.04900  0.24770  0.45350  Biso   1.000  O
  O72      1.0000 0.54900  0.74770  0.45350  Biso   1.000  O
  O73      1.0000 0.40040  0.55100  0.03460  Biso   1.000  O
  O74      1.0000 0.90040  0.05100  0.03460  Biso   1.000  O
  O75      1.0000 0.59960  0.55100  0.46540  Biso   1.000  O
  O76      1.0000 0.09960  0.05100  0.46540  Biso   1.000  O
  O77      1.0000 0.59960  0.44900  0.96540  Biso   1.000  O
  O78      1.0000 0.09960  0.94900  0.96540  Biso   1.000  O
  O79      1.0000 0.40040  0.44900  0.53460  Biso   1.000  O
  O80      1.0000 0.90040  0.94900  0.53460  Biso   1.000  O
  O81      1.0000 0.35930  0.56050  0.16350  Biso   1.000  O
  O82      1.0000 0.85930  0.06050  0.16350  Biso   1.000  O
  O83      1.0000 0.64070  0.56050  0.33650  Biso   1.000  O
  O84      1.0000 0.14070  0.06050  0.33650  Biso   1.000  O
  O85      1.0000 0.64070  0.43950  0.83650  Biso   1.000  O
  O86      1.0000 0.14070  0.93950  0.83650  Biso   1.000  O
  O87      1.0000 0.35930  0.43950  0.66350  Biso   1.000  O
  O88      1.0000 0.85930  0.93950  0.66350  Biso   1.000  O
  O89      1.0000 0.41370  0.75220  0.17530  Biso   1.000  O
  O90      1.0000 0.91370  0.25220  0.17530  Biso   1.000  O
  O91      1.0000 0.58630  0.75220  0.32470  Biso   1.000  O
  O92      1.0000 0.08630  0.25220  0.32470  Biso   1.000  O
  O93      1.0000 0.58630  0.24780  0.82470  Biso   1.000  O
  O94      1.0000 0.08630  0.74780  0.82470  Biso   1.000  O
  O95      1.0000 0.41370  0.24780  0.67530  Biso   1.000  O
  O96      1.0000 0.91370  0.74780  0.67530  Biso   1.000  O
  O97      1.0000 0.29040  0.69090  0.05057  Biso   1.000  O
  O98      1.0000 0.79040  0.19090  0.05057  Biso   1.000  O
  O99      1.0000 0.70960  0.69090  0.44943  Biso   1.000  O
  O100     1.0000 0.20960  0.19090  0.44943  Biso   1.000  O
  O101     1.0000 0.70960  0.30910  0.94943  Biso   1.000  O
  O102     1.0000 0.20960  0.80910  0.94943  Biso   1.000  O
  O103     1.0000 0.29040  0.30910  0.55057  Biso   1.000  O
  O104     1.0000 0.79040  0.80910  0.55057  Biso   1.000  O
  N41      1.0000 0.50000  0.06320  0.25000  Biso   1.000  N
  N42      1.0000 0.00000  0.56320  0.25000  Biso   1.000  N
  N43      1.0000 0.50000  0.93680  0.75000  Biso   1.000  N
  N44      1.0000 0.00000  0.43680  0.75000  Biso   1.000  N
  N45      1.0000 0.50000  0.15730  0.25000  Biso   1.000  N
  N46      1.0000 0.00000  0.65730  0.25000  Biso   1.000  N
  N47      1.0000 0.50000  0.84270  0.75000  Biso   1.000  N
  N48      1.0000 0.00000  0.34270  0.75000  Biso   1.000  N
