data_image0
_cell_length_a       27.7404
_cell_length_b       12.6919
_cell_length_c       8.8986
_cell_angle_alpha    90
_cell_angle_beta     90
_cell_angle_gamma    90

_symmetry_space_group_name_H-M    "P 1"
_symmetry_int_tables_number       1

loop_
  _symmetry_equiv_pos_as_xyz
  'x, y, z'

loop_
  _atom_site_label
  _atom_site_occupancy
  _atom_site_fract_x
  _atom_site_fract_y
  _atom_site_fract_z
  _atom_site_thermal_displace_type
  _atom_site_B_iso_or_equiv
  _atom_site_type_symbol
  Cu1      1.0000 0.42908  0.75000  0.45557  Biso   1.000  Cu
  Cu2      1.0000 0.07092  0.25000  0.95557  Biso   1.000  Cu
  Cu3      1.0000 0.57092  0.25000  0.54443  Biso   1.000  Cu
  Cu4      1.0000 0.92908  0.75000  0.04443  Biso   1.000  Cu
  Cu5      1.0000 0.32000  0.13386  0.68018  Biso   1.000  Cu
  Cu6      1.0000 0.18000  0.86614  0.18018  Biso   1.000  Cu
  Cu7      1.0000 0.68000  0.63386  0.31982  Biso   1.000  Cu
  Cu8      1.0000 0.82000  0.36614  0.81982  Biso   1.000  Cu
  Cu9      1.0000 0.68000  0.86614  0.31982  Biso   1.000  Cu
  Cu10     1.0000 0.82000  0.13386  0.81982  Biso   1.000  Cu
  Cu11     1.0000 0.32000  0.36614  0.68018  Biso   1.000  Cu
  Cu12     1.0000 0.18000  0.63386  0.18018  Biso   1.000  Cu
  Cu13     1.0000 0.43400  0.11030  0.88676  Biso   1.000  Cu
  Cu14     1.0000 0.06600  0.88970  0.38676  Biso   1.000  Cu
  Cu15     1.0000 0.56600  0.61030  0.11324  Biso   1.000  Cu
  Cu16     1.0000 0.93400  0.38970  0.61324  Biso   1.000  Cu
  Cu17     1.0000 0.56600  0.88970  0.11324  Biso   1.000  Cu
  Cu18     1.0000 0.93400  0.11030  0.61324  Biso   1.000  Cu
  Cu19     1.0000 0.43400  0.38970  0.88676  Biso   1.000  Cu
  Cu20     1.0000 0.06600  0.61030  0.38676  Biso   1.000  Cu
  I1       1.0000 0.30054  0.25000  0.44020  Biso   1.000  I
  I2       1.0000 0.19946  0.75000  0.94020  Biso   1.000  I
  I3       1.0000 0.69946  0.75000  0.55980  Biso   1.000  I
  I4       1.0000 0.80054  0.25000  0.05980  Biso   1.000  I
  I5       1.0000 0.36393  0.25000  0.89396  Biso   1.000  I
  I6       1.0000 0.13607  0.75000  0.39396  Biso   1.000  I
  I7       1.0000 0.63607  0.75000  0.10604  Biso   1.000  I
  I8       1.0000 0.86393  0.25000  0.60604  Biso   1.000  I
  I9       1.0000 0.48184  0.75000  0.21217  Biso   1.000  I
  I10      1.0000 0.01816  0.25000  0.71217  Biso   1.000  I
  I11      1.0000 0.51816  0.25000  0.78783  Biso   1.000  I
  I12      1.0000 0.98184  0.75000  0.28783  Biso   1.000  I
  C1       1.0000 0.36950  0.93870  0.55990  Biso   1.000  C
  C2       1.0000 0.13050  0.06130  0.05990  Biso   1.000  C
  C3       1.0000 0.63050  0.43870  0.44010  Biso   1.000  C
  C4       1.0000 0.86950  0.56130  0.94010  Biso   1.000  C
  C5       1.0000 0.63050  0.06130  0.44010  Biso   1.000  C
  C6       1.0000 0.86950  0.93870  0.94010  Biso   1.000  C
  C7       1.0000 0.36950  0.56130  0.55990  Biso   1.000  C
  C8       1.0000 0.13050  0.43870  0.05990  Biso   1.000  C
  C9       1.0000 0.43780  0.93580  0.66230  Biso   1.000  C
  C10      1.0000 0.06220  0.06420  0.16230  Biso   1.000  C
  C11      1.0000 0.56220  0.43580  0.33770  Biso   1.000  C
  C12      1.0000 0.93780  0.56420  0.83770  Biso   1.000  C
  C13      1.0000 0.56220  0.06420  0.33770  Biso   1.000  C
  C14      1.0000 0.93780  0.93580  0.83770  Biso   1.000  C
  C15      1.0000 0.43780  0.56420  0.66230  Biso   1.000  C
  C16      1.0000 0.06220  0.43580  0.16230  Biso   1.000  C
  C17      1.0000 0.32680  0.91660  0.46700  Biso   1.000  C
  C18      1.0000 0.17320  0.08340  0.96700  Biso   1.000  C
  C19      1.0000 0.67320  0.41660  0.53300  Biso   1.000  C
  C20      1.0000 0.82680  0.58340  0.03300  Biso   1.000  C
  C21      1.0000 0.67320  0.08340  0.53300  Biso   1.000  C
  C22      1.0000 0.82680  0.91660  0.03300  Biso   1.000  C
  C23      1.0000 0.32680  0.58340  0.46700  Biso   1.000  C
  C24      1.0000 0.17320  0.41660  0.96700  Biso   1.000  C
  C25      1.0000 0.28170  0.92080  0.52950  Biso   1.000  C
  C26      1.0000 0.21830  0.07920  0.02950  Biso   1.000  C
  C27      1.0000 0.71830  0.42080  0.47050  Biso   1.000  C
  C28      1.0000 0.78170  0.57920  0.97050  Biso   1.000  C
  C29      1.0000 0.71830  0.07920  0.47050  Biso   1.000  C
  C30      1.0000 0.78170  0.92080  0.97050  Biso   1.000  C
  C31      1.0000 0.28170  0.57920  0.52950  Biso   1.000  C
  C32      1.0000 0.21830  0.42080  0.02950  Biso   1.000  C
  H1       1.0000 0.27840  0.93280  0.63210  Biso   1.000  H
  H2       1.0000 0.22160  0.06720  0.13210  Biso   1.000  H
  H3       1.0000 0.72160  0.43280  0.36790  Biso   1.000  H
  H4       1.0000 0.77840  0.56720  0.86790  Biso   1.000  H
  H5       1.0000 0.72160  0.06720  0.36790  Biso   1.000  H
  H6       1.0000 0.77840  0.93280  0.86790  Biso   1.000  H
  H7       1.0000 0.27840  0.56720  0.63210  Biso   1.000  H
  H8       1.0000 0.22160  0.43280  0.13210  Biso   1.000  H
  C33      1.0000 0.24190  0.90770  0.44320  Biso   1.000  C
  C34      1.0000 0.25810  0.09230  0.94320  Biso   1.000  C
  C35      1.0000 0.75810  0.40770  0.55680  Biso   1.000  C
  C36      1.0000 0.74190  0.59230  0.05680  Biso   1.000  C
  C37      1.0000 0.75810  0.09230  0.55680  Biso   1.000  C
  C38      1.0000 0.74190  0.90770  0.05680  Biso   1.000  C
  C39      1.0000 0.24190  0.59230  0.44320  Biso   1.000  C
  C40      1.0000 0.25810  0.40770  0.94320  Biso   1.000  C
  H9       1.0000 0.21190  0.91160  0.48950  Biso   1.000  H
  H10      1.0000 0.28810  0.08840  0.98950  Biso   1.000  H
  H11      1.0000 0.78810  0.41160  0.51050  Biso   1.000  H
  H12      1.0000 0.71190  0.58840  0.01050  Biso   1.000  H
  H13      1.0000 0.78810  0.08840  0.51050  Biso   1.000  H
  H14      1.0000 0.71190  0.91160  0.01050  Biso   1.000  H
  H15      1.0000 0.21190  0.58840  0.48950  Biso   1.000  H
  H16      1.0000 0.28810  0.41160  0.98950  Biso   1.000  H
  C41      1.0000 0.28780  0.88270  0.23300  Biso   1.000  C
  C42      1.0000 0.21220  0.11730  0.73300  Biso   1.000  C
  C43      1.0000 0.71220  0.38270  0.76700  Biso   1.000  C
  C44      1.0000 0.78780  0.61730  0.26700  Biso   1.000  C
  C45      1.0000 0.71220  0.11730  0.76700  Biso   1.000  C
  C46      1.0000 0.78780  0.88270  0.26700  Biso   1.000  C
  C47      1.0000 0.28780  0.61730  0.23300  Biso   1.000  C
  C48      1.0000 0.21220  0.38270  0.73300  Biso   1.000  C
  H17      1.0000 0.29020  0.86920  0.13060  Biso   1.000  H
  H18      1.0000 0.20980  0.13080  0.63060  Biso   1.000  H
  H19      1.0000 0.70980  0.36920  0.86940  Biso   1.000  H
  H20      1.0000 0.79020  0.63080  0.36940  Biso   1.000  H
  H21      1.0000 0.70980  0.13080  0.86940  Biso   1.000  H
  H22      1.0000 0.79020  0.86920  0.36940  Biso   1.000  H
  H23      1.0000 0.29020  0.63080  0.13060  Biso   1.000  H
  H24      1.0000 0.20980  0.36920  0.63060  Biso   1.000  H
  C49      1.0000 0.32990  0.89480  0.31580  Biso   1.000  C
  C50      1.0000 0.17010  0.10520  0.81580  Biso   1.000  C
  C51      1.0000 0.67010  0.39480  0.68420  Biso   1.000  C
  C52      1.0000 0.82990  0.60520  0.18420  Biso   1.000  C
  C53      1.0000 0.67010  0.10520  0.68420  Biso   1.000  C
  C54      1.0000 0.82990  0.89480  0.18420  Biso   1.000  C
  C55      1.0000 0.32990  0.60520  0.31580  Biso   1.000  C
  C56      1.0000 0.17010  0.39480  0.81580  Biso   1.000  C
  H25      1.0000 0.35980  0.88840  0.26950  Biso   1.000  H
  H26      1.0000 0.14020  0.11160  0.76950  Biso   1.000  H
  H27      1.0000 0.64020  0.38840  0.73050  Biso   1.000  H
  H28      1.0000 0.85980  0.61160  0.23050  Biso   1.000  H
  H29      1.0000 0.64020  0.11160  0.73050  Biso   1.000  H
  H30      1.0000 0.85980  0.88840  0.23050  Biso   1.000  H
  H31      1.0000 0.35980  0.61160  0.26950  Biso   1.000  H
  H32      1.0000 0.14020  0.38840  0.76950  Biso   1.000  H
  C57      1.0000 0.48800  0.91080  0.70270  Biso   1.000  C
  C58      1.0000 0.01200  0.08920  0.20270  Biso   1.000  C
  C59      1.0000 0.51200  0.41080  0.29730  Biso   1.000  C
  C60      1.0000 0.98800  0.58920  0.79730  Biso   1.000  C
  C61      1.0000 0.51200  0.08920  0.29730  Biso   1.000  C
  C62      1.0000 0.98800  0.91080  0.79730  Biso   1.000  C
  C63      1.0000 0.48800  0.58920  0.70270  Biso   1.000  C
  C64      1.0000 0.01200  0.41080  0.20270  Biso   1.000  C
  C65      1.0000 0.52320  0.89170  0.59560  Biso   1.000  C
  C66      1.0000 0.97680  0.10830  0.09560  Biso   1.000  C
  C67      1.0000 0.47680  0.39170  0.40440  Biso   1.000  C
  C68      1.0000 0.02320  0.60830  0.90440  Biso   1.000  C
  C69      1.0000 0.47680  0.10830  0.40440  Biso   1.000  C
  C70      1.0000 0.02320  0.89170  0.90440  Biso   1.000  C
  C71      1.0000 0.52320  0.60830  0.59560  Biso   1.000  C
  C72      1.0000 0.97680  0.39170  0.09560  Biso   1.000  C
  H33      1.0000 0.51500  0.88810  0.49440  Biso   1.000  H
  H34      1.0000 0.98500  0.11190  0.99440  Biso   1.000  H
  H35      1.0000 0.48500  0.38810  0.50560  Biso   1.000  H
  H36      1.0000 0.01500  0.61190  0.00560  Biso   1.000  H
  H37      1.0000 0.48500  0.11190  0.50560  Biso   1.000  H
  H38      1.0000 0.01500  0.88810  0.00560  Biso   1.000  H
  H39      1.0000 0.51500  0.61190  0.49440  Biso   1.000  H
  H40      1.0000 0.98500  0.38810  0.99440  Biso   1.000  H
  C73      1.0000 0.56990  0.87810  0.63960  Biso   1.000  C
  C74      1.0000 0.93010  0.12190  0.13960  Biso   1.000  C
  C75      1.0000 0.43010  0.37810  0.36040  Biso   1.000  C
  C76      1.0000 0.06990  0.62190  0.86040  Biso   1.000  C
  C77      1.0000 0.43010  0.12190  0.36040  Biso   1.000  C
  C78      1.0000 0.06990  0.87810  0.86040  Biso   1.000  C
  C79      1.0000 0.56990  0.62190  0.63960  Biso   1.000  C
  C80      1.0000 0.93010  0.37810  0.13960  Biso   1.000  C
  H41      1.0000 0.59380  0.86610  0.56830  Biso   1.000  H
  H42      1.0000 0.90620  0.13390  0.06830  Biso   1.000  H
  H43      1.0000 0.40620  0.36610  0.43170  Biso   1.000  H
  H44      1.0000 0.09380  0.63390  0.93170  Biso   1.000  H
  H45      1.0000 0.40620  0.13390  0.43170  Biso   1.000  H
  H46      1.0000 0.09380  0.86610  0.93170  Biso   1.000  H
  H47      1.0000 0.59380  0.63390  0.56830  Biso   1.000  H
  H48      1.0000 0.90620  0.36610  0.06830  Biso   1.000  H
  C81      1.0000 0.58130  0.88240  0.78820  Biso   1.000  C
  C82      1.0000 0.91870  0.11760  0.28820  Biso   1.000  C
  C83      1.0000 0.41870  0.38240  0.21180  Biso   1.000  C
  C84      1.0000 0.08130  0.61760  0.71180  Biso   1.000  C
  C85      1.0000 0.41870  0.11760  0.21180  Biso   1.000  C
  C86      1.0000 0.08130  0.88240  0.71180  Biso   1.000  C
  C87      1.0000 0.58130  0.61760  0.78820  Biso   1.000  C
  C88      1.0000 0.91870  0.38240  0.28820  Biso   1.000  C
  H49      1.0000 0.61340  0.87500  0.81620  Biso   1.000  H
  H50      1.0000 0.88660  0.12500  0.31620  Biso   1.000  H
  H51      1.0000 0.38660  0.37500  0.18380  Biso   1.000  H
  H52      1.0000 0.11340  0.62500  0.68380  Biso   1.000  H
  H53      1.0000 0.38660  0.12500  0.18380  Biso   1.000  H
  H54      1.0000 0.11340  0.87500  0.68380  Biso   1.000  H
  H55      1.0000 0.61340  0.62500  0.81620  Biso   1.000  H
  H56      1.0000 0.88660  0.37500  0.31620  Biso   1.000  H
  C89      1.0000 0.50240  0.91130  0.85190  Biso   1.000  C
  C90      1.0000 0.99760  0.08870  0.35190  Biso   1.000  C
  C91      1.0000 0.49760  0.41130  0.14810  Biso   1.000  C
  C92      1.0000 0.00240  0.58870  0.64810  Biso   1.000  C
  C93      1.0000 0.49760  0.08870  0.14810  Biso   1.000  C
  C94      1.0000 0.00240  0.91130  0.64810  Biso   1.000  C
  C95      1.0000 0.50240  0.58870  0.85190  Biso   1.000  C
  C96      1.0000 0.99760  0.41130  0.35190  Biso   1.000  C
  H57      1.0000 0.47900  0.92230  0.92510  Biso   1.000  H
  H58      1.0000 0.02100  0.07770  0.42510  Biso   1.000  H
  H59      1.0000 0.52100  0.42230  0.07490  Biso   1.000  H
  H60      1.0000 0.97900  0.57770  0.57490  Biso   1.000  H
  H61      1.0000 0.52100  0.07770  0.07490  Biso   1.000  H
  H62      1.0000 0.97900  0.92230  0.57490  Biso   1.000  H
  H63      1.0000 0.47900  0.57770  0.92510  Biso   1.000  H
  H64      1.0000 0.02100  0.42230  0.42510  Biso   1.000  H
  N1       1.0000 0.24340  0.88970  0.29590  Biso   1.000  N
  N2       1.0000 0.25660  0.11030  0.79590  Biso   1.000  N
  N3       1.0000 0.75660  0.38970  0.70410  Biso   1.000  N
  N4       1.0000 0.74340  0.61030  0.20410  Biso   1.000  N
  N5       1.0000 0.75660  0.11030  0.70410  Biso   1.000  N
  N6       1.0000 0.74340  0.88970  0.20410  Biso   1.000  N
  N7       1.0000 0.24340  0.61030  0.29590  Biso   1.000  N
  N8       1.0000 0.25660  0.38970  0.79590  Biso   1.000  N
  N9       1.0000 0.36930  0.01540  0.65920  Biso   1.000  N
  N10      1.0000 0.13070  0.98460  0.15920  Biso   1.000  N
  N11      1.0000 0.63070  0.51540  0.34080  Biso   1.000  N
  N12      1.0000 0.86930  0.48460  0.84080  Biso   1.000  N
  N13      1.0000 0.63070  0.98460  0.34080  Biso   1.000  N
  N14      1.0000 0.86930  0.01540  0.84080  Biso   1.000  N
  N15      1.0000 0.36930  0.48460  0.65920  Biso   1.000  N
  N16      1.0000 0.13070  0.51540  0.15920  Biso   1.000  N
  N17      1.0000 0.41380  0.01460  0.72630  Biso   1.000  N
  N18      1.0000 0.08620  0.98540  0.22630  Biso   1.000  N
  N19      1.0000 0.58620  0.51460  0.27370  Biso   1.000  N
  N20      1.0000 0.91380  0.48540  0.77370  Biso   1.000  N
  N21      1.0000 0.58620  0.98540  0.27370  Biso   1.000  N
  N22      1.0000 0.91380  0.01460  0.77370  Biso   1.000  N
  N23      1.0000 0.41380  0.48540  0.72630  Biso   1.000  N
  N24      1.0000 0.08620  0.51460  0.22630  Biso   1.000  N
  N25      1.0000 0.54790  0.89680  0.89650  Biso   1.000  N
  N26      1.0000 0.95210  0.10320  0.39650  Biso   1.000  N
  N27      1.0000 0.45210  0.39680  0.10350  Biso   1.000  N
  N28      1.0000 0.04790  0.60320  0.60350  Biso   1.000  N
  N29      1.0000 0.45210  0.10320  0.10350  Biso   1.000  N
  N30      1.0000 0.04790  0.89680  0.60350  Biso   1.000  N
  N31      1.0000 0.54790  0.60320  0.89650  Biso   1.000  N
  N32      1.0000 0.95210  0.39680  0.39650  Biso   1.000  N
  N33      1.0000 0.41200  0.88610  0.55370  Biso   1.000  N
  N34      1.0000 0.08800  0.11390  0.05370  Biso   1.000  N
  N35      1.0000 0.58800  0.38610  0.44630  Biso   1.000  N
  N36      1.0000 0.91200  0.61390  0.94630  Biso   1.000  N
  N37      1.0000 0.58800  0.11390  0.44630  Biso   1.000  N
  N38      1.0000 0.91200  0.88610  0.94630  Biso   1.000  N
  N39      1.0000 0.41200  0.61390  0.55370  Biso   1.000  N
  N40      1.0000 0.08800  0.38610  0.05370  Biso   1.000  N
