data_image0
_cell_length_a       17.432
_cell_length_b       3.8123
_cell_length_c       16.734
_cell_angle_alpha    90
_cell_angle_beta     90
_cell_angle_gamma    90

_symmetry_space_group_name_H-M    "P 1"
_symmetry_int_tables_number       1

loop_
  _symmetry_equiv_pos_as_xyz
  'x, y, z'

loop_
  _atom_site_label
  _atom_site_occupancy
  _atom_site_fract_x
  _atom_site_fract_y
  _atom_site_fract_z
  _atom_site_thermal_displace_type
  _atom_site_B_iso_or_equiv
  _atom_site_type_symbol
  Cu1      1.0000 0.12416  0.42330  0.50000  Biso   1.000  Cu
  Cu2      1.0000 0.87584  0.57670  0.00000  Biso   1.000  Cu
  Cu3      1.0000 0.37584  0.42330  0.00000  Biso   1.000  Cu
  Cu4      1.0000 0.62416  0.57670  0.50000  Biso   1.000  Cu
  S1       1.0000 0.17001  0.88840  0.43013  Biso   1.000  S
  S2       1.0000 0.82999  0.11160  0.93013  Biso   1.000  S
  S3       1.0000 0.32999  0.88840  0.93013  Biso   1.000  S
  S4       1.0000 0.67001  0.11160  0.43013  Biso   1.000  S
  N1       1.0000 0.15040  0.38600  0.61700  Biso   1.000  N
  N2       1.0000 0.84960  0.61400  0.11700  Biso   1.000  N
  N3       1.0000 0.34960  0.38600  0.11700  Biso   1.000  N
  N4       1.0000 0.65040  0.61400  0.61700  Biso   1.000  N
  N5       1.0000 0.02520  0.19300  0.65280  Biso   1.000  N
  N6       1.0000 0.97480  0.80700  0.15280  Biso   1.000  N
  N7       1.0000 0.47480  0.19300  0.15280  Biso   1.000  N
  N8       1.0000 0.52520  0.80700  0.65280  Biso   1.000  N
  N9       1.0000 0.01090  0.32060  0.51540  Biso   1.000  N
  N10      1.0000 0.98910  0.67940  0.01540  Biso   1.000  N
  N11      1.0000 0.48910  0.32060  0.01540  Biso   1.000  N
  N12      1.0000 0.51090  0.67940  0.51540  Biso   1.000  N
  N13      1.0000 0.07370  0.92700  0.29550  Biso   1.000  N
  N14      1.0000 0.92630  0.07300  0.79550  Biso   1.000  N
  N15      1.0000 0.42630  0.92700  0.79550  Biso   1.000  N
  N16      1.0000 0.57370  0.07300  0.29550  Biso   1.000  N
  C1       1.0000 0.22150  0.46700  0.64130  Biso   1.000  C
  C2       1.0000 0.77850  0.53300  0.14130  Biso   1.000  C
  C3       1.0000 0.27850  0.46700  0.14130  Biso   1.000  C
  C4       1.0000 0.72150  0.53300  0.64130  Biso   1.000  C
  C5       1.0000 0.24650  0.43700  0.71870  Biso   1.000  C
  C6       1.0000 0.75350  0.56300  0.21870  Biso   1.000  C
  C7       1.0000 0.25350  0.43700  0.21870  Biso   1.000  C
  C8       1.0000 0.74650  0.56300  0.71870  Biso   1.000  C
  C9       1.0000 0.19460  0.32800  0.77460  Biso   1.000  C
  C10      1.0000 0.80540  0.67200  0.27460  Biso   1.000  C
  C11      1.0000 0.30540  0.32800  0.27460  Biso   1.000  C
  C12      1.0000 0.69460  0.67200  0.77460  Biso   1.000  C
  C13      1.0000 0.12110  0.24900  0.75280  Biso   1.000  C
  C14      1.0000 0.87890  0.75100  0.25280  Biso   1.000  C
  C15      1.0000 0.37890  0.24900  0.25280  Biso   1.000  C
  C16      1.0000 0.62110  0.75100  0.75280  Biso   1.000  C
  C17      1.0000 0.09970  0.28100  0.67270  Biso   1.000  C
  C18      1.0000 0.90030  0.71900  0.17270  Biso   1.000  C
  C19      1.0000 0.40030  0.28100  0.17270  Biso   1.000  C
  C20      1.0000 0.59970  0.71900  0.67270  Biso   1.000  C
  C21      1.0000 0.98270  0.19500  0.58360  Biso   1.000  C
  C22      1.0000 0.01730  0.80500  0.08360  Biso   1.000  C
  C23      1.0000 0.51730  0.19500  0.08360  Biso   1.000  C
  C24      1.0000 0.48270  0.80500  0.58360  Biso   1.000  C
  C25      1.0000 0.90780  0.05900  0.58850  Biso   1.000  C
  C26      1.0000 0.09220  0.94100  0.08850  Biso   1.000  C
  C27      1.0000 0.59220  0.05900  0.08850  Biso   1.000  C
  C28      1.0000 0.40780  0.94100  0.58850  Biso   1.000  C
  C29      1.0000 0.86340  0.05700  0.52130  Biso   1.000  C
  C30      1.0000 0.13660  0.94300  0.02130  Biso   1.000  C
  C31      1.0000 0.63660  0.05700  0.02130  Biso   1.000  C
  C32      1.0000 0.36340  0.94300  0.52130  Biso   1.000  C
  C33      1.0000 0.89120  0.19600  0.45060  Biso   1.000  C
  C34      1.0000 0.10880  0.80400  0.95060  Biso   1.000  C
  C35      1.0000 0.60880  0.19600  0.95060  Biso   1.000  C
  C36      1.0000 0.39120  0.80400  0.45060  Biso   1.000  C
  C37      1.0000 0.96530  0.32000  0.45090  Biso   1.000  C
  C38      1.0000 0.03470  0.68000  0.95090  Biso   1.000  C
  C39      1.0000 0.53470  0.32000  0.95090  Biso   1.000  C
  C40      1.0000 0.46530  0.68000  0.45090  Biso   1.000  C
  C41      1.0000 0.11240  0.90800  0.35060  Biso   1.000  C
  C42      1.0000 0.88760  0.09200  0.85060  Biso   1.000  C
  C43      1.0000 0.38760  0.90800  0.85060  Biso   1.000  C
  C44      1.0000 0.61240  0.09200  0.35060  Biso   1.000  C
  H1       1.0000 0.99930  0.11940  0.69320  Biso   1.000  H
  H2       1.0000 0.00070  0.88060  0.19320  Biso   1.000  H
  H3       1.0000 0.50070  0.11940  0.19320  Biso   1.000  H
  H4       1.0000 0.49930  0.88060  0.69320  Biso   1.000  H
  H5       1.0000 0.25610  0.54820  0.60320  Biso   1.000  H
  H6       1.0000 0.74390  0.45180  0.10320  Biso   1.000  H
  H7       1.0000 0.24390  0.54820  0.10320  Biso   1.000  H
  H8       1.0000 0.75610  0.45180  0.60320  Biso   1.000  H
  H9       1.0000 0.29690  0.48860  0.73260  Biso   1.000  H
  H10      1.0000 0.70310  0.51140  0.23260  Biso   1.000  H
  H11      1.0000 0.20310  0.48860  0.23260  Biso   1.000  H
  H12      1.0000 0.79690  0.51140  0.73260  Biso   1.000  H
  H13      1.0000 0.20940  0.30800  0.82780  Biso   1.000  H
  H14      1.0000 0.79060  0.69200  0.32780  Biso   1.000  H
  H15      1.0000 0.29060  0.30800  0.32780  Biso   1.000  H
  H16      1.0000 0.70940  0.69200  0.82780  Biso   1.000  H
  H17      1.0000 0.08580  0.17530  0.79090  Biso   1.000  H
  H18      1.0000 0.91420  0.82470  0.29090  Biso   1.000  H
  H19      1.0000 0.41420  0.17530  0.29090  Biso   1.000  H
  H20      1.0000 0.58580  0.82470  0.79090  Biso   1.000  H
  H21      1.0000 0.88900  0.97110  0.63660  Biso   1.000  H
  H22      1.0000 0.11100  0.02890  0.13660  Biso   1.000  H
  H23      1.0000 0.61100  0.97110  0.13660  Biso   1.000  H
  H24      1.0000 0.38900  0.02890  0.63660  Biso   1.000  H
  H25      1.0000 0.81430  0.96320  0.52310  Biso   1.000  H
  H26      1.0000 0.18570  0.03680  0.02310  Biso   1.000  H
  H27      1.0000 0.68570  0.96320  0.02310  Biso   1.000  H
  H28      1.0000 0.31430  0.03680  0.52310  Biso   1.000  H
  H29      1.0000 0.86110  0.20430  0.40470  Biso   1.000  H
  H30      1.0000 0.13890  0.79570  0.90470  Biso   1.000  H
  H31      1.0000 0.63890  0.20430  0.90470  Biso   1.000  H
  H32      1.0000 0.36110  0.79570  0.40470  Biso   1.000  H
  H33      1.0000 0.98490  0.41010  0.40340  Biso   1.000  H
  H34      1.0000 0.01510  0.58990  0.90340  Biso   1.000  H
  H35      1.0000 0.51510  0.41010  0.90340  Biso   1.000  H
  H36      1.0000 0.48490  0.58990  0.40340  Biso   1.000  H
