data_image0
_cell_length_a       7.1454
_cell_length_b       16.836
_cell_length_c       10.562
_cell_angle_alpha    90
_cell_angle_beta     90
_cell_angle_gamma    90

_symmetry_space_group_name_H-M    "P 1"
_symmetry_int_tables_number       1

loop_
  _symmetry_equiv_pos_as_xyz
  'x, y, z'

loop_
  _atom_site_label
  _atom_site_occupancy
  _atom_site_fract_x
  _atom_site_fract_y
  _atom_site_fract_z
  _atom_site_thermal_displace_type
  _atom_site_B_iso_or_equiv
  _atom_site_type_symbol
  Cu1      1.0000 0.60898  0.69178  0.47998  Biso   1.000  Cu
  Cu2      1.0000 0.39102  0.30822  0.97998  Biso   1.000  Cu
  Cu3      1.0000 0.10898  0.30822  0.47998  Biso   1.000  Cu
  Cu4      1.0000 0.89102  0.69178  0.97998  Biso   1.000  Cu
  S1       1.0000 0.92250  0.68358  0.53720  Biso   1.000  S
  S2       1.0000 0.07750  0.31642  0.03720  Biso   1.000  S
  S3       1.0000 0.42250  0.31642  0.53720  Biso   1.000  S
  S4       1.0000 0.57750  0.68358  0.03720  Biso   1.000  S
  N1       1.0000 0.46030  0.61230  0.59700  Biso   1.000  N
  N2       1.0000 0.53970  0.38770  0.09700  Biso   1.000  N
  N3       1.0000 0.96030  0.38770  0.59700  Biso   1.000  N
  N4       1.0000 0.03970  0.61230  0.09700  Biso   1.000  N
  N5       1.0000 0.38800  0.65030  0.69900  Biso   1.000  N
  N6       1.0000 0.61200  0.34970  0.19900  Biso   1.000  N
  N7       1.0000 0.88800  0.34970  0.69900  Biso   1.000  N
  N8       1.0000 0.11200  0.65030  0.19900  Biso   1.000  N
  N9       1.0000 0.45910  0.76830  0.60150  Biso   1.000  N
  N10      1.0000 0.54090  0.23170  0.10150  Biso   1.000  N
  N11      1.0000 0.95910  0.23170  0.60150  Biso   1.000  N
  N12      1.0000 0.04090  0.76830  0.10150  Biso   1.000  N
  N13      1.0000 0.46000  0.84810  0.59350  Biso   1.000  N
  N14      1.0000 0.54000  0.15190  0.09350  Biso   1.000  N
  N15      1.0000 0.96000  0.15190  0.59350  Biso   1.000  N
  N16      1.0000 0.04000  0.84810  0.09350  Biso   1.000  N
  N17      1.0000 0.39730  0.97280  0.67560  Biso   1.000  N
  N18      1.0000 0.60270  0.02720  0.17560  Biso   1.000  N
  N19      1.0000 0.89730  0.02720  0.67560  Biso   1.000  N
  N20      1.0000 0.10270  0.97280  0.17560  Biso   1.000  N
  N21      1.0000 0.34730  0.01880  0.77410  Biso   1.000  N
  N22      1.0000 0.65270  0.98120  0.27410  Biso   1.000  N
  N23      1.0000 0.84730  0.98120  0.77410  Biso   1.000  N
  N24      1.0000 0.15270  0.01880  0.27410  Biso   1.000  N
  N25      1.0000 0.90410  0.69180  0.80120  Biso   1.000  N
  N26      1.0000 0.09590  0.30820  0.30120  Biso   1.000  N
  N27      1.0000 0.40410  0.30820  0.80120  Biso   1.000  N
  N28      1.0000 0.59590  0.69180  0.30120  Biso   1.000  N
  C1       1.0000 0.43910  0.53610  0.61930  Biso   1.000  C
  C2       1.0000 0.56090  0.46390  0.11930  Biso   1.000  C
  C3       1.0000 0.93910  0.46390  0.61930  Biso   1.000  C
  C4       1.0000 0.06090  0.53610  0.11930  Biso   1.000  C
  H1       1.0000 0.47400  0.49580  0.56400  Biso   1.000  H
  H2       1.0000 0.52600  0.50420  0.06400  Biso   1.000  H
  H3       1.0000 0.97400  0.50420  0.56400  Biso   1.000  H
  H4       1.0000 0.02600  0.49580  0.06400  Biso   1.000  H
  C5       1.0000 0.35660  0.52390  0.73790  Biso   1.000  C
  C6       1.0000 0.64340  0.47610  0.23790  Biso   1.000  C
  C7       1.0000 0.85660  0.47610  0.73790  Biso   1.000  C
  C8       1.0000 0.14340  0.52390  0.23790  Biso   1.000  C
  H5       1.0000 0.32880  0.47560  0.77620  Biso   1.000  H
  H6       1.0000 0.67120  0.52440  0.27620  Biso   1.000  H
  H7       1.0000 0.82880  0.52440  0.77620  Biso   1.000  H
  H8       1.0000 0.17120  0.47560  0.27620  Biso   1.000  H
  C9       1.0000 0.32650  0.59680  0.78410  Biso   1.000  C
  C10      1.0000 0.67350  0.40320  0.28410  Biso   1.000  C
  C11      1.0000 0.82650  0.40320  0.78410  Biso   1.000  C
  C12      1.0000 0.17350  0.59680  0.28410  Biso   1.000  C
  H9       1.0000 0.27230  0.60850  0.86200  Biso   1.000  H
  H10      1.0000 0.72770  0.39150  0.36200  Biso   1.000  H
  H11      1.0000 0.77230  0.39150  0.86200  Biso   1.000  H
  H12      1.0000 0.22770  0.60850  0.36200  Biso   1.000  H
  C13      1.0000 0.38700  0.73360  0.70220  Biso   1.000  C
  C14      1.0000 0.61300  0.26640  0.20220  Biso   1.000  C
  C15      1.0000 0.88700  0.26640  0.70220  Biso   1.000  C
  C16      1.0000 0.11300  0.73360  0.20220  Biso   1.000  C
  C17      1.0000 0.31630  0.77520  0.80430  Biso   1.000  C
  C18      1.0000 0.68370  0.22480  0.30430  Biso   1.000  C
  C19      1.0000 0.81630  0.22480  0.80430  Biso   1.000  C
  C20      1.0000 0.18370  0.77520  0.30430  Biso   1.000  C
  H13      1.0000 0.26960  0.74920  0.87530  Biso   1.000  H
  H14      1.0000 0.73040  0.25080  0.37530  Biso   1.000  H
  H15      1.0000 0.76960  0.25080  0.87530  Biso   1.000  H
  H16      1.0000 0.23040  0.74920  0.37530  Biso   1.000  H
  C21      1.0000 0.31810  0.85480  0.79640  Biso   1.000  C
  C22      1.0000 0.68190  0.14520  0.29640  Biso   1.000  C
  C23      1.0000 0.81810  0.14520  0.79640  Biso   1.000  C
  C24      1.0000 0.18190  0.85480  0.29640  Biso   1.000  C
  H17      1.0000 0.27110  0.88560  0.86230  Biso   1.000  H
  H18      1.0000 0.72890  0.11440  0.36230  Biso   1.000  H
  H19      1.0000 0.77110  0.11440  0.86230  Biso   1.000  H
  H20      1.0000 0.22890  0.88560  0.36230  Biso   1.000  H
  C25      1.0000 0.39050  0.89030  0.68930  Biso   1.000  C
  C26      1.0000 0.60950  0.10970  0.18930  Biso   1.000  C
  C27      1.0000 0.89050  0.10970  0.68930  Biso   1.000  C
  C28      1.0000 0.10950  0.89030  0.18930  Biso   1.000  C
  C29      1.0000 0.36220  0.09210  0.73110  Biso   1.000  C
  C30      1.0000 0.63780  0.90790  0.23110  Biso   1.000  C
  C31      1.0000 0.86220  0.90790  0.73110  Biso   1.000  C
  C32      1.0000 0.13780  0.09210  0.23110  Biso   1.000  C
  H21      1.0000 0.33410  0.13730  0.77790  Biso   1.000  H
  H22      1.0000 0.66590  0.86270  0.27790  Biso   1.000  H
  H23      1.0000 0.83410  0.86270  0.77790  Biso   1.000  H
  H24      1.0000 0.16590  0.13730  0.27790  Biso   1.000  H
  C33      1.0000 0.42570  0.09280  0.60600  Biso   1.000  C
  C34      1.0000 0.57430  0.90720  0.10600  Biso   1.000  C
  C35      1.0000 0.92570  0.90720  0.60600  Biso   1.000  C
  C36      1.0000 0.07430  0.09280  0.10600  Biso   1.000  C
  H25      1.0000 0.45030  0.13710  0.55610  Biso   1.000  H
  H26      1.0000 0.54970  0.86290  0.05610  Biso   1.000  H
  H27      1.0000 0.95030  0.86290  0.55610  Biso   1.000  H
  H28      1.0000 0.04970  0.13710  0.05610  Biso   1.000  H
  C37      1.0000 0.44370  0.01680  0.57310  Biso   1.000  C
  C38      1.0000 0.55630  0.98320  0.07310  Biso   1.000  C
  C39      1.0000 0.94370  0.98320  0.57310  Biso   1.000  C
  C40      1.0000 0.05630  0.01680  0.07310  Biso   1.000  C
  H29      1.0000 0.48110  0.99760  0.49460  Biso   1.000  H
  H30      1.0000 0.51890  0.00240  0.99460  Biso   1.000  H
  H31      1.0000 0.98110  0.00240  0.49460  Biso   1.000  H
  H32      1.0000 0.01890  0.99760  0.99460  Biso   1.000  H
  C41      1.0000 0.90710  0.68940  0.69290  Biso   1.000  C
  C42      1.0000 0.09290  0.31060  0.19290  Biso   1.000  C
  C43      1.0000 0.40710  0.31060  0.69290  Biso   1.000  C
  C44      1.0000 0.59290  0.68940  0.19290  Biso   1.000  C
