data_image0
_cell_length_a       7.878
_cell_length_b       16.06
_cell_length_c       16.08
_cell_angle_alpha    108.931
_cell_angle_beta     97.139
_cell_angle_gamma    95.15

_symmetry_space_group_name_H-M    "P 1"
_symmetry_int_tables_number       1

loop_
  _symmetry_equiv_pos_as_xyz
  'x, y, z'

loop_
  _atom_site_label
  _atom_site_occupancy
  _atom_site_fract_x
  _atom_site_fract_y
  _atom_site_fract_z
  _atom_site_thermal_displace_type
  _atom_site_B_iso_or_equiv
  _atom_site_type_symbol
  C1       1.0000 0.40900  0.45400  0.21000  Biso   1.000  C
  C2       1.0000 0.59100  0.54600  0.79000  Biso   1.000  C
  H1       1.0000 0.44833  0.39979  0.20265  Biso   1.000  H
  H2       1.0000 0.55167  0.60021  0.79735  Biso   1.000  H
  C3       1.0000 0.35100  0.47390  0.13440  Biso   1.000  C
  C4       1.0000 0.64900  0.52610  0.86560  Biso   1.000  C
  H3       1.0000 0.35943  0.43430  0.07858  Biso   1.000  H
  H4       1.0000 0.64057  0.56570  0.92142  Biso   1.000  H
  C5       1.0000 0.28400  0.54940  0.14040  Biso   1.000  C
  C6       1.0000 0.71600  0.45060  0.85960  Biso   1.000  C
  C7       1.0000 0.28900  0.61020  0.22730  Biso   1.000  C
  C8       1.0000 0.71100  0.38980  0.77270  Biso   1.000  C
  H5       1.0000 0.25067  0.66492  0.23472  Biso   1.000  H
  H6       1.0000 0.74933  0.33508  0.76528  Biso   1.000  H
  C9       1.0000 0.35100  0.58820  0.30330  Biso   1.000  C
  C10      1.0000 0.64900  0.41180  0.69670  Biso   1.000  C
  H7       1.0000 0.35058  0.62761  0.36034  Biso   1.000  H
  H8       1.0000 0.64942  0.37239  0.63966  Biso   1.000  H
  C11      1.0000 0.20800  0.57150  0.06630  Biso   1.000  C
  C12      1.0000 0.79200  0.42850  0.93370  Biso   1.000  C
  C13      1.0000 0.15600  0.54390  0.91210  Biso   1.000  C
  C14      1.0000 0.84400  0.45610  0.08790  Biso   1.000  C
  C15      1.0000 0.07100  0.66710  0.01030  Biso   1.000  C
  C16      1.0000 0.92900  0.33290  0.98970  Biso   1.000  C
  C17      1.0000 0.21700  0.35900  0.71220  Biso   1.000  C
  C18      1.0000 0.78300  0.64100  0.28780  Biso   1.000  C
  H9       1.0000 0.25755  0.30416  0.69799  Biso   1.000  H
  H10      1.0000 0.74245  0.69584  0.30201  Biso   1.000  H
  C19      1.0000 0.22200  0.41360  0.80400  Biso   1.000  C
  C20      1.0000 0.77800  0.58640  0.19600  Biso   1.000  C
  H11      1.0000 0.27174  0.39527  0.84951  Biso   1.000  H
  H12      1.0000 0.72826  0.60473  0.15049  Biso   1.000  H
  C21      1.0000 0.15600  0.48900  0.82450  Biso   1.000  C
  C22      1.0000 0.84400  0.51100  0.17550  Biso   1.000  C
  C23      1.0000 0.09200  0.51600  0.75560  Biso   1.000  C
  C24      1.0000 0.90800  0.48400  0.24440  Biso   1.000  C
  H13      1.0000 0.04733  0.56943  0.76858  Biso   1.000  H
  H14      1.0000 0.95267  0.43057  0.23142  Biso   1.000  H
  C25      1.0000 0.09300  0.46620  0.66700  Biso   1.000  C
  C26      1.0000 0.90700  0.53380  0.33300  Biso   1.000  C
  H15      1.0000 0.05047  0.48681  0.62181  Biso   1.000  H
  H16      1.0000 0.94953  0.51319  0.37819  Biso   1.000  H
  C27      1.0000 0.14400  0.33500  0.55200  Biso   1.000  C
  C28      1.0000 0.85600  0.66500  0.44800  Biso   1.000  C
  H17      1.0000 0.16329  0.37292  0.51780  Biso   1.000  H
  H18      1.0000 0.83671  0.62708  0.48220  Biso   1.000  H
  H19      1.0000 0.03238  0.29981  0.52974  Biso   1.000  H
  H20      1.0000 0.96762  0.70019  0.47026  Biso   1.000  H
  H21      1.0000 0.23139  0.29596  0.54655  Biso   1.000  H
  H22      1.0000 0.76861  0.70404  0.45345  Biso   1.000  H
  C29      1.0000 0.91300  0.88400  0.12900  Biso   1.000  C
  C30      1.0000 0.08700  0.11600  0.87100  Biso   1.000  C
  H23      1.0000 0.91634  0.92333  0.18642  Biso   1.000  H
  H24      1.0000 0.08366  0.07667  0.81358  Biso   1.000  H
  C31      1.0000 0.98900  0.80350  0.11220  Biso   1.000  C
  C32      1.0000 0.01100  0.19650  0.88780  Biso   1.000  C
  H25      1.0000 0.03616  0.78808  0.16015  Biso   1.000  H
  H26      1.0000 0.96384  0.21192  0.83985  Biso   1.000  H
  C33      1.0000 0.99300  0.74740  0.02490  Biso   1.000  C
  C34      1.0000 0.00700  0.25260  0.97510  Biso   1.000  C
  C35      1.0000 0.91400  0.77300  0.95430  Biso   1.000  C
  C36      1.0000 0.08600  0.22700  0.04570  Biso   1.000  C
  H27      1.0000 0.91803  0.73924  0.89562  Biso   1.000  H
  H28      1.0000 0.08197  0.26076  0.10438  Biso   1.000  H
  C37      1.0000 0.83100  0.84700  0.97110  Biso   1.000  C
  C38      1.0000 0.16900  0.15300  0.02890  Biso   1.000  C
  H29      1.0000 0.77382  0.85989  0.92343  Biso   1.000  H
  H30      1.0000 0.22618  0.14011  0.07657  Biso   1.000  H
  C39      1.0000 0.73900  0.98000  0.06600  Biso   1.000  C
  C40      1.0000 0.26100  0.02000  0.93400  Biso   1.000  C
  H31      1.0000 0.78482  0.01593  0.03472  Biso   1.000  H
  H32      1.0000 0.21518  0.98407  0.96528  Biso   1.000  H
  H33      1.0000 0.75461  0.01369  0.12858  Biso   1.000  H
  H34      1.0000 0.24539  0.98631  0.87142  Biso   1.000  H
  H35      1.0000 0.61812  0.96061  0.04380  Biso   1.000  H
  H36      1.0000 0.38188  0.03939  0.95620  Biso   1.000  H
  Cu1      1.0000 0.41840  0.45760  0.39550  Biso   1.000  Cu
  Cu2      1.0000 0.58160  0.54240  0.60450  Biso   1.000  Cu
  I1       1.0000 0.11380  0.83386  0.35616  Biso   1.000  I
  I2       1.0000 0.88620  0.16614  0.64384  Biso   1.000  I
  I3       1.0000 0.64150  0.87903  0.49810  Biso   1.000  I
  I4       1.0000 0.35850  0.12097  0.50190  Biso   1.000  I
  I5       1.0000 0.81740  0.07171  0.34881  Biso   1.000  I
  I6       1.0000 0.18260  0.92829  0.65119  Biso   1.000  I
  I7       1.0000 0.53320  0.79140  0.17549  Biso   1.000  I
  I8       1.0000 0.46680  0.20860  0.82451  Biso   1.000  I
  I9       1.0000 0.28790  0.03242  0.20309  Biso   1.000  I
  I10      1.0000 0.71210  0.96758  0.79691  Biso   1.000  I
  I11      1.0000 0.64200  0.23199  0.16476  Biso   1.000  I
  I12      1.0000 0.35800  0.76801  0.83524  Biso   1.000  I
  I13      1.0000 0.19330  0.30684  0.31886  Biso   1.000  I
  I14      1.0000 0.80670  0.69316  0.68114  Biso   1.000  I
  I15      1.0000 0.70230  0.41872  0.46866  Biso   1.000  I
  I16      1.0000 0.29770  0.58128  0.53134  Biso   1.000  I
  N1       1.0000 0.41000  0.50960  0.29210  Biso   1.000  N
  N2       1.0000 0.59000  0.49040  0.70790  Biso   1.000  N
  N3       1.0000 0.15300  0.38990  0.64780  Biso   1.000  N
  N4       1.0000 0.84700  0.61010  0.35220  Biso   1.000  N
  N5       1.0000 0.83100  0.90090  0.05280  Biso   1.000  N
  N6       1.0000 0.16900  0.09910  0.94720  Biso   1.000  N
  N7       1.0000 0.13700  0.64600  0.08010  Biso   1.000  N
  N8       1.0000 0.86300  0.35400  0.91990  Biso   1.000  N
  N9       1.0000 0.22200  0.51970  0.98140  Biso   1.000  N
  N10      1.0000 0.77800  0.48030  0.01860  Biso   1.000  N
  N11      1.0000 0.07600  0.61880  0.92630  Biso   1.000  N
  N12      1.0000 0.92400  0.38120  0.07370  Biso   1.000  N
  Pb1      1.0000 0.00000  0.00000  0.50000  Biso   1.000  Pb
  Pb2      1.0000 0.46331  0.94006  0.33447  Biso   1.000  Pb
  Pb3      1.0000 0.53669  0.05994  0.66553  Biso   1.000  Pb
  Pb4      1.0000 0.51491  0.20968  0.32408  Biso   1.000  Pb
  Pb5      1.0000 0.48509  0.79032  0.67592  Biso   1.000  Pb
