data_image0
_cell_length_a       8.5728
_cell_length_b       13.2846
_cell_length_c       15.9017
_cell_angle_alpha    112.193
_cell_angle_beta     94.642
_cell_angle_gamma    95.44

_symmetry_space_group_name_H-M    "P 1"
_symmetry_int_tables_number       1

loop_
  _symmetry_equiv_pos_as_xyz
  'x, y, z'

loop_
  _atom_site_label
  _atom_site_occupancy
  _atom_site_fract_x
  _atom_site_fract_y
  _atom_site_fract_z
  _atom_site_thermal_displace_type
  _atom_site_B_iso_or_equiv
  _atom_site_type_symbol
  C1       1.0000 0.53000  0.63300  0.90130  Biso   1.000  C
  C2       1.0000 0.47000  0.36700  0.09870  Biso   1.000  C
  H1       1.0000 0.49182  0.70192  0.92364  Biso   1.000  H
  H2       1.0000 0.50818  0.29808  0.07636  Biso   1.000  H
  C3       1.0000 0.61940  0.59870  0.96210  Biso   1.000  C
  C4       1.0000 0.38060  0.40130  0.03790  Biso   1.000  C
  H3       1.0000 0.64183  0.64586  0.02499  Biso   1.000  H
  H4       1.0000 0.35817  0.35414  0.97501  Biso   1.000  H
  C5       1.0000 0.67480  0.49780  0.93170  Biso   1.000  C
  C6       1.0000 0.32520  0.50220  0.06830  Biso   1.000  C
  C7       1.0000 0.63780  0.43290  0.84150  Biso   1.000  C
  C8       1.0000 0.36220  0.56710  0.15850  Biso   1.000  C
  H5       1.0000 0.67127  0.36245  0.81759  Biso   1.000  H
  H6       1.0000 0.32873  0.63755  0.18241  Biso   1.000  H
  C9       1.0000 0.55200  0.46960  0.78540  Biso   1.000  C
  C10      1.0000 0.44800  0.53040  0.21460  Biso   1.000  C
  H7       1.0000 0.52805  0.42179  0.72280  Biso   1.000  H
  H8       1.0000 0.47195  0.57821  0.27720  Biso   1.000  H
  C11      1.0000 0.77390  0.46720  0.99540  Biso   1.000  C
  C12      1.0000 0.22610  0.53280  0.00460  Biso   1.000  C
  C13      1.0000 0.89040  0.73210  0.36930  Biso   1.000  C
  C14      1.0000 0.10960  0.26790  0.63070  Biso   1.000  C
  H9       1.0000 0.84256  0.79638  0.39665  Biso   1.000  H
  H10      1.0000 0.15744  0.20362  0.60335  Biso   1.000  H
  C15      1.0000 0.85560  0.66940  0.27590  Biso   1.000  C
  C16      1.0000 0.14440  0.33060  0.72410  Biso   1.000  C
  H11      1.0000 0.78433  0.69044  0.23856  Biso   1.000  H
  H12      1.0000 0.21567  0.30956  0.76144  Biso   1.000  H
  C17      1.0000 0.92470  0.57870  0.23950  Biso   1.000  C
  C18      1.0000 0.07530  0.42130  0.76050  Biso   1.000  C
  C19      1.0000 0.02770  0.54640  0.29070  Biso   1.000  C
  C20      1.0000 0.97230  0.45360  0.70930  Biso   1.000  C
  H13      1.0000 0.07638  0.48219  0.26439  Biso   1.000  H
  H14      1.0000 0.92362  0.51781  0.73561  Biso   1.000  H
  C21      1.0000 0.05850  0.61290  0.38460  Biso   1.000  C
  C22      1.0000 0.94150  0.38710  0.61540  Biso   1.000  C
  H15      1.0000 0.12962  0.59265  0.42253  Biso   1.000  H
  H16      1.0000 0.87038  0.40735  0.57747  Biso   1.000  H
  C23      1.0000 0.02400  0.76970  0.52300  Biso   1.000  C
  C24      1.0000 0.97600  0.23030  0.47700  Biso   1.000  C
  H17      1.0000 0.07737  0.72962  0.55469  Biso   1.000  H
  H18      1.0000 0.92263  0.27038  0.44531  Biso   1.000  H
  H19      1.0000 0.92252  0.78546  0.54651  Biso   1.000  H
  H20      1.0000 0.07748  0.21454  0.45349  Biso   1.000  H
  H21      1.0000 0.08984  0.83868  0.53378  Biso   1.000  H
  H22      1.0000 0.91016  0.16132  0.46622  Biso   1.000  H
  C25      1.0000 0.88870  0.50440  0.13900  Biso   1.000  C
  C26      1.0000 0.11130  0.49560  0.86100  Biso   1.000  C
  C27      1.0000 0.14700  0.12890  0.03030  Biso   1.000  C
  C28      1.0000 0.85300  0.87110  0.96970  Biso   1.000  C
  H23      1.0000 0.19488  0.10769  0.07592  Biso   1.000  H
  H24      1.0000 0.80512  0.89231  0.92408  Biso   1.000  H
  C29      1.0000 0.07100  0.21920  0.05780  Biso   1.000  C
  C30      1.0000 0.92900  0.78080  0.94220  Biso   1.000  C
  H25      1.0000 0.06471  0.25982  0.12075  Biso   1.000  H
  H26      1.0000 0.93529  0.74018  0.87925  Biso   1.000  H
  C31      1.0000 0.00150  0.24980  0.99030  Biso   1.000  C
  C32      1.0000 0.99850  0.75020  0.00970  Biso   1.000  C
  C33      1.0000 0.01120  0.18690  0.90090  Biso   1.000  C
  C34      1.0000 0.98880  0.81310  0.09910  Biso   1.000  C
  H27      1.0000 0.96442  0.20511  0.85316  Biso   1.000  H
  H28      1.0000 0.03558  0.79489  0.14684  Biso   1.000  H
  C35      1.0000 0.09000  0.09650  0.88090  Biso   1.000  C
  C36      1.0000 0.91000  0.90350  0.11910  Biso   1.000  C
  H29      1.0000 0.09419  0.05282  0.81832  Biso   1.000  H
  H30      1.0000 0.90581  0.94718  0.18168  Biso   1.000  H
  C37      1.0000 0.92500  0.35280  0.02320  Biso   1.000  C
  C38      1.0000 0.07500  0.64720  0.97680  Biso   1.000  C
  Cu1      1.0000 0.44520  0.63640  0.72123  Biso   1.000  Cu
  Cu2      1.0000 0.55480  0.36360  0.27877  Biso   1.000  Cu
  Cu3      1.0000 0.55000  0.61238  0.55465  Biso   1.000  Cu
  Cu4      1.0000 0.45000  0.38762  0.44535  Biso   1.000  Cu
  Cu5      1.0000 0.33450  0.96870  0.92440  Biso   1.000  Cu
  Cu6      1.0000 0.66550  0.03130  0.07560  Biso   1.000  Cu
  I1       1.0000 0.28007  0.51023  0.56519  Biso   1.000  I
  I2       1.0000 0.71993  0.48977  0.43481  Biso   1.000  I
  I3       1.0000 0.74155  0.71295  0.70629  Biso   1.000  I
  I4       1.0000 0.25845  0.28705  0.29371  Biso   1.000  I
  I5       1.0000 0.46943  0.75632  0.48586  Biso   1.000  I
  I6       1.0000 0.53057  0.24368  0.51414  Biso   1.000  I
  I7       1.0000 0.26172  0.78997  0.78225  Biso   1.000  I
  I8       1.0000 0.73828  0.21003  0.21775  Biso   1.000  I
  I9       1.0000 0.60516  0.08090  0.92224  Biso   1.000  I
  I10      1.0000 0.39484  0.91910  0.07776  Biso   1.000  I
  I11      1.0000 0.31273  0.05981  0.67490  Biso   1.000  I
  I12      1.0000 0.68727  0.94019  0.32510  Biso   1.000  I
  I13      1.0000 0.80467  0.04763  0.64642  Biso   1.000  I
  I14      1.0000 0.19533  0.95237  0.35358  Biso   1.000  I
  N1       1.0000 0.50000  0.56700  0.81100  Biso   1.000  N
  N2       1.0000 0.50000  0.43300  0.18900  Biso   1.000  N
  N3       1.0000 0.99380  0.70040  0.42120  Biso   1.000  N
  N4       1.0000 0.00620  0.29960  0.57880  Biso   1.000  N
  N5       1.0000 0.15810  0.06740  0.94120  Biso   1.000  N
  N6       1.0000 0.84190  0.93260  0.05880  Biso   1.000  N
  N7       1.0000 0.79520  0.53720  0.08610  Biso   1.000  N
  N8       1.0000 0.20480  0.46280  0.91390  Biso   1.000  N
  N9       1.0000 0.95730  0.41520  0.11160  Biso   1.000  N
  N10      1.0000 0.04270  0.58480  0.88840  Biso   1.000  N
  N11      1.0000 0.83920  0.37570  0.96010  Biso   1.000  N
  N12      1.0000 0.16080  0.62430  0.03990  Biso   1.000  N
  Pb1      1.0000 0.54413  0.91809  0.71783  Biso   1.000  Pb
  Pb2      1.0000 0.45587  0.08191  0.28217  Biso   1.000  Pb
  Pb3      1.0000 0.50000  0.00000  0.50000  Biso   1.000  Pb
