data_image0
_cell_length_a       9.5068
_cell_length_b       6.5035
_cell_length_c       11.4259
_cell_angle_alpha    90
_cell_angle_beta     104.572
_cell_angle_gamma    90

_symmetry_space_group_name_H-M    "P 1"
_symmetry_int_tables_number       1

loop_
  _symmetry_equiv_pos_as_xyz
  'x, y, z'

loop_
  _atom_site_label
  _atom_site_occupancy
  _atom_site_fract_x
  _atom_site_fract_y
  _atom_site_fract_z
  _atom_site_thermal_displace_type
  _atom_site_B_iso_or_equiv
  _atom_site_type_symbol
  Cu1      1.0000 0.98641  0.55929  0.86419  Biso   1.000  Cu
  Cu2      1.0000 0.01359  0.05929  0.63581  Biso   1.000  Cu
  Cu3      1.0000 0.01359  0.44071  0.13581  Biso   1.000  Cu
  Cu4      1.0000 0.98641  0.94071  0.36419  Biso   1.000  Cu
  Cl1      1.0000 0.15683  0.65605  0.04318  Biso   1.000  Cl
  Cl2      1.0000 0.84317  0.15605  0.45682  Biso   1.000  Cl
  Cl3      1.0000 0.84317  0.34395  0.95682  Biso   1.000  Cl
  Cl4      1.0000 0.15683  0.84395  0.54318  Biso   1.000  Cl
  S1       1.0000 0.11153  0.29782  0.77934  Biso   1.000  S
  S2       1.0000 0.88847  0.79782  0.72066  Biso   1.000  S
  S3       1.0000 0.88847  0.70218  0.22066  Biso   1.000  S
  S4       1.0000 0.11153  0.20218  0.27934  Biso   1.000  S
  O1       1.0000 0.43280  0.13430  0.86660  Biso   1.000  O
  O2       1.0000 0.56720  0.63430  0.63340  Biso   1.000  O
  O3       1.0000 0.56720  0.86570  0.13340  Biso   1.000  O
  O4       1.0000 0.43280  0.36570  0.36660  Biso   1.000  O
  C1       1.0000 0.19520  0.14400  0.91100  Biso   1.000  C
  C2       1.0000 0.80480  0.64400  0.58900  Biso   1.000  C
  C3       1.0000 0.80480  0.85600  0.08900  Biso   1.000  C
  C4       1.0000 0.19520  0.35600  0.41100  Biso   1.000  C
  H1       1.0000 0.23300  0.23390  0.97940  Biso   1.000  H
  H2       1.0000 0.76700  0.73390  0.52060  Biso   1.000  H
  H3       1.0000 0.76700  0.76610  0.02060  Biso   1.000  H
  H4       1.0000 0.23300  0.26610  0.47940  Biso   1.000  H
  H5       1.0000 0.12240  0.05570  0.93100  Biso   1.000  H
  H6       1.0000 0.87760  0.55570  0.56900  Biso   1.000  H
  H7       1.0000 0.87760  0.94430  0.06900  Biso   1.000  H
  H8       1.0000 0.12240  0.44430  0.43100  Biso   1.000  H
  C5       1.0000 0.31660  0.01410  0.88820  Biso   1.000  C
  C6       1.0000 0.68340  0.51410  0.61180  Biso   1.000  C
  C7       1.0000 0.68340  0.98590  0.11180  Biso   1.000  C
  C8       1.0000 0.31660  0.48590  0.38820  Biso   1.000  C
  H9       1.0000 0.35380  0.92620  0.95770  Biso   1.000  H
  H10      1.0000 0.64620  0.42620  0.54230  Biso   1.000  H
  H11      1.0000 0.64620  0.07380  0.04230  Biso   1.000  H
  H12      1.0000 0.35380  0.57380  0.45770  Biso   1.000  H
  H13      1.0000 0.27860  0.92630  0.81890  Biso   1.000  H
  H14      1.0000 0.72140  0.42630  0.68110  Biso   1.000  H
  H15      1.0000 0.72140  0.07370  0.18110  Biso   1.000  H
  H16      1.0000 0.27860  0.57370  0.31890  Biso   1.000  H
  C9       1.0000 0.39190  0.24770  0.75700  Biso   1.000  C
  C10      1.0000 0.60810  0.74770  0.74300  Biso   1.000  C
  C11      1.0000 0.60810  0.75230  0.24300  Biso   1.000  C
  C12      1.0000 0.39190  0.25230  0.25700  Biso   1.000  C
  H17      1.0000 0.35260  0.15410  0.69080  Biso   1.000  H
  H18      1.0000 0.64740  0.65410  0.80920  Biso   1.000  H
  H19      1.0000 0.64740  0.84590  0.30920  Biso   1.000  H
  H20      1.0000 0.35260  0.34590  0.19080  Biso   1.000  H
  H21      1.0000 0.47750  0.31210  0.74170  Biso   1.000  H
  H22      1.0000 0.52250  0.81210  0.75830  Biso   1.000  H
  H23      1.0000 0.52250  0.68790  0.25830  Biso   1.000  H
  H24      1.0000 0.47750  0.18790  0.24170  Biso   1.000  H
  C13      1.0000 0.28090  0.41050  0.76040  Biso   1.000  C
  C14      1.0000 0.71910  0.91050  0.73960  Biso   1.000  C
  C15      1.0000 0.71910  0.58950  0.23960  Biso   1.000  C
  C16      1.0000 0.28090  0.08950  0.26040  Biso   1.000  C
  H25      1.0000 0.26100  0.48890  0.68580  Biso   1.000  H
  H26      1.0000 0.73900  0.98890  0.81420  Biso   1.000  H
  H27      1.0000 0.73900  0.51110  0.31420  Biso   1.000  H
  H28      1.0000 0.26100  0.01110  0.18580  Biso   1.000  H
  H29      1.0000 0.31970  0.50410  0.82680  Biso   1.000  H
  H30      1.0000 0.68030  0.00410  0.67320  Biso   1.000  H
  H31      1.0000 0.68030  0.49590  0.17320  Biso   1.000  H
  H32      1.0000 0.31970  0.99590  0.32680  Biso   1.000  H
