data_image0
_cell_length_a       8.312
_cell_length_b       10.903
_cell_length_c       8.201
_cell_angle_alpha    92.53
_cell_angle_beta     113.77
_cell_angle_gamma    91.4

_symmetry_space_group_name_H-M    "P 1"
_symmetry_int_tables_number       1

loop_
  _symmetry_equiv_pos_as_xyz
  'x, y, z'

loop_
  _atom_site_label
  _atom_site_occupancy
  _atom_site_fract_x
  _atom_site_fract_y
  _atom_site_fract_z
  _atom_site_thermal_displace_type
  _atom_site_B_iso_or_equiv
  _atom_site_type_symbol
  Cu1      1.0000 0.45198  0.24391  0.23831  Biso   1.000  Cu
  Cu2      1.0000 0.54802  0.75609  0.76169  Biso   1.000  Cu
  S1       1.0000 0.85000  0.28354  0.17130  Biso   1.000  S
  S2       1.0000 0.15000  0.71646  0.82870  Biso   1.000  S
  F1       1.0000 0.84640  0.37760  0.88490  Biso   1.000  F
  F2       1.0000 0.15360  0.62240  0.11510  Biso   1.000  F
  F3       1.0000 0.60570  0.38840  0.91340  Biso   1.000  F
  F4       1.0000 0.39430  0.61160  0.08660  Biso   1.000  F
  F5       1.0000 0.67740  0.21870  0.83820  Biso   1.000  F
  F6       1.0000 0.32260  0.78130  0.16180  Biso   1.000  F
  O1       1.0000 0.71530  0.21830  0.20570  Biso   1.000  O
  O2       1.0000 0.28470  0.78170  0.79430  Biso   1.000  O
  O3       1.0000 0.99240  0.21160  0.17710  Biso   1.000  O
  O4       1.0000 0.00760  0.78840  0.82290  Biso   1.000  O
  O5       1.0000 0.90140  0.40290  0.26090  Biso   1.000  O
  O6       1.0000 0.09860  0.59710  0.73910  Biso   1.000  O
  N1       1.0000 0.28910  0.21210  0.98400  Biso   1.000  N
  N2       1.0000 0.71090  0.78790  0.01600  Biso   1.000  N
  N3       1.0000 0.05580  0.16090  0.62990  Biso   1.000  N
  N4       1.0000 0.94420  0.83910  0.37010  Biso   1.000  N
  N5       1.0000 0.48120  0.39810  0.38420  Biso   1.000  N
  N6       1.0000 0.51880  0.60190  0.61580  Biso   1.000  N
  N7       1.0000 0.47940  0.09680  0.38850  Biso   1.000  N
  N8       1.0000 0.52060  0.90320  0.61150  Biso   1.000  N
  C1       1.0000 0.73880  0.31630  0.93930  Biso   1.000  C
  C2       1.0000 0.26120  0.68370  0.06070  Biso   1.000  C
  C3       1.0000 0.22110  0.30060  0.87310  Biso   1.000  C
  C4       1.0000 0.77890  0.69940  0.12690  Biso   1.000  C
  C5       1.0000 0.10870  0.27460  0.70000  Biso   1.000  C
  C6       1.0000 0.89130  0.72540  0.30000  Biso   1.000  C
  C7       1.0000 0.12260  0.07340  0.74160  Biso   1.000  C
  C8       1.0000 0.87740  0.92660  0.25840  Biso   1.000  C
  C9       1.0000 0.23820  0.09730  0.91530  Biso   1.000  C
  C10      1.0000 0.76180  0.90270  0.08470  Biso   1.000  C
  C11      1.0000 0.63100  0.46600  0.45780  Biso   1.000  C
  C12      1.0000 0.36900  0.53400  0.54220  Biso   1.000  C
  C13      1.0000 0.35140  0.43320  0.42730  Biso   1.000  C
  C14      1.0000 0.64860  0.56680  0.57270  Biso   1.000  C
  C15      1.0000 0.34480  0.04460  0.41260  Biso   1.000  C
  C16      1.0000 0.65520  0.95540  0.58740  Biso   1.000  C
  C17      1.0000 0.63490  0.05110  0.47770  Biso   1.000  C
  C18      1.0000 0.36510  0.94890  0.52230  Biso   1.000  C
  H1       1.0000 0.25600  0.39100  0.92600  Biso   1.000  H
  H2       1.0000 0.74400  0.60900  0.07400  Biso   1.000  H
  H3       1.0000 0.06200  0.33300  0.62600  Biso   1.000  H
  H4       1.0000 0.93800  0.66700  0.37400  Biso   1.000  H
  H5       1.0000 0.09600  0.99400  0.69200  Biso   1.000  H
  H6       1.0000 0.90400  0.00600  0.30800  Biso   1.000  H
  H7       1.0000 0.27900  0.02800  0.98700  Biso   1.000  H
  H8       1.0000 0.72100  0.97200  0.01300  Biso   1.000  H
  H9       1.0000 0.71900  0.44300  0.42800  Biso   1.000  H
  H10      1.0000 0.28100  0.55700  0.57200  Biso   1.000  H
  H11      1.0000 0.24900  0.39300  0.37700  Biso   1.000  H
  H12      1.0000 0.75100  0.60700  0.62300  Biso   1.000  H
  H13      1.0000 0.24500  0.07600  0.36200  Biso   1.000  H
  H14      1.0000 0.75500  0.92400  0.63800  Biso   1.000  H
  H15      1.0000 0.73200  0.08900  0.47000  Biso   1.000  H
  H16      1.0000 0.26800  0.91100  0.53000  Biso   1.000  H
