data_image0
_cell_length_a       11.1491
_cell_length_b       10.366
_cell_length_c       17.858
_cell_angle_alpha    90
_cell_angle_beta     98.33
_cell_angle_gamma    90

_symmetry_space_group_name_H-M    "P 1"
_symmetry_int_tables_number       1

loop_
  _symmetry_equiv_pos_as_xyz
  'x, y, z'

loop_
  _atom_site_label
  _atom_site_occupancy
  _atom_site_fract_x
  _atom_site_fract_y
  _atom_site_fract_z
  _atom_site_thermal_displace_type
  _atom_site_B_iso_or_equiv
  _atom_site_type_symbol
  Cu1      1.0000 0.00000  0.80259  0.75000  Biso   1.000  Cu
  Cu2      1.0000 0.50000  0.30259  0.75000  Biso   1.000  Cu
  Cu3      1.0000 0.00000  0.19741  0.25000  Biso   1.000  Cu
  Cu4      1.0000 0.50000  0.69741  0.25000  Biso   1.000  Cu
  S1       1.0000 0.82846  0.70422  0.77486  Biso   1.000  S
  S2       1.0000 0.17154  0.70422  0.72514  Biso   1.000  S
  S3       1.0000 0.32846  0.20422  0.77486  Biso   1.000  S
  S4       1.0000 0.67154  0.20422  0.72514  Biso   1.000  S
  S5       1.0000 0.17154  0.29578  0.22514  Biso   1.000  S
  S6       1.0000 0.82846  0.29578  0.27486  Biso   1.000  S
  S7       1.0000 0.67154  0.79578  0.22514  Biso   1.000  S
  S8       1.0000 0.32846  0.79578  0.27486  Biso   1.000  S
  S9       1.0000 0.44527  0.45559  0.64618  Biso   1.000  S
  S10      1.0000 0.55473  0.45559  0.85382  Biso   1.000  S
  S11      1.0000 0.94527  0.95559  0.64618  Biso   1.000  S
  S12      1.0000 0.05473  0.95559  0.85382  Biso   1.000  S
  S13      1.0000 0.55473  0.54441  0.35382  Biso   1.000  S
  S14      1.0000 0.44527  0.54441  0.14618  Biso   1.000  S
  S15      1.0000 0.05473  0.04441  0.35382  Biso   1.000  S
  S16      1.0000 0.94527  0.04441  0.14618  Biso   1.000  S
  N1       1.0000 0.65070  0.57410  0.69833  Biso   1.000  N
  N2       1.0000 0.34930  0.57410  0.80167  Biso   1.000  N
  N3       1.0000 0.15070  0.07410  0.69833  Biso   1.000  N
  N4       1.0000 0.84930  0.07410  0.80167  Biso   1.000  N
  N5       1.0000 0.34930  0.42590  0.30167  Biso   1.000  N
  N6       1.0000 0.65070  0.42590  0.19833  Biso   1.000  N
  N7       1.0000 0.84930  0.92590  0.30167  Biso   1.000  N
  N8       1.0000 0.15070  0.92590  0.19833  Biso   1.000  N
  N9       1.0000 0.61895  0.53680  0.57003  Biso   1.000  N
  N10      1.0000 0.38105  0.53680  0.92997  Biso   1.000  N
  N11      1.0000 0.11895  0.03680  0.57003  Biso   1.000  N
  N12      1.0000 0.88105  0.03680  0.92997  Biso   1.000  N
  N13      1.0000 0.38105  0.46320  0.42997  Biso   1.000  N
  N14      1.0000 0.61895  0.46320  0.07003  Biso   1.000  N
  N15      1.0000 0.88105  0.96320  0.42997  Biso   1.000  N
  N16      1.0000 0.11895  0.96320  0.07003  Biso   1.000  N
  N17      1.0000 0.80146  0.64060  0.62812  Biso   1.000  N
  N18      1.0000 0.19854  0.64060  0.87188  Biso   1.000  N
  N19      1.0000 0.30146  0.14060  0.62812  Biso   1.000  N
  N20      1.0000 0.69854  0.14060  0.87188  Biso   1.000  N
  N21      1.0000 0.19854  0.35940  0.37188  Biso   1.000  N
  N22      1.0000 0.80146  0.35940  0.12812  Biso   1.000  N
  N23      1.0000 0.69854  0.85940  0.37188  Biso   1.000  N
  N24      1.0000 0.30146  0.85940  0.12812  Biso   1.000  N
  N25      1.0000 0.76820  0.58590  0.50010  Biso   1.000  N
  N26      1.0000 0.23180  0.58590  0.99990  Biso   1.000  N
  N27      1.0000 0.26820  0.08590  0.50010  Biso   1.000  N
  N28      1.0000 0.73180  0.08590  0.99990  Biso   1.000  N
  N29      1.0000 0.23180  0.41410  0.49990  Biso   1.000  N
  N30      1.0000 0.76820  0.41410  0.00010  Biso   1.000  N
  N31      1.0000 0.73180  0.91410  0.49990  Biso   1.000  N
  N32      1.0000 0.26820  0.91410  0.00010  Biso   1.000  N
  H1       1.0000 0.71510  0.55560  0.46480  Biso   1.000  H
  H2       1.0000 0.28490  0.55560  0.03520  Biso   1.000  H
  H3       1.0000 0.21510  0.05560  0.46480  Biso   1.000  H
  H4       1.0000 0.78490  0.05560  0.03520  Biso   1.000  H
  H5       1.0000 0.28490  0.44440  0.53520  Biso   1.000  H
  H6       1.0000 0.71510  0.44440  0.96480  Biso   1.000  H
  H7       1.0000 0.78490  0.94440  0.53520  Biso   1.000  H
  H8       1.0000 0.21510  0.94440  0.96480  Biso   1.000  H
  C1       1.0000 0.75930  0.63630  0.69415  Biso   1.000  C
  C2       1.0000 0.24070  0.63630  0.80585  Biso   1.000  C
  C3       1.0000 0.25930  0.13630  0.69415  Biso   1.000  C
  C4       1.0000 0.74070  0.13630  0.80585  Biso   1.000  C
  C5       1.0000 0.24070  0.36370  0.30585  Biso   1.000  C
  C6       1.0000 0.75930  0.36370  0.19415  Biso   1.000  C
  C7       1.0000 0.74070  0.86370  0.30585  Biso   1.000  C
  C8       1.0000 0.25930  0.86370  0.19415  Biso   1.000  C
  C9       1.0000 0.57930  0.52640  0.63656  Biso   1.000  C
  C10      1.0000 0.42070  0.52640  0.86344  Biso   1.000  C
  C11      1.0000 0.07930  0.02640  0.63656  Biso   1.000  C
  C12      1.0000 0.92070  0.02640  0.86344  Biso   1.000  C
  C13      1.0000 0.42070  0.47360  0.36344  Biso   1.000  C
  C14      1.0000 0.57930  0.47360  0.13656  Biso   1.000  C
  C15      1.0000 0.92070  0.97360  0.36344  Biso   1.000  C
  C16      1.0000 0.07930  0.97360  0.13656  Biso   1.000  C
  C17      1.0000 0.73250  0.58950  0.56813  Biso   1.000  C
  C18      1.0000 0.26750  0.58950  0.93187  Biso   1.000  C
  C19      1.0000 0.23250  0.08950  0.56813  Biso   1.000  C
  C20      1.0000 0.76750  0.08950  0.93187  Biso   1.000  C
  C21      1.0000 0.26750  0.41050  0.43187  Biso   1.000  C
  C22      1.0000 0.73250  0.41050  0.06813  Biso   1.000  C
  C23      1.0000 0.76750  0.91050  0.43187  Biso   1.000  C
  C24      1.0000 0.23250  0.91050  0.06813  Biso   1.000  C
  C25      1.0000 0.87940  0.62370  0.47564  Biso   1.000  C
  C26      1.0000 0.12060  0.62370  0.02436  Biso   1.000  C
  C27      1.0000 0.37940  0.12370  0.47564  Biso   1.000  C
  C28      1.0000 0.62060  0.12370  0.02436  Biso   1.000  C
  C29      1.0000 0.12060  0.37630  0.52436  Biso   1.000  C
  C30      1.0000 0.87940  0.37630  0.97564  Biso   1.000  C
  C31      1.0000 0.62060  0.87630  0.52436  Biso   1.000  C
  C32      1.0000 0.37940  0.87630  0.97564  Biso   1.000  C
  C33      1.0000 0.97650  0.67900  0.52158  Biso   1.000  C
  C34      1.0000 0.02350  0.67900  0.97842  Biso   1.000  C
  C35      1.0000 0.47650  0.17900  0.52158  Biso   1.000  C
  C36      1.0000 0.52350  0.17900  0.97842  Biso   1.000  C
  C37      1.0000 0.02350  0.32100  0.47842  Biso   1.000  C
  C38      1.0000 0.97650  0.32100  0.02158  Biso   1.000  C
  C39      1.0000 0.52350  0.82100  0.47842  Biso   1.000  C
  C40      1.0000 0.47650  0.82100  0.02158  Biso   1.000  C
  H9       1.0000 0.97300  0.69340  0.57260  Biso   1.000  H
  H10      1.0000 0.02700  0.69340  0.92740  Biso   1.000  H
  H11      1.0000 0.47300  0.19340  0.57260  Biso   1.000  H
  H12      1.0000 0.52700  0.19340  0.92740  Biso   1.000  H
  H13      1.0000 0.02700  0.30660  0.42740  Biso   1.000  H
  H14      1.0000 0.97300  0.30660  0.07260  Biso   1.000  H
  H15      1.0000 0.52700  0.80660  0.42740  Biso   1.000  H
  H16      1.0000 0.47300  0.80660  0.07260  Biso   1.000  H
  C41      1.0000 0.07920  0.71240  0.49030  Biso   1.000  C
  C42      1.0000 0.92080  0.71240  0.00970  Biso   1.000  C
  C43      1.0000 0.57920  0.21240  0.49030  Biso   1.000  C
  C44      1.0000 0.42080  0.21240  0.00970  Biso   1.000  C
  C45      1.0000 0.92080  0.28760  0.50970  Biso   1.000  C
  C46      1.0000 0.07920  0.28760  0.99030  Biso   1.000  C
  C47      1.0000 0.42080  0.78760  0.50970  Biso   1.000  C
  C48      1.0000 0.57920  0.78760  0.99030  Biso   1.000  C
  H17      1.0000 0.14440  0.75010  0.52090  Biso   1.000  H
  H18      1.0000 0.85560  0.75010  0.97910  Biso   1.000  H
  H19      1.0000 0.64440  0.25010  0.52090  Biso   1.000  H
  H20      1.0000 0.35560  0.25010  0.97910  Biso   1.000  H
  H21      1.0000 0.85560  0.24990  0.47910  Biso   1.000  H
  H22      1.0000 0.14440  0.24990  0.02090  Biso   1.000  H
  H23      1.0000 0.35560  0.74990  0.47910  Biso   1.000  H
  H24      1.0000 0.64440  0.74990  0.02090  Biso   1.000  H
  C49      1.0000 0.08670  0.69110  0.41490  Biso   1.000  C
  C50      1.0000 0.91330  0.69110  0.08510  Biso   1.000  C
  C51      1.0000 0.58670  0.19110  0.41490  Biso   1.000  C
  C52      1.0000 0.41330  0.19110  0.08510  Biso   1.000  C
  C53      1.0000 0.91330  0.30890  0.58510  Biso   1.000  C
  C54      1.0000 0.08670  0.30890  0.91490  Biso   1.000  C
  C55      1.0000 0.41330  0.80890  0.58510  Biso   1.000  C
  C56      1.0000 0.58670  0.80890  0.91490  Biso   1.000  C
  H25      1.0000 0.15580  0.71490  0.39470  Biso   1.000  H
  H26      1.0000 0.84420  0.71490  0.10530  Biso   1.000  H
  H27      1.0000 0.65580  0.21490  0.39470  Biso   1.000  H
  H28      1.0000 0.34420  0.21490  0.10530  Biso   1.000  H
  H29      1.0000 0.84420  0.28510  0.60530  Biso   1.000  H
  H30      1.0000 0.15580  0.28510  0.89470  Biso   1.000  H
  H31      1.0000 0.34420  0.78510  0.60530  Biso   1.000  H
  H32      1.0000 0.65580  0.78510  0.89470  Biso   1.000  H
  C57      1.0000 0.99090  0.63440  0.37020  Biso   1.000  C
  C58      1.0000 0.00910  0.63440  0.12980  Biso   1.000  C
  C59      1.0000 0.49090  0.13440  0.37020  Biso   1.000  C
  C60      1.0000 0.50910  0.13440  0.12980  Biso   1.000  C
  C61      1.0000 0.00910  0.36560  0.62980  Biso   1.000  C
  C62      1.0000 0.99090  0.36560  0.87020  Biso   1.000  C
  C63      1.0000 0.50910  0.86560  0.62980  Biso   1.000  C
  C64      1.0000 0.49090  0.86560  0.87020  Biso   1.000  C
  H33      1.0000 0.99570  0.61810  0.31950  Biso   1.000  H
  H34      1.0000 0.00430  0.61810  0.18050  Biso   1.000  H
  H35      1.0000 0.49570  0.11810  0.31950  Biso   1.000  H
  H36      1.0000 0.50430  0.11810  0.18050  Biso   1.000  H
  H37      1.0000 0.00430  0.38190  0.68050  Biso   1.000  H
  H38      1.0000 0.99570  0.38190  0.81950  Biso   1.000  H
  H39      1.0000 0.50430  0.88190  0.68050  Biso   1.000  H
  H40      1.0000 0.49570  0.88190  0.81950  Biso   1.000  H
  C65      1.0000 0.88670  0.60100  0.39975  Biso   1.000  C
  C66      1.0000 0.11330  0.60100  0.10025  Biso   1.000  C
  C67      1.0000 0.38670  0.10100  0.39975  Biso   1.000  C
  C68      1.0000 0.61330  0.10100  0.10025  Biso   1.000  C
  C69      1.0000 0.11330  0.39900  0.60025  Biso   1.000  C
  C70      1.0000 0.88670  0.39900  0.89975  Biso   1.000  C
  C71      1.0000 0.61330  0.89900  0.60025  Biso   1.000  C
  C72      1.0000 0.38670  0.89900  0.89975  Biso   1.000  C
  H41      1.0000 0.82180  0.56350  0.36880  Biso   1.000  H
  H42      1.0000 0.17820  0.56350  0.13120  Biso   1.000  H
  H43      1.0000 0.32180  0.06350  0.36880  Biso   1.000  H
  H44      1.0000 0.67820  0.06350  0.13120  Biso   1.000  H
  H45      1.0000 0.17820  0.43650  0.63120  Biso   1.000  H
  H46      1.0000 0.82180  0.43650  0.86880  Biso   1.000  H
  H47      1.0000 0.67820  0.93650  0.63120  Biso   1.000  H
  H48      1.0000 0.32180  0.93650  0.86880  Biso   1.000  H
  H49      1.0000 0.62740  0.56530  0.74190  Biso   1.000  H
  H50      1.0000 0.37260  0.56530  0.75810  Biso   1.000  H
  H51      1.0000 0.12740  0.06530  0.74190  Biso   1.000  H
  H52      1.0000 0.87260  0.06530  0.75810  Biso   1.000  H
  H53      1.0000 0.37260  0.43470  0.25810  Biso   1.000  H
  H54      1.0000 0.62740  0.43470  0.24190  Biso   1.000  H
  H55      1.0000 0.87260  0.93470  0.25810  Biso   1.000  H
  H56      1.0000 0.12740  0.93470  0.24190  Biso   1.000  H
  H57      1.0000 0.57500  0.51140  0.52910  Biso   1.000  H
  H58      1.0000 0.42500  0.51140  0.97090  Biso   1.000  H
  H59      1.0000 0.07500  0.01140  0.52910  Biso   1.000  H
  H60      1.0000 0.92500  0.01140  0.97090  Biso   1.000  H
  H61      1.0000 0.42500  0.48860  0.47090  Biso   1.000  H
  H62      1.0000 0.57500  0.48860  0.02910  Biso   1.000  H
  H63      1.0000 0.92500  0.98860  0.47090  Biso   1.000  H
  H64      1.0000 0.07500  0.98860  0.02910  Biso   1.000  H
