data_image0
_cell_length_a       5.837
_cell_length_b       19.992
_cell_length_c       6.9779
_cell_angle_alpha    90
_cell_angle_beta     106.391
_cell_angle_gamma    90

_symmetry_space_group_name_H-M    "P 1"
_symmetry_int_tables_number       1

loop_
  _symmetry_equiv_pos_as_xyz
  'x, y, z'

loop_
  _atom_site_label
  _atom_site_occupancy
  _atom_site_fract_x
  _atom_site_fract_y
  _atom_site_fract_z
  _atom_site_thermal_displace_type
  _atom_site_B_iso_or_equiv
  _atom_site_type_symbol
  Cu1      1.0000 0.17403  0.30184  0.19916  Biso   1.000  Cu
  Cu2      1.0000 0.82597  0.80184  0.30084  Biso   1.000  Cu
  Cu3      1.0000 0.82597  0.69816  0.80084  Biso   1.000  Cu
  Cu4      1.0000 0.17403  0.19816  0.69916  Biso   1.000  Cu
  S1       1.0000 0.04782  0.29292  0.81538  Biso   1.000  S
  S2       1.0000 0.95218  0.79292  0.68462  Biso   1.000  S
  S3       1.0000 0.95218  0.70708  0.18462  Biso   1.000  S
  S4       1.0000 0.04782  0.20708  0.31538  Biso   1.000  S
  S5       1.0000 0.18060  0.43839  0.82671  Biso   1.000  S
  S6       1.0000 0.81940  0.93839  0.67329  Biso   1.000  S
  S7       1.0000 0.81940  0.56161  0.17329  Biso   1.000  S
  S8       1.0000 0.18060  0.06161  0.32671  Biso   1.000  S
  N1       1.0000 0.41380  0.34760  0.70970  Biso   1.000  N
  N2       1.0000 0.58620  0.84760  0.79030  Biso   1.000  N
  N3       1.0000 0.58620  0.65240  0.29030  Biso   1.000  N
  N4       1.0000 0.41380  0.15240  0.20970  Biso   1.000  N
  H1       1.0000 0.45300  0.30780  0.67600  Biso   1.000  H
  H2       1.0000 0.54700  0.80780  0.82400  Biso   1.000  H
  H3       1.0000 0.54700  0.69220  0.32400  Biso   1.000  H
  H4       1.0000 0.45300  0.19220  0.17600  Biso   1.000  H
  N5       1.0000 0.51120  0.32460  0.24430  Biso   1.000  N
  N6       1.0000 0.48880  0.82460  0.25570  Biso   1.000  N
  N7       1.0000 0.48880  0.67540  0.75570  Biso   1.000  N
  N8       1.0000 0.51120  0.17540  0.74430  Biso   1.000  N
  C1       1.0000 0.22850  0.35495  0.77780  Biso   1.000  C
  C2       1.0000 0.77150  0.85495  0.72220  Biso   1.000  C
  C3       1.0000 0.77150  0.64505  0.22220  Biso   1.000  C
  C4       1.0000 0.22850  0.14505  0.27780  Biso   1.000  C
  C5       1.0000 0.55620  0.40710  0.70420  Biso   1.000  C
  C6       1.0000 0.44380  0.90710  0.79580  Biso   1.000  C
  C7       1.0000 0.44380  0.59290  0.29580  Biso   1.000  C
  C8       1.0000 0.55620  0.09290  0.20420  Biso   1.000  C
  H5       1.0000 0.61230  0.40680  0.58600  Biso   1.000  H
  H6       1.0000 0.38770  0.90680  0.91400  Biso   1.000  H
  H7       1.0000 0.38770  0.59320  0.41400  Biso   1.000  H
  H8       1.0000 0.61230  0.09320  0.08600  Biso   1.000  H
  H9       1.0000 0.69350  0.40880  0.82130  Biso   1.000  H
  H10      1.0000 0.30650  0.90880  0.67870  Biso   1.000  H
  H11      1.0000 0.30650  0.59120  0.17870  Biso   1.000  H
  H12      1.0000 0.69350  0.09120  0.32130  Biso   1.000  H
  C9       1.0000 0.39710  0.46600  0.70070  Biso   1.000  C
  C10      1.0000 0.60290  0.96600  0.79930  Biso   1.000  C
  C11      1.0000 0.60290  0.53400  0.29930  Biso   1.000  C
  C12      1.0000 0.39710  0.03400  0.20070  Biso   1.000  C
  H13      1.0000 0.31770  0.47920  0.56430  Biso   1.000  H
  H14      1.0000 0.68230  0.97920  0.93570  Biso   1.000  H
  H15      1.0000 0.68230  0.52080  0.43570  Biso   1.000  H
  H16      1.0000 0.31770  0.02080  0.06430  Biso   1.000  H
  H17      1.0000 0.48830  0.50370  0.77010  Biso   1.000  H
  H18      1.0000 0.51170  0.00370  0.72990  Biso   1.000  H
  H19      1.0000 0.51170  0.49630  0.22990  Biso   1.000  H
  H20      1.0000 0.48830  0.99630  0.27010  Biso   1.000  H
  S9       1.0000 0.93825  0.38930  0.25329  Biso   1.000  S
  S10      1.0000 0.06175  0.88930  0.24671  Biso   1.000  S
  S11      1.0000 0.06175  0.61070  0.74671  Biso   1.000  S
  S12      1.0000 0.93825  0.11070  0.75329  Biso   1.000  S
  C13      1.0000 0.68900  0.34990  0.24860  Biso   1.000  C
  C14      1.0000 0.31100  0.84990  0.25140  Biso   1.000  C
  C15      1.0000 0.31100  0.65010  0.75140  Biso   1.000  C
  C16      1.0000 0.68900  0.15010  0.74860  Biso   1.000  C
