data_image0
_cell_length_a       10.224
_cell_length_b       32.116
_cell_length_c       21.038
_cell_angle_alpha    90
_cell_angle_beta     97.93
_cell_angle_gamma    90

_symmetry_space_group_name_H-M    "P 1"
_symmetry_int_tables_number       1

loop_
  _symmetry_equiv_pos_as_xyz
  'x, y, z'

loop_
  _atom_site_label
  _atom_site_occupancy
  _atom_site_fract_x
  _atom_site_fract_y
  _atom_site_fract_z
  _atom_site_thermal_displace_type
  _atom_site_B_iso_or_equiv
  _atom_site_type_symbol
  Cu1      1.0000 0.93017  0.00000  0.41212  Biso   1.000  Cu
  Cu2      1.0000 0.43017  0.50000  0.41212  Biso   1.000  Cu
  Cu3      1.0000 0.06983  0.00000  0.58788  Biso   1.000  Cu
  Cu4      1.0000 0.56983  0.50000  0.58788  Biso   1.000  Cu
  Cu5      1.0000 0.44915  0.00000  0.37414  Biso   1.000  Cu
  Cu6      1.0000 0.94915  0.50000  0.37414  Biso   1.000  Cu
  Cu7      1.0000 0.55085  0.00000  0.62586  Biso   1.000  Cu
  Cu8      1.0000 0.05085  0.50000  0.62586  Biso   1.000  Cu
  Cu9      1.0000 0.99328  0.00000  0.27969  Biso   1.000  Cu
  Cu10     1.0000 0.49328  0.50000  0.27969  Biso   1.000  Cu
  Cu11     1.0000 0.00672  0.00000  0.72031  Biso   1.000  Cu
  Cu12     1.0000 0.50672  0.50000  0.72031  Biso   1.000  Cu
  Cu13     1.0000 0.43252  0.00000  0.10767  Biso   1.000  Cu
  Cu14     1.0000 0.93252  0.50000  0.10767  Biso   1.000  Cu
  Cu15     1.0000 0.56748  0.00000  0.89233  Biso   1.000  Cu
  Cu16     1.0000 0.06748  0.50000  0.89233  Biso   1.000  Cu
  Cu17     1.0000 0.33649  0.50000  0.03088  Biso   1.000  Cu
  Cu18     1.0000 0.83649  0.00000  0.03088  Biso   1.000  Cu
  Cu19     1.0000 0.66351  0.50000  0.96912  Biso   1.000  Cu
  Cu20     1.0000 0.16351  0.00000  0.96912  Biso   1.000  Cu
  Gd1      1.0000 0.50000  0.24042  0.50000  Biso   1.000  Gd
  Gd2      1.0000 0.00000  0.74042  0.50000  Biso   1.000  Gd
  Gd3      1.0000 0.50000  0.75958  0.50000  Biso   1.000  Gd
  Gd4      1.0000 0.00000  0.25958  0.50000  Biso   1.000  Gd
  Gd5      1.0000 0.37537  0.25333  0.20600  Biso   1.000  Gd
  Gd6      1.0000 0.87537  0.75333  0.20600  Biso   1.000  Gd
  Gd7      1.0000 0.62463  0.25333  0.79400  Biso   1.000  Gd
  Gd8      1.0000 0.12463  0.75333  0.79400  Biso   1.000  Gd
  Gd9      1.0000 0.62463  0.74667  0.79400  Biso   1.000  Gd
  Gd10     1.0000 0.12463  0.24667  0.79400  Biso   1.000  Gd
  Gd11     1.0000 0.37537  0.74667  0.20600  Biso   1.000  Gd
  Gd12     1.0000 0.87537  0.24667  0.20600  Biso   1.000  Gd
  Cl1      1.0000 0.14938  0.00000  0.38827  Biso   1.000  Cl
  Cl2      1.0000 0.64938  0.50000  0.38827  Biso   1.000  Cl
  Cl3      1.0000 0.85062  0.00000  0.61173  Biso   1.000  Cl
  Cl4      1.0000 0.35062  0.50000  0.61173  Biso   1.000  Cl
  Cl5      1.0000 0.50000  0.00000  0.50000  Biso   1.000  Cl
  Cl6      1.0000 0.00000  0.50000  0.50000  Biso   1.000  Cl
  Cl7      1.0000 0.76630  0.00000  0.29920  Biso   1.000  Cl
  Cl8      1.0000 0.26630  0.50000  0.29920  Biso   1.000  Cl
  Cl9      1.0000 0.23370  0.00000  0.70080  Biso   1.000  Cl
  Cl10     1.0000 0.73370  0.50000  0.70080  Biso   1.000  Cl
  Cl11     1.0000 0.19780  0.00000  0.09067  Biso   1.000  Cl
  Cl12     1.0000 0.69780  0.50000  0.09067  Biso   1.000  Cl
  Cl13     1.0000 0.80220  0.00000  0.90933  Biso   1.000  Cl
  Cl14     1.0000 0.30220  0.50000  0.90933  Biso   1.000  Cl
  Cl15     1.0000 0.50000  0.00000  0.00000  Biso   1.000  Cl
  Cl16     1.0000 0.00000  0.50000  0.00000  Biso   1.000  Cl
  C1       1.0000 0.76850  0.06597  0.45290  Biso   1.000  C
  C2       1.0000 0.26850  0.56597  0.45290  Biso   1.000  C
  C3       1.0000 0.23150  0.06597  0.54710  Biso   1.000  C
  C4       1.0000 0.73150  0.56597  0.54710  Biso   1.000  C
  C5       1.0000 0.23150  0.93403  0.54710  Biso   1.000  C
  C6       1.0000 0.73150  0.43403  0.54710  Biso   1.000  C
  C7       1.0000 0.76850  0.93403  0.45290  Biso   1.000  C
  C8       1.0000 0.26850  0.43403  0.45290  Biso   1.000  C
  H1       1.0000 0.71520  0.04390  0.46190  Biso   1.000  H
  H2       1.0000 0.21520  0.54390  0.46190  Biso   1.000  H
  H3       1.0000 0.28480  0.04390  0.53810  Biso   1.000  H
  H4       1.0000 0.78480  0.54390  0.53810  Biso   1.000  H
  H5       1.0000 0.28480  0.95610  0.53810  Biso   1.000  H
  H6       1.0000 0.78480  0.45610  0.53810  Biso   1.000  H
  H7       1.0000 0.71520  0.95610  0.46190  Biso   1.000  H
  H8       1.0000 0.21520  0.45610  0.46190  Biso   1.000  H
  C9       1.0000 0.72470  0.10597  0.46060  Biso   1.000  C
  C10      1.0000 0.22470  0.60597  0.46060  Biso   1.000  C
  C11      1.0000 0.27530  0.10597  0.53940  Biso   1.000  C
  C12      1.0000 0.77530  0.60597  0.53940  Biso   1.000  C
  C13      1.0000 0.27530  0.89403  0.53940  Biso   1.000  C
  C14      1.0000 0.77530  0.39403  0.53940  Biso   1.000  C
  C15      1.0000 0.72470  0.89403  0.46060  Biso   1.000  C
  C16      1.0000 0.22470  0.39403  0.46060  Biso   1.000  C
  H9       1.0000 0.64280  0.11050  0.47380  Biso   1.000  H
  H10      1.0000 0.14280  0.61050  0.47380  Biso   1.000  H
  H11      1.0000 0.35720  0.11050  0.52620  Biso   1.000  H
  H12      1.0000 0.85720  0.61050  0.52620  Biso   1.000  H
  H13      1.0000 0.35720  0.88950  0.52620  Biso   1.000  H
  H14      1.0000 0.85720  0.38950  0.52620  Biso   1.000  H
  H15      1.0000 0.64280  0.88950  0.47380  Biso   1.000  H
  H16      1.0000 0.14280  0.38950  0.47380  Biso   1.000  H
  C17      1.0000 0.80330  0.13951  0.44854  Biso   1.000  C
  C18      1.0000 0.30330  0.63951  0.44854  Biso   1.000  C
  C19      1.0000 0.19670  0.13951  0.55146  Biso   1.000  C
  C20      1.0000 0.69670  0.63951  0.55146  Biso   1.000  C
  C21      1.0000 0.19670  0.86049  0.55146  Biso   1.000  C
  C22      1.0000 0.69670  0.36049  0.55146  Biso   1.000  C
  C23      1.0000 0.80330  0.86049  0.44854  Biso   1.000  C
  C24      1.0000 0.30330  0.36049  0.44854  Biso   1.000  C
  C25      1.0000 0.92360  0.13089  0.42790  Biso   1.000  C
  C26      1.0000 0.42360  0.63089  0.42790  Biso   1.000  C
  C27      1.0000 0.07640  0.13089  0.57210  Biso   1.000  C
  C28      1.0000 0.57640  0.63089  0.57210  Biso   1.000  C
  C29      1.0000 0.07640  0.86911  0.57210  Biso   1.000  C
  C30      1.0000 0.57640  0.36911  0.57210  Biso   1.000  C
  C31      1.0000 0.92360  0.86911  0.42790  Biso   1.000  C
  C32      1.0000 0.42360  0.36911  0.42790  Biso   1.000  C
  H17      1.0000 0.97900  0.15250  0.41910  Biso   1.000  H
  H18      1.0000 0.47900  0.65250  0.41910  Biso   1.000  H
  H19      1.0000 0.02100  0.15250  0.58090  Biso   1.000  H
  H20      1.0000 0.52100  0.65250  0.58090  Biso   1.000  H
  H21      1.0000 0.02100  0.84750  0.58090  Biso   1.000  H
  H22      1.0000 0.52100  0.34750  0.58090  Biso   1.000  H
  H23      1.0000 0.97900  0.84750  0.41910  Biso   1.000  H
  H24      1.0000 0.47900  0.34750  0.41910  Biso   1.000  H
  C33      1.0000 0.96010  0.09012  0.42070  Biso   1.000  C
  C34      1.0000 0.46010  0.59012  0.42070  Biso   1.000  C
  C35      1.0000 0.03990  0.09012  0.57930  Biso   1.000  C
  C36      1.0000 0.53990  0.59012  0.57930  Biso   1.000  C
  C37      1.0000 0.03990  0.90988  0.57930  Biso   1.000  C
  C38      1.0000 0.53990  0.40988  0.57930  Biso   1.000  C
  C39      1.0000 0.96010  0.90988  0.42070  Biso   1.000  C
  C40      1.0000 0.46010  0.40988  0.42070  Biso   1.000  C
  H25      1.0000 0.04080  0.08480  0.40660  Biso   1.000  H
  H26      1.0000 0.54080  0.58480  0.40660  Biso   1.000  H
  H27      1.0000 0.95920  0.08480  0.59340  Biso   1.000  H
  H28      1.0000 0.45920  0.58480  0.59340  Biso   1.000  H
  H29      1.0000 0.95920  0.91520  0.59340  Biso   1.000  H
  H30      1.0000 0.45920  0.41520  0.59340  Biso   1.000  H
  H31      1.0000 0.04080  0.91520  0.40660  Biso   1.000  H
  H32      1.0000 0.54080  0.41520  0.40660  Biso   1.000  H
  C41      1.0000 0.76140  0.18322  0.46074  Biso   1.000  C
  C42      1.0000 0.26140  0.68322  0.46074  Biso   1.000  C
  C43      1.0000 0.23860  0.18322  0.53926  Biso   1.000  C
  C44      1.0000 0.73860  0.68322  0.53926  Biso   1.000  C
  C45      1.0000 0.23860  0.81678  0.53926  Biso   1.000  C
  C46      1.0000 0.73860  0.31678  0.53926  Biso   1.000  C
  C47      1.0000 0.76140  0.81678  0.46074  Biso   1.000  C
  C48      1.0000 0.26140  0.31678  0.46074  Biso   1.000  C
  C49      1.0000 0.52590  0.08022  0.32400  Biso   1.000  C
  C50      1.0000 0.02590  0.58022  0.32400  Biso   1.000  C
  C51      1.0000 0.47410  0.08022  0.67600  Biso   1.000  C
  C52      1.0000 0.97410  0.58022  0.67600  Biso   1.000  C
  C53      1.0000 0.47410  0.91978  0.67600  Biso   1.000  C
  C54      1.0000 0.97410  0.41978  0.67600  Biso   1.000  C
  C55      1.0000 0.52590  0.91978  0.32400  Biso   1.000  C
  C56      1.0000 0.02590  0.41978  0.32400  Biso   1.000  C
  H33      1.0000 0.58050  0.06490  0.30090  Biso   1.000  H
  H34      1.0000 0.08050  0.56490  0.30090  Biso   1.000  H
  H35      1.0000 0.41950  0.06490  0.69910  Biso   1.000  H
  H36      1.0000 0.91950  0.56490  0.69910  Biso   1.000  H
  H37      1.0000 0.41950  0.93510  0.69910  Biso   1.000  H
  H38      1.0000 0.91950  0.43510  0.69910  Biso   1.000  H
  H39      1.0000 0.58050  0.93510  0.30090  Biso   1.000  H
  H40      1.0000 0.08050  0.43510  0.30090  Biso   1.000  H
  C57      1.0000 0.52950  0.12280  0.32040  Biso   1.000  C
  C58      1.0000 0.02950  0.62280  0.32040  Biso   1.000  C
  C59      1.0000 0.47050  0.12280  0.67960  Biso   1.000  C
  C60      1.0000 0.97050  0.62280  0.67960  Biso   1.000  C
  C61      1.0000 0.47050  0.87720  0.67960  Biso   1.000  C
  C62      1.0000 0.97050  0.37720  0.67960  Biso   1.000  C
  C63      1.0000 0.52950  0.87720  0.32040  Biso   1.000  C
  C64      1.0000 0.02950  0.37720  0.32040  Biso   1.000  C
  H41      1.0000 0.58530  0.13570  0.29510  Biso   1.000  H
  H42      1.0000 0.08530  0.63570  0.29510  Biso   1.000  H
  H43      1.0000 0.41470  0.13570  0.70490  Biso   1.000  H
  H44      1.0000 0.91470  0.63570  0.70490  Biso   1.000  H
  H45      1.0000 0.41470  0.86430  0.70490  Biso   1.000  H
  H46      1.0000 0.91470  0.36430  0.70490  Biso   1.000  H
  H47      1.0000 0.58530  0.86430  0.29510  Biso   1.000  H
  H48      1.0000 0.08530  0.36430  0.29510  Biso   1.000  H
  C65      1.0000 0.44940  0.14681  0.35482  Biso   1.000  C
  C66      1.0000 0.94940  0.64681  0.35482  Biso   1.000  C
  C67      1.0000 0.55060  0.14681  0.64518  Biso   1.000  C
  C68      1.0000 0.05060  0.64681  0.64518  Biso   1.000  C
  C69      1.0000 0.55060  0.85319  0.64518  Biso   1.000  C
  C70      1.0000 0.05060  0.35319  0.64518  Biso   1.000  C
  C71      1.0000 0.44940  0.85319  0.35482  Biso   1.000  C
  C72      1.0000 0.94940  0.35319  0.35482  Biso   1.000  C
  C73      1.0000 0.36740  0.12516  0.39070  Biso   1.000  C
  C74      1.0000 0.86740  0.62516  0.39070  Biso   1.000  C
  C75      1.0000 0.63260  0.12516  0.60930  Biso   1.000  C
  C76      1.0000 0.13260  0.62516  0.60930  Biso   1.000  C
  C77      1.0000 0.63260  0.87484  0.60930  Biso   1.000  C
  C78      1.0000 0.13260  0.37484  0.60930  Biso   1.000  C
  C79      1.0000 0.36740  0.87484  0.39070  Biso   1.000  C
  C80      1.0000 0.86740  0.37484  0.39070  Biso   1.000  C
  H49      1.0000 0.31130  0.13970  0.41400  Biso   1.000  H
  H50      1.0000 0.81130  0.63970  0.41400  Biso   1.000  H
  H51      1.0000 0.68870  0.13970  0.58600  Biso   1.000  H
  H52      1.0000 0.18870  0.63970  0.58600  Biso   1.000  H
  H53      1.0000 0.68870  0.86030  0.58600  Biso   1.000  H
  H54      1.0000 0.18870  0.36030  0.58600  Biso   1.000  H
  H55      1.0000 0.31130  0.86030  0.41400  Biso   1.000  H
  H56      1.0000 0.81130  0.36030  0.41400  Biso   1.000  H
  C81      1.0000 0.36900  0.08264  0.39170  Biso   1.000  C
  C82      1.0000 0.86900  0.58264  0.39170  Biso   1.000  C
  C83      1.0000 0.63100  0.08264  0.60830  Biso   1.000  C
  C84      1.0000 0.13100  0.58264  0.60830  Biso   1.000  C
  C85      1.0000 0.63100  0.91736  0.60830  Biso   1.000  C
  C86      1.0000 0.13100  0.41736  0.60830  Biso   1.000  C
  C87      1.0000 0.36900  0.91736  0.39170  Biso   1.000  C
  C88      1.0000 0.86900  0.41736  0.39170  Biso   1.000  C
  H57      1.0000 0.31280  0.06900  0.41600  Biso   1.000  H
  H58      1.0000 0.81280  0.56900  0.41600  Biso   1.000  H
  H59      1.0000 0.68720  0.06900  0.58400  Biso   1.000  H
  H60      1.0000 0.18720  0.56900  0.58400  Biso   1.000  H
  H61      1.0000 0.68720  0.93100  0.58400  Biso   1.000  H
  H62      1.0000 0.18720  0.43100  0.58400  Biso   1.000  H
  H63      1.0000 0.31280  0.93100  0.41600  Biso   1.000  H
  H64      1.0000 0.81280  0.43100  0.41600  Biso   1.000  H
  C89      1.0000 0.45200  0.19331  0.35345  Biso   1.000  C
  C90      1.0000 0.95200  0.69331  0.35345  Biso   1.000  C
  C91      1.0000 0.54800  0.19331  0.64655  Biso   1.000  C
  C92      1.0000 0.04800  0.69331  0.64655  Biso   1.000  C
  C93      1.0000 0.54800  0.80669  0.64655  Biso   1.000  C
  C94      1.0000 0.04800  0.30669  0.64655  Biso   1.000  C
  C95      1.0000 0.45200  0.80669  0.35345  Biso   1.000  C
  C96      1.0000 0.95200  0.30669  0.35345  Biso   1.000  C
  C97      1.0000 0.15190  0.06825  0.24280  Biso   1.000  C
  C98      1.0000 0.65190  0.56825  0.24280  Biso   1.000  C
  C99      1.0000 0.84810  0.06825  0.75720  Biso   1.000  C
  C100     1.0000 0.34810  0.56825  0.75720  Biso   1.000  C
  C101     1.0000 0.84810  0.93175  0.75720  Biso   1.000  C
  C102     1.0000 0.34810  0.43175  0.75720  Biso   1.000  C
  C103     1.0000 0.15190  0.93175  0.24280  Biso   1.000  C
  C104     1.0000 0.65190  0.43175  0.24280  Biso   1.000  C
  H65      1.0000 0.21030  0.04740  0.23430  Biso   1.000  H
  H66      1.0000 0.71030  0.54740  0.23430  Biso   1.000  H
  H67      1.0000 0.78970  0.04740  0.76570  Biso   1.000  H
  H68      1.0000 0.28970  0.54740  0.76570  Biso   1.000  H
  H69      1.0000 0.78970  0.95260  0.76570  Biso   1.000  H
  H70      1.0000 0.28970  0.45260  0.76570  Biso   1.000  H
  H71      1.0000 0.21030  0.95260  0.23430  Biso   1.000  H
  H72      1.0000 0.71030  0.45260  0.23430  Biso   1.000  H
  C105     1.0000 0.19170  0.10913  0.24060  Biso   1.000  C
  C106     1.0000 0.69170  0.60913  0.24060  Biso   1.000  C
  C107     1.0000 0.80830  0.10913  0.75940  Biso   1.000  C
  C108     1.0000 0.30830  0.60913  0.75940  Biso   1.000  C
  C109     1.0000 0.80830  0.89087  0.75940  Biso   1.000  C
  C110     1.0000 0.30830  0.39087  0.75940  Biso   1.000  C
  C111     1.0000 0.19170  0.89087  0.24060  Biso   1.000  C
  C112     1.0000 0.69170  0.39087  0.24060  Biso   1.000  C
  H73      1.0000 0.27570  0.11560  0.23130  Biso   1.000  H
  H74      1.0000 0.77570  0.61560  0.23130  Biso   1.000  H
  H75      1.0000 0.72430  0.11560  0.76870  Biso   1.000  H
  H76      1.0000 0.22430  0.61560  0.76870  Biso   1.000  H
  H77      1.0000 0.72430  0.88440  0.76870  Biso   1.000  H
  H78      1.0000 0.22430  0.38440  0.76870  Biso   1.000  H
  H79      1.0000 0.27570  0.88440  0.23130  Biso   1.000  H
  H80      1.0000 0.77570  0.38440  0.23130  Biso   1.000  H
  C113     1.0000 0.10550  0.14059  0.25245  Biso   1.000  C
  C114     1.0000 0.60550  0.64059  0.25245  Biso   1.000  C
  C115     1.0000 0.89450  0.14059  0.74755  Biso   1.000  C
  C116     1.0000 0.39450  0.64059  0.74755  Biso   1.000  C
  C117     1.0000 0.89450  0.85941  0.74755  Biso   1.000  C
  C118     1.0000 0.39450  0.35941  0.74755  Biso   1.000  C
  C119     1.0000 0.10550  0.85941  0.25245  Biso   1.000  C
  C120     1.0000 0.60550  0.35941  0.25245  Biso   1.000  C
  C121     1.0000 0.98130  0.12935  0.26560  Biso   1.000  C
  C122     1.0000 0.48130  0.62935  0.26560  Biso   1.000  C
  C123     1.0000 0.01870  0.12935  0.73440  Biso   1.000  C
  C124     1.0000 0.51870  0.62935  0.73440  Biso   1.000  C
  C125     1.0000 0.01870  0.87065  0.73440  Biso   1.000  C
  C126     1.0000 0.51870  0.37065  0.73440  Biso   1.000  C
  C127     1.0000 0.98130  0.87065  0.26560  Biso   1.000  C
  C128     1.0000 0.48130  0.37065  0.26560  Biso   1.000  C
  H81      1.0000 0.92000  0.14960  0.27280  Biso   1.000  H
  H82      1.0000 0.42000  0.64960  0.27280  Biso   1.000  H
  H83      1.0000 0.08000  0.14960  0.72720  Biso   1.000  H
  H84      1.0000 0.58000  0.64960  0.72720  Biso   1.000  H
  H85      1.0000 0.08000  0.85040  0.72720  Biso   1.000  H
  H86      1.0000 0.58000  0.35040  0.72720  Biso   1.000  H
  H87      1.0000 0.92000  0.85040  0.27280  Biso   1.000  H
  H88      1.0000 0.42000  0.35040  0.27280  Biso   1.000  H
  C129     1.0000 0.94980  0.08775  0.26780  Biso   1.000  C
  C130     1.0000 0.44980  0.58775  0.26780  Biso   1.000  C
  C131     1.0000 0.05020  0.08775  0.73220  Biso   1.000  C
  C132     1.0000 0.55020  0.58775  0.73220  Biso   1.000  C
  C133     1.0000 0.05020  0.91225  0.73220  Biso   1.000  C
  C134     1.0000 0.55020  0.41225  0.73220  Biso   1.000  C
  C135     1.0000 0.94980  0.91225  0.26780  Biso   1.000  C
  C136     1.0000 0.44980  0.41225  0.26780  Biso   1.000  C
  H89      1.0000 0.86680  0.08060  0.27760  Biso   1.000  H
  H90      1.0000 0.36680  0.58060  0.27760  Biso   1.000  H
  H91      1.0000 0.13320  0.08060  0.72240  Biso   1.000  H
  H92      1.0000 0.63320  0.58060  0.72240  Biso   1.000  H
  H93      1.0000 0.13320  0.91940  0.72240  Biso   1.000  H
  H94      1.0000 0.63320  0.41940  0.72240  Biso   1.000  H
  H95      1.0000 0.86680  0.91940  0.27760  Biso   1.000  H
  H96      1.0000 0.36680  0.41940  0.27760  Biso   1.000  H
  C137     1.0000 0.14360  0.18541  0.24859  Biso   1.000  C
  C138     1.0000 0.64360  0.68541  0.24859  Biso   1.000  C
  C139     1.0000 0.85640  0.18541  0.75141  Biso   1.000  C
  C140     1.0000 0.35640  0.68541  0.75141  Biso   1.000  C
  C141     1.0000 0.85640  0.81459  0.75141  Biso   1.000  C
  C142     1.0000 0.35640  0.31459  0.75141  Biso   1.000  C
  C143     1.0000 0.14360  0.81459  0.24859  Biso   1.000  C
  C144     1.0000 0.64360  0.31459  0.24859  Biso   1.000  C
  C145     1.0000 0.40040  0.08805  0.12820  Biso   1.000  C
  C146     1.0000 0.90040  0.58805  0.12820  Biso   1.000  C
  C147     1.0000 0.59960  0.08805  0.87180  Biso   1.000  C
  C148     1.0000 0.09960  0.58805  0.87180  Biso   1.000  C
  C149     1.0000 0.59960  0.91195  0.87180  Biso   1.000  C
  C150     1.0000 0.09960  0.41195  0.87180  Biso   1.000  C
  C151     1.0000 0.40040  0.91195  0.12820  Biso   1.000  C
  C152     1.0000 0.90040  0.41195  0.12820  Biso   1.000  C
  H97      1.0000 0.31200  0.08180  0.11500  Biso   1.000  H
  H98      1.0000 0.81200  0.58180  0.11500  Biso   1.000  H
  H99      1.0000 0.68800  0.08180  0.88500  Biso   1.000  H
  H100     1.0000 0.18800  0.58180  0.88500  Biso   1.000  H
  H101     1.0000 0.68800  0.91820  0.88500  Biso   1.000  H
  H102     1.0000 0.18800  0.41820  0.88500  Biso   1.000  H
  H103     1.0000 0.31200  0.91820  0.11500  Biso   1.000  H
  H104     1.0000 0.81200  0.41820  0.11500  Biso   1.000  H
  C153     1.0000 0.43570  0.12917  0.13720  Biso   1.000  C
  C154     1.0000 0.93570  0.62917  0.13720  Biso   1.000  C
  C155     1.0000 0.56430  0.12917  0.86280  Biso   1.000  C
  C156     1.0000 0.06430  0.62917  0.86280  Biso   1.000  C
  C157     1.0000 0.56430  0.87083  0.86280  Biso   1.000  C
  C158     1.0000 0.06430  0.37083  0.86280  Biso   1.000  C
  C159     1.0000 0.43570  0.87083  0.13720  Biso   1.000  C
  C160     1.0000 0.93570  0.37083  0.13720  Biso   1.000  C
  H105     1.0000 0.37280  0.15020  0.12990  Biso   1.000  H
  H106     1.0000 0.87280  0.65020  0.12990  Biso   1.000  H
  H107     1.0000 0.62720  0.15020  0.87010  Biso   1.000  H
  H108     1.0000 0.12720  0.65020  0.87010  Biso   1.000  H
  H109     1.0000 0.62720  0.84980  0.87010  Biso   1.000  H
  H110     1.0000 0.12720  0.34980  0.87010  Biso   1.000  H
  H111     1.0000 0.37280  0.84980  0.12990  Biso   1.000  H
  H112     1.0000 0.87280  0.34980  0.12990  Biso   1.000  H
  C161     1.0000 0.56700  0.13862  0.15715  Biso   1.000  C
  C162     1.0000 0.06700  0.63862  0.15715  Biso   1.000  C
  C163     1.0000 0.43300  0.13862  0.84285  Biso   1.000  C
  C164     1.0000 0.93300  0.63862  0.84285  Biso   1.000  C
  C165     1.0000 0.43300  0.86138  0.84285  Biso   1.000  C
  C166     1.0000 0.93300  0.36138  0.84285  Biso   1.000  C
  C167     1.0000 0.56700  0.86138  0.15715  Biso   1.000  C
  C168     1.0000 0.06700  0.36138  0.15715  Biso   1.000  C
  C169     1.0000 0.65630  0.10653  0.16630  Biso   1.000  C
  C170     1.0000 0.15630  0.60653  0.16630  Biso   1.000  C
  C171     1.0000 0.34370  0.10653  0.83370  Biso   1.000  C
  C172     1.0000 0.84370  0.60653  0.83370  Biso   1.000  C
  C173     1.0000 0.34370  0.89347  0.83370  Biso   1.000  C
  C174     1.0000 0.84370  0.39347  0.83370  Biso   1.000  C
  C175     1.0000 0.65630  0.89347  0.16630  Biso   1.000  C
  C176     1.0000 0.15630  0.39347  0.16630  Biso   1.000  C
  H113     1.0000 0.74540  0.11200  0.17890  Biso   1.000  H
  H114     1.0000 0.24540  0.61200  0.17890  Biso   1.000  H
  H115     1.0000 0.25460  0.11200  0.82110  Biso   1.000  H
  H116     1.0000 0.75460  0.61200  0.82110  Biso   1.000  H
  H117     1.0000 0.25460  0.88800  0.82110  Biso   1.000  H
  H118     1.0000 0.75460  0.38800  0.82110  Biso   1.000  H
  H119     1.0000 0.74540  0.88800  0.17890  Biso   1.000  H
  H120     1.0000 0.24540  0.38800  0.17890  Biso   1.000  H
  C177     1.0000 0.61280  0.06626  0.15670  Biso   1.000  C
  C178     1.0000 0.11280  0.56626  0.15670  Biso   1.000  C
  C179     1.0000 0.38720  0.06626  0.84330  Biso   1.000  C
  C180     1.0000 0.88720  0.56626  0.84330  Biso   1.000  C
  C181     1.0000 0.38720  0.93374  0.84330  Biso   1.000  C
  C182     1.0000 0.88720  0.43374  0.84330  Biso   1.000  C
  C183     1.0000 0.61280  0.93374  0.15670  Biso   1.000  C
  C184     1.0000 0.11280  0.43374  0.15670  Biso   1.000  C
  H121     1.0000 0.67410  0.04480  0.16370  Biso   1.000  H
  H122     1.0000 0.17410  0.54480  0.16370  Biso   1.000  H
  H123     1.0000 0.32590  0.04480  0.83630  Biso   1.000  H
  H124     1.0000 0.82590  0.54480  0.83630  Biso   1.000  H
  H125     1.0000 0.32590  0.95520  0.83630  Biso   1.000  H
  H126     1.0000 0.82590  0.45520  0.83630  Biso   1.000  H
  H127     1.0000 0.67410  0.95520  0.16370  Biso   1.000  H
  H128     1.0000 0.17410  0.45520  0.16370  Biso   1.000  H
  C185     1.0000 0.61070  0.18261  0.17130  Biso   1.000  C
  C186     1.0000 0.11070  0.68261  0.17130  Biso   1.000  C
  C187     1.0000 0.38930  0.18261  0.82870  Biso   1.000  C
  C188     1.0000 0.88930  0.68261  0.82870  Biso   1.000  C
  C189     1.0000 0.38930  0.81739  0.82870  Biso   1.000  C
  C190     1.0000 0.88930  0.31739  0.82870  Biso   1.000  C
  C191     1.0000 0.61070  0.81739  0.17130  Biso   1.000  C
  C192     1.0000 0.11070  0.31739  0.17130  Biso   1.000  C
  C193     1.0000 0.45770  0.42284  0.08070  Biso   1.000  C
  C194     1.0000 0.95770  0.92284  0.08070  Biso   1.000  C
  C195     1.0000 0.54230  0.42284  0.91930  Biso   1.000  C
  C196     1.0000 0.04230  0.92284  0.91930  Biso   1.000  C
  C197     1.0000 0.54230  0.57716  0.91930  Biso   1.000  C
  C198     1.0000 0.04230  0.07716  0.91930  Biso   1.000  C
  C199     1.0000 0.45770  0.57716  0.08070  Biso   1.000  C
  C200     1.0000 0.95770  0.07716  0.08070  Biso   1.000  C
  H129     1.0000 0.52530  0.44030  0.09880  Biso   1.000  H
  H130     1.0000 0.02530  0.94030  0.09880  Biso   1.000  H
  H131     1.0000 0.47470  0.44030  0.90120  Biso   1.000  H
  H132     1.0000 0.97470  0.94030  0.90120  Biso   1.000  H
  H133     1.0000 0.47470  0.55970  0.90120  Biso   1.000  H
  H134     1.0000 0.97470  0.05970  0.90120  Biso   1.000  H
  H135     1.0000 0.52530  0.55970  0.09880  Biso   1.000  H
  H136     1.0000 0.02530  0.05970  0.09880  Biso   1.000  H
  C201     1.0000 0.47420  0.38075  0.08880  Biso   1.000  C
  C202     1.0000 0.97420  0.88075  0.08880  Biso   1.000  C
  C203     1.0000 0.52580  0.38075  0.91120  Biso   1.000  C
  C204     1.0000 0.02580  0.88075  0.91120  Biso   1.000  C
  C205     1.0000 0.52580  0.61925  0.91120  Biso   1.000  C
  C206     1.0000 0.02580  0.11925  0.91120  Biso   1.000  C
  C207     1.0000 0.47420  0.61925  0.08880  Biso   1.000  C
  C208     1.0000 0.97420  0.11925  0.08880  Biso   1.000  C
  H137     1.0000 0.55100  0.37020  0.11210  Biso   1.000  H
  H138     1.0000 0.05100  0.87020  0.11210  Biso   1.000  H
  H139     1.0000 0.44900  0.37020  0.88790  Biso   1.000  H
  H140     1.0000 0.94900  0.87020  0.88790  Biso   1.000  H
  H141     1.0000 0.44900  0.62980  0.88790  Biso   1.000  H
  H142     1.0000 0.94900  0.12980  0.88790  Biso   1.000  H
  H143     1.0000 0.55100  0.62980  0.11210  Biso   1.000  H
  H144     1.0000 0.05100  0.12980  0.11210  Biso   1.000  H
  C209     1.0000 0.37620  0.35417  0.06200  Biso   1.000  C
  C210     1.0000 0.87620  0.85417  0.06200  Biso   1.000  C
  C211     1.0000 0.62380  0.35417  0.93800  Biso   1.000  C
  C212     1.0000 0.12380  0.85417  0.93800  Biso   1.000  C
  C213     1.0000 0.62380  0.64583  0.93800  Biso   1.000  C
  C214     1.0000 0.12380  0.14583  0.93800  Biso   1.000  C
  C215     1.0000 0.37620  0.64583  0.06200  Biso   1.000  C
  C216     1.0000 0.87620  0.14583  0.06200  Biso   1.000  C
  C217     1.0000 0.26480  0.37148  0.02840  Biso   1.000  C
  C218     1.0000 0.76480  0.87148  0.02840  Biso   1.000  C
  C219     1.0000 0.73520  0.37148  0.97160  Biso   1.000  C
  C220     1.0000 0.23520  0.87148  0.97160  Biso   1.000  C
  C221     1.0000 0.73520  0.62852  0.97160  Biso   1.000  C
  C222     1.0000 0.23520  0.12852  0.97160  Biso   1.000  C
  C223     1.0000 0.26480  0.62852  0.02840  Biso   1.000  C
  C224     1.0000 0.76480  0.12852  0.02840  Biso   1.000  C
  H145     1.0000 0.19670  0.35450  0.00930  Biso   1.000  H
  H146     1.0000 0.69670  0.85450  0.00930  Biso   1.000  H
  H147     1.0000 0.80330  0.35450  0.99070  Biso   1.000  H
  H148     1.0000 0.30330  0.85450  0.99070  Biso   1.000  H
  H149     1.0000 0.80330  0.64550  0.99070  Biso   1.000  H
  H150     1.0000 0.30330  0.14550  0.99070  Biso   1.000  H
  H151     1.0000 0.19670  0.64550  0.00930  Biso   1.000  H
  H152     1.0000 0.69670  0.14550  0.00930  Biso   1.000  H
  C225     1.0000 0.25480  0.41421  0.02330  Biso   1.000  C
  C226     1.0000 0.75480  0.91421  0.02330  Biso   1.000  C
  C227     1.0000 0.74520  0.41421  0.97670  Biso   1.000  C
  C228     1.0000 0.24520  0.91421  0.97670  Biso   1.000  C
  C229     1.0000 0.74520  0.58579  0.97670  Biso   1.000  C
  C230     1.0000 0.24520  0.08579  0.97670  Biso   1.000  C
  C231     1.0000 0.25480  0.58579  0.02330  Biso   1.000  C
  C232     1.0000 0.75480  0.08579  0.02330  Biso   1.000  C
  H153     1.0000 0.17780  0.42540  0.00130  Biso   1.000  H
  H154     1.0000 0.67780  0.92540  0.00130  Biso   1.000  H
  H155     1.0000 0.82220  0.42540  0.99870  Biso   1.000  H
  H156     1.0000 0.32220  0.92540  0.99870  Biso   1.000  H
  H157     1.0000 0.82220  0.57460  0.99870  Biso   1.000  H
  H158     1.0000 0.32220  0.07460  0.99870  Biso   1.000  H
  H159     1.0000 0.17780  0.57460  0.00130  Biso   1.000  H
  H160     1.0000 0.67780  0.07460  0.00130  Biso   1.000  H
  C233     1.0000 0.38780  0.30734  0.07160  Biso   1.000  C
  C234     1.0000 0.88780  0.80734  0.07160  Biso   1.000  C
  C235     1.0000 0.61220  0.30734  0.92840  Biso   1.000  C
  C236     1.0000 0.11220  0.80734  0.92840  Biso   1.000  C
  C237     1.0000 0.61220  0.69266  0.92840  Biso   1.000  C
  C238     1.0000 0.11220  0.19266  0.92840  Biso   1.000  C
  C239     1.0000 0.38780  0.69266  0.07160  Biso   1.000  C
  C240     1.0000 0.88780  0.19266  0.07160  Biso   1.000  C
  N1       1.0000 0.88490  0.05756  0.43309  Biso   1.000  N
  N2       1.0000 0.38490  0.55756  0.43309  Biso   1.000  N
  N3       1.0000 0.11510  0.05756  0.56691  Biso   1.000  N
  N4       1.0000 0.61510  0.55756  0.56691  Biso   1.000  N
  N5       1.0000 0.11510  0.94244  0.56691  Biso   1.000  N
  N6       1.0000 0.61510  0.44244  0.56691  Biso   1.000  N
  N7       1.0000 0.88490  0.94244  0.43309  Biso   1.000  N
  N8       1.0000 0.38490  0.44244  0.43309  Biso   1.000  N
  N9       1.0000 0.44680  0.05948  0.35948  Biso   1.000  N
  N10      1.0000 0.94680  0.55948  0.35948  Biso   1.000  N
  N11      1.0000 0.55320  0.05948  0.64052  Biso   1.000  N
  N12      1.0000 0.05320  0.55948  0.64052  Biso   1.000  N
  N13      1.0000 0.55320  0.94052  0.64052  Biso   1.000  N
  N14      1.0000 0.05320  0.44052  0.64052  Biso   1.000  N
  N15      1.0000 0.44680  0.94052  0.35948  Biso   1.000  N
  N16      1.0000 0.94680  0.44052  0.35948  Biso   1.000  N
  N17      1.0000 0.03240  0.05710  0.25654  Biso   1.000  N
  N18      1.0000 0.53240  0.55710  0.25654  Biso   1.000  N
  N19      1.0000 0.96760  0.05710  0.74346  Biso   1.000  N
  N20      1.0000 0.46760  0.55710  0.74346  Biso   1.000  N
  N21      1.0000 0.96760  0.94290  0.74346  Biso   1.000  N
  N22      1.0000 0.46760  0.44290  0.74346  Biso   1.000  N
  N23      1.0000 0.03240  0.94290  0.25654  Biso   1.000  N
  N24      1.0000 0.53240  0.44290  0.25654  Biso   1.000  N
  N25      1.0000 0.48640  0.05651  0.13764  Biso   1.000  N
  N26      1.0000 0.98640  0.55651  0.13764  Biso   1.000  N
  N27      1.0000 0.51360  0.05651  0.86236  Biso   1.000  N
  N28      1.0000 0.01360  0.55651  0.86236  Biso   1.000  N
  N29      1.0000 0.51360  0.94349  0.86236  Biso   1.000  N
  N30      1.0000 0.01360  0.44349  0.86236  Biso   1.000  N
  N31      1.0000 0.48640  0.94349  0.13764  Biso   1.000  N
  N32      1.0000 0.98640  0.44349  0.13764  Biso   1.000  N
  N33      1.0000 0.34980  0.44023  0.04830  Biso   1.000  N
  N34      1.0000 0.84980  0.94023  0.04830  Biso   1.000  N
  N35      1.0000 0.65020  0.44023  0.95170  Biso   1.000  N
  N36      1.0000 0.15020  0.94023  0.95170  Biso   1.000  N
  N37      1.0000 0.65020  0.55977  0.95170  Biso   1.000  N
  N38      1.0000 0.15020  0.05977  0.95170  Biso   1.000  N
  N39      1.0000 0.34980  0.55977  0.04830  Biso   1.000  N
  N40      1.0000 0.84980  0.05977  0.04830  Biso   1.000  N
  O1       1.0000 0.64800  0.18864  0.47460  Biso   1.000  O
  O2       1.0000 0.14800  0.68864  0.47460  Biso   1.000  O
  O3       1.0000 0.35200  0.18864  0.52540  Biso   1.000  O
  O4       1.0000 0.85200  0.68864  0.52540  Biso   1.000  O
  O5       1.0000 0.35200  0.81136  0.52540  Biso   1.000  O
  O6       1.0000 0.85200  0.31136  0.52540  Biso   1.000  O
  O7       1.0000 0.64800  0.81136  0.47460  Biso   1.000  O
  O8       1.0000 0.14800  0.31136  0.47460  Biso   1.000  O
  O9       1.0000 0.84300  0.21203  0.45625  Biso   1.000  O
  O10      1.0000 0.34300  0.71203  0.45625  Biso   1.000  O
  O11      1.0000 0.15700  0.21203  0.54375  Biso   1.000  O
  O12      1.0000 0.65700  0.71203  0.54375  Biso   1.000  O
  O13      1.0000 0.15700  0.78797  0.54375  Biso   1.000  O
  O14      1.0000 0.65700  0.28797  0.54375  Biso   1.000  O
  O15      1.0000 0.84300  0.78797  0.45625  Biso   1.000  O
  O16      1.0000 0.34300  0.28797  0.45625  Biso   1.000  O
  O17      1.0000 0.50530  0.21155  0.31149  Biso   1.000  O
  O18      1.0000 0.00530  0.71155  0.31149  Biso   1.000  O
  O19      1.0000 0.49470  0.21155  0.68851  Biso   1.000  O
  O20      1.0000 0.99470  0.71155  0.68851  Biso   1.000  O
  O21      1.0000 0.49470  0.78845  0.68851  Biso   1.000  O
  O22      1.0000 0.99470  0.28845  0.68851  Biso   1.000  O
  O23      1.0000 0.50530  0.78845  0.31149  Biso   1.000  O
  O24      1.0000 0.00530  0.28845  0.31149  Biso   1.000  O
  O25      1.0000 0.39680  0.21239  0.39624  Biso   1.000  O
  O26      1.0000 0.89680  0.71239  0.39624  Biso   1.000  O
  O27      1.0000 0.60320  0.21239  0.60376  Biso   1.000  O
  O28      1.0000 0.10320  0.71239  0.60376  Biso   1.000  O
  O29      1.0000 0.60320  0.78761  0.60376  Biso   1.000  O
  O30      1.0000 0.10320  0.28761  0.60376  Biso   1.000  O
  O31      1.0000 0.39680  0.78761  0.39624  Biso   1.000  O
  O32      1.0000 0.89680  0.28761  0.39624  Biso   1.000  O
  O33      1.0000 0.25610  0.19376  0.23504  Biso   1.000  O
  O34      1.0000 0.75610  0.69376  0.23504  Biso   1.000  O
  O35      1.0000 0.74390  0.19376  0.76496  Biso   1.000  O
  O36      1.0000 0.24390  0.69376  0.76496  Biso   1.000  O
  O37      1.0000 0.74390  0.80624  0.76496  Biso   1.000  O
  O38      1.0000 0.24390  0.30624  0.76496  Biso   1.000  O
  O39      1.0000 0.25610  0.80624  0.23504  Biso   1.000  O
  O40      1.0000 0.75610  0.30624  0.23504  Biso   1.000  O
  O41      1.0000 0.05970  0.21228  0.25970  Biso   1.000  O
  O42      1.0000 0.55970  0.71228  0.25970  Biso   1.000  O
  O43      1.0000 0.94030  0.21228  0.74030  Biso   1.000  O
  O44      1.0000 0.44030  0.71228  0.74030  Biso   1.000  O
  O45      1.0000 0.94030  0.78772  0.74030  Biso   1.000  O
  O46      1.0000 0.44030  0.28772  0.74030  Biso   1.000  O
  O47      1.0000 0.05970  0.78772  0.25970  Biso   1.000  O
  O48      1.0000 0.55970  0.28772  0.25970  Biso   1.000  O
  O49      1.0000 0.52270  0.21006  0.16907  Biso   1.000  O
  O50      1.0000 0.02270  0.71006  0.16907  Biso   1.000  O
  O51      1.0000 0.47730  0.21006  0.83093  Biso   1.000  O
  O52      1.0000 0.97730  0.71006  0.83093  Biso   1.000  O
  O53      1.0000 0.47730  0.78994  0.83093  Biso   1.000  O
  O54      1.0000 0.97730  0.28994  0.83093  Biso   1.000  O
  O55      1.0000 0.52270  0.78994  0.16907  Biso   1.000  O
  O56      1.0000 0.02270  0.28994  0.16907  Biso   1.000  O
  O57      1.0000 0.73100  0.18890  0.18577  Biso   1.000  O
  O58      1.0000 0.23100  0.68890  0.18577  Biso   1.000  O
  O59      1.0000 0.26900  0.18890  0.81423  Biso   1.000  O
  O60      1.0000 0.76900  0.68890  0.81423  Biso   1.000  O
  O61      1.0000 0.26900  0.81110  0.81423  Biso   1.000  O
  O62      1.0000 0.76900  0.31110  0.81423  Biso   1.000  O
  O63      1.0000 0.73100  0.81110  0.18577  Biso   1.000  O
  O64      1.0000 0.23100  0.31110  0.18577  Biso   1.000  O
  O65      1.0000 0.45360  0.29426  0.12311  Biso   1.000  O
  O66      1.0000 0.95360  0.79426  0.12311  Biso   1.000  O
  O67      1.0000 0.54640  0.29426  0.87689  Biso   1.000  O
  O68      1.0000 0.04640  0.79426  0.87689  Biso   1.000  O
  O69      1.0000 0.54640  0.70574  0.87689  Biso   1.000  O
  O70      1.0000 0.04640  0.20574  0.87689  Biso   1.000  O
  O71      1.0000 0.45360  0.70574  0.12311  Biso   1.000  O
  O72      1.0000 0.95360  0.20574  0.12311  Biso   1.000  O
  O73      1.0000 0.32940  0.28522  0.02900  Biso   1.000  O
  O74      1.0000 0.82940  0.78522  0.02900  Biso   1.000  O
  O75      1.0000 0.67060  0.28522  0.97100  Biso   1.000  O
  O76      1.0000 0.17060  0.78522  0.97100  Biso   1.000  O
  O77      1.0000 0.67060  0.71478  0.97100  Biso   1.000  O
  O78      1.0000 0.17060  0.21478  0.97100  Biso   1.000  O
  O79      1.0000 0.32940  0.71478  0.02900  Biso   1.000  O
  O80      1.0000 0.82940  0.21478  0.02900  Biso   1.000  O
  O81      1.0000 0.39380  0.27529  0.59027  Biso   1.000  O
  O82      1.0000 0.89380  0.77529  0.59027  Biso   1.000  O
  O83      1.0000 0.60620  0.27529  0.40973  Biso   1.000  O
  O84      1.0000 0.10620  0.77529  0.40973  Biso   1.000  O
  O85      1.0000 0.60620  0.72471  0.40973  Biso   1.000  O
  O86      1.0000 0.10620  0.22471  0.40973  Biso   1.000  O
  O87      1.0000 0.39380  0.72471  0.59027  Biso   1.000  O
  O88      1.0000 0.89380  0.22471  0.59027  Biso   1.000  O
  O89      1.0000 0.29340  0.27768  0.30633  Biso   1.000  O
  O90      1.0000 0.79340  0.77768  0.30633  Biso   1.000  O
  O91      1.0000 0.70660  0.27768  0.69367  Biso   1.000  O
  O92      1.0000 0.20660  0.77768  0.69367  Biso   1.000  O
  O93      1.0000 0.70660  0.72232  0.69367  Biso   1.000  O
  O94      1.0000 0.20660  0.22232  0.69367  Biso   1.000  O
  O95      1.0000 0.29340  0.72232  0.30633  Biso   1.000  O
  O96      1.0000 0.79340  0.22232  0.30633  Biso   1.000  O
  O97      1.0000 0.23010  0.22835  0.11222  Biso   1.000  O
  O98      1.0000 0.73010  0.72835  0.11222  Biso   1.000  O
  O99      1.0000 0.76990  0.22835  0.88778  Biso   1.000  O
  O100     1.0000 0.26990  0.72835  0.88778  Biso   1.000  O
  O101     1.0000 0.76990  0.77165  0.88778  Biso   1.000  O
  O102     1.0000 0.26990  0.27165  0.88778  Biso   1.000  O
  O103     1.0000 0.23010  0.77165  0.11222  Biso   1.000  O
  O104     1.0000 0.73010  0.27165  0.11222  Biso   1.000  O
  O105     1.0000 0.50000  0.20410  0.00000  Biso   1.000  O
  O106     1.0000 0.00000  0.70410  0.00000  Biso   1.000  O
  O107     1.0000 0.50000  0.79590  0.00000  Biso   1.000  O
  O108     1.0000 0.00000  0.29590  0.00000  Biso   1.000  O
