data_image0
_cell_length_a       20.8997
_cell_length_b       20.8997
_cell_length_c       9.8147
_cell_angle_alpha    90
_cell_angle_beta     90
_cell_angle_gamma    90

_symmetry_space_group_name_H-M    "P 1"
_symmetry_int_tables_number       1

loop_
  _symmetry_equiv_pos_as_xyz
  'x, y, z'

loop_
  _atom_site_label
  _atom_site_occupancy
  _atom_site_fract_x
  _atom_site_fract_y
  _atom_site_fract_z
  _atom_site_thermal_displace_type
  _atom_site_B_iso_or_equiv
  _atom_site_type_symbol
  Cu1      1.0000 0.75000  0.75000  0.75000  Biso   1.000  Cu
  Cu2      1.0000 0.25000  0.25000  0.25000  Biso   1.000  Cu
  V1       1.0000 0.45729  0.58151  0.38105  Biso   1.000  V
  V2       1.0000 0.41849  0.95729  0.88105  Biso   1.000  V
  V3       1.0000 0.04271  0.91849  0.38105  Biso   1.000  V
  V4       1.0000 0.08151  0.54271  0.88105  Biso   1.000  V
  V5       1.0000 0.54271  0.41849  0.61895  Biso   1.000  V
  V6       1.0000 0.58151  0.04271  0.11895  Biso   1.000  V
  V7       1.0000 0.95729  0.08151  0.61895  Biso   1.000  V
  V8       1.0000 0.91849  0.45729  0.11895  Biso   1.000  V
  V9       1.0000 0.53289  0.44636  0.31582  Biso   1.000  V
  V10      1.0000 0.55364  0.03289  0.81582  Biso   1.000  V
  V11      1.0000 0.96711  0.05364  0.31582  Biso   1.000  V
  V12      1.0000 0.94636  0.46711  0.81582  Biso   1.000  V
  V13      1.0000 0.46711  0.55364  0.68418  Biso   1.000  V
  V14      1.0000 0.44636  0.96711  0.18418  Biso   1.000  V
  V15      1.0000 0.03289  0.94636  0.68418  Biso   1.000  V
  V16      1.0000 0.05364  0.53289  0.18418  Biso   1.000  V
  V17      1.0000 0.59374  0.55018  0.53512  Biso   1.000  V
  V18      1.0000 0.44982  0.09374  0.03512  Biso   1.000  V
  V19      1.0000 0.90626  0.94982  0.53512  Biso   1.000  V
  V20      1.0000 0.05018  0.40626  0.03512  Biso   1.000  V
  V21      1.0000 0.40626  0.44982  0.46488  Biso   1.000  V
  V22      1.0000 0.55018  0.90626  0.96488  Biso   1.000  V
  V23      1.0000 0.09374  0.05018  0.46488  Biso   1.000  V
  V24      1.0000 0.94982  0.59374  0.96488  Biso   1.000  V
  N1       1.0000 0.70994  0.68433  0.87710  Biso   1.000  N
  N2       1.0000 0.31567  0.20994  0.37710  Biso   1.000  N
  N3       1.0000 0.79006  0.81567  0.87710  Biso   1.000  N
  N4       1.0000 0.18433  0.29006  0.37710  Biso   1.000  N
  N5       1.0000 0.29006  0.31567  0.12290  Biso   1.000  N
  N6       1.0000 0.68433  0.79006  0.62290  Biso   1.000  N
  N7       1.0000 0.20994  0.18433  0.12290  Biso   1.000  N
  N8       1.0000 0.81567  0.70994  0.62290  Biso   1.000  N
  O1       1.0000 0.60905  0.50173  0.35860  Biso   1.000  O
  O2       1.0000 0.49827  0.10905  0.85860  Biso   1.000  O
  O3       1.0000 0.89095  0.99827  0.35860  Biso   1.000  O
  O4       1.0000 0.00173  0.39095  0.85860  Biso   1.000  O
  O5       1.0000 0.39095  0.49827  0.64140  Biso   1.000  O
  O6       1.0000 0.50173  0.89095  0.14140  Biso   1.000  O
  O7       1.0000 0.10905  0.00173  0.64140  Biso   1.000  O
  O8       1.0000 0.99827  0.60905  0.14140  Biso   1.000  O
  O9       1.0000 0.50000  0.50000  0.50000  Biso   1.000  O
  O10      1.0000 0.50000  0.00000  0.00000  Biso   1.000  O
  O11      1.0000 0.00000  0.00000  0.50000  Biso   1.000  O
  O12      1.0000 0.00000  0.50000  0.00000  Biso   1.000  O
  O13      1.0000 0.49905  0.52783  0.23390  Biso   1.000  O
  O14      1.0000 0.47217  0.99905  0.73390  Biso   1.000  O
  O15      1.0000 0.00095  0.97217  0.23390  Biso   1.000  O
  O16      1.0000 0.02783  0.50095  0.73390  Biso   1.000  O
  O17      1.0000 0.50095  0.47217  0.76610  Biso   1.000  O
  O18      1.0000 0.52783  0.00095  0.26610  Biso   1.000  O
  O19      1.0000 0.99905  0.02783  0.76610  Biso   1.000  O
  O20      1.0000 0.97217  0.49905  0.26610  Biso   1.000  O
  O21      1.0000 0.38890  0.52542  0.37490  Biso   1.000  O
  O22      1.0000 0.47458  0.88890  0.87490  Biso   1.000  O
  O23      1.0000 0.11110  0.97458  0.37490  Biso   1.000  O
  O24      1.0000 0.02542  0.61110  0.87490  Biso   1.000  O
  O25      1.0000 0.61110  0.47458  0.62510  Biso   1.000  O
  O26      1.0000 0.52542  0.11110  0.12510  Biso   1.000  O
  O27      1.0000 0.88890  0.02542  0.62510  Biso   1.000  O
  O28      1.0000 0.97458  0.38890  0.12510  Biso   1.000  O
  O29      1.0000 0.54807  0.61141  0.40950  Biso   1.000  O
  O30      1.0000 0.38859  0.04807  0.90950  Biso   1.000  O
  O31      1.0000 0.95193  0.88859  0.40950  Biso   1.000  O
  O32      1.0000 0.11141  0.45193  0.90950  Biso   1.000  O
  O33      1.0000 0.45193  0.38859  0.59050  Biso   1.000  O
  O34      1.0000 0.61141  0.95193  0.09050  Biso   1.000  O
  O35      1.0000 0.04807  0.11141  0.59050  Biso   1.000  O
  O36      1.0000 0.88859  0.54807  0.09050  Biso   1.000  O
  O37      1.0000 0.54976  0.58440  0.67550  Biso   1.000  O
  O38      1.0000 0.41560  0.04976  0.17550  Biso   1.000  O
  O39      1.0000 0.95024  0.91560  0.67550  Biso   1.000  O
  O40      1.0000 0.08440  0.45024  0.17550  Biso   1.000  O
  O41      1.0000 0.45024  0.41560  0.32450  Biso   1.000  O
  O42      1.0000 0.58440  0.95024  0.82450  Biso   1.000  O
  O43      1.0000 0.04976  0.08440  0.32450  Biso   1.000  O
  O44      1.0000 0.91560  0.54976  0.82450  Biso   1.000  O
  O45      1.0000 0.43852  0.60966  0.55210  Biso   1.000  O
  O46      1.0000 0.39034  0.93852  0.05210  Biso   1.000  O
  O47      1.0000 0.06148  0.89034  0.55210  Biso   1.000  O
  O48      1.0000 0.10966  0.56148  0.05210  Biso   1.000  O
  O49      1.0000 0.56148  0.39034  0.44790  Biso   1.000  O
  O50      1.0000 0.60966  0.06148  0.94790  Biso   1.000  O
  O51      1.0000 0.93852  0.10966  0.44790  Biso   1.000  O
  O52      1.0000 0.89034  0.43852  0.94790  Biso   1.000  O
  O53      1.0000 0.66153  0.58730  0.53600  Biso   1.000  O
  O54      1.0000 0.41270  0.16153  0.03600  Biso   1.000  O
  O55      1.0000 0.83847  0.91270  0.53600  Biso   1.000  O
  O56      1.0000 0.08730  0.33847  0.03600  Biso   1.000  O
  O57      1.0000 0.33847  0.41270  0.46400  Biso   1.000  O
  O58      1.0000 0.58730  0.83847  0.96400  Biso   1.000  O
  O59      1.0000 0.16153  0.08730  0.46400  Biso   1.000  O
  O60      1.0000 0.91270  0.66153  0.96400  Biso   1.000  O
  O61      1.0000 0.55931  0.41612  0.17580  Biso   1.000  O
  O62      1.0000 0.58388  0.05931  0.67580  Biso   1.000  O
  O63      1.0000 0.94069  0.08388  0.17580  Biso   1.000  O
  O64      1.0000 0.91612  0.44069  0.67580  Biso   1.000  O
  O65      1.0000 0.44069  0.58388  0.82420  Biso   1.000  O
  O66      1.0000 0.41612  0.94069  0.32420  Biso   1.000  O
  O67      1.0000 0.05931  0.91612  0.82420  Biso   1.000  O
  O68      1.0000 0.08388  0.55931  0.32420  Biso   1.000  O
  O69      1.0000 0.43506  0.63948  0.28480  Biso   1.000  O
  O70      1.0000 0.36052  0.93506  0.78480  Biso   1.000  O
  O71      1.0000 0.06494  0.86052  0.28480  Biso   1.000  O
  O72      1.0000 0.13948  0.56494  0.78480  Biso   1.000  O
  O73      1.0000 0.56494  0.36052  0.71520  Biso   1.000  O
  O74      1.0000 0.63948  0.06494  0.21520  Biso   1.000  O
  O75      1.0000 0.93506  0.13948  0.71520  Biso   1.000  O
  O76      1.0000 0.86052  0.43506  0.21520  Biso   1.000  O
  C1       1.0000 0.63677  0.62062  0.07700  Biso   1.000  C
  C2       1.0000 0.37938  0.13677  0.57700  Biso   1.000  C
  C3       1.0000 0.86323  0.87938  0.07700  Biso   1.000  C
  C4       1.0000 0.12062  0.36323  0.57700  Biso   1.000  C
  C5       1.0000 0.36323  0.37938  0.92300  Biso   1.000  C
  C6       1.0000 0.62062  0.86323  0.42300  Biso   1.000  C
  C7       1.0000 0.13677  0.12062  0.92300  Biso   1.000  C
  C8       1.0000 0.87938  0.63677  0.42300  Biso   1.000  C
  C9       1.0000 0.61507  0.62787  0.94370  Biso   1.000  C
  C10      1.0000 0.37213  0.11507  0.44370  Biso   1.000  C
  C11      1.0000 0.88493  0.87213  0.94370  Biso   1.000  C
  C12      1.0000 0.12787  0.38493  0.44370  Biso   1.000  C
  C13      1.0000 0.38493  0.37213  0.05630  Biso   1.000  C
  C14      1.0000 0.62787  0.88493  0.55630  Biso   1.000  C
  C15      1.0000 0.11507  0.12787  0.05630  Biso   1.000  C
  C16      1.0000 0.87213  0.61507  0.55630  Biso   1.000  C
  H1       1.0000 0.57470  0.61080  0.91800  Biso   1.000  H
  H2       1.0000 0.38920  0.07470  0.41800  Biso   1.000  H
  H3       1.0000 0.92530  0.88920  0.91800  Biso   1.000  H
  H4       1.0000 0.11080  0.42530  0.41800  Biso   1.000  H
  H5       1.0000 0.42530  0.38920  0.08200  Biso   1.000  H
  H6       1.0000 0.61080  0.92530  0.58200  Biso   1.000  H
  H7       1.0000 0.07470  0.11080  0.08200  Biso   1.000  H
  H8       1.0000 0.88920  0.57470  0.58200  Biso   1.000  H
  C17      1.0000 0.58219  0.63792  0.29800  Biso   1.000  C
  C18      1.0000 0.36208  0.08219  0.79800  Biso   1.000  C
  C19      1.0000 0.91781  0.86208  0.29800  Biso   1.000  C
  C20      1.0000 0.13792  0.41781  0.79800  Biso   1.000  C
  C21      1.0000 0.41781  0.36208  0.70200  Biso   1.000  C
  C22      1.0000 0.63792  0.91781  0.20200  Biso   1.000  C
  C23      1.0000 0.08219  0.13792  0.70200  Biso   1.000  C
  C24      1.0000 0.86208  0.58219  0.20200  Biso   1.000  C
  H9       1.0000 0.62250  0.65710  0.33190  Biso   1.000  H
  H10      1.0000 0.34290  0.12250  0.83190  Biso   1.000  H
  H11      1.0000 0.87750  0.84290  0.33190  Biso   1.000  H
  H12      1.0000 0.15710  0.37750  0.83190  Biso   1.000  H
  H13      1.0000 0.37750  0.34290  0.66810  Biso   1.000  H
  H14      1.0000 0.65710  0.87750  0.16810  Biso   1.000  H
  H15      1.0000 0.12250  0.15710  0.66810  Biso   1.000  H
  H16      1.0000 0.84290  0.62250  0.16810  Biso   1.000  H
  H17      1.0000 0.55630  0.67250  0.25660  Biso   1.000  H
  H18      1.0000 0.32750  0.05630  0.75660  Biso   1.000  H
  H19      1.0000 0.94370  0.82750  0.25660  Biso   1.000  H
  H20      1.0000 0.17250  0.44370  0.75660  Biso   1.000  H
  H21      1.0000 0.44370  0.32750  0.74340  Biso   1.000  H
  H22      1.0000 0.67250  0.94370  0.24340  Biso   1.000  H
  H23      1.0000 0.05630  0.17250  0.74340  Biso   1.000  H
  H24      1.0000 0.82750  0.55630  0.24340  Biso   1.000  H
  C25      1.0000 0.59821  0.58755  0.18770  Biso   1.000  C
  C26      1.0000 0.41245  0.09821  0.68770  Biso   1.000  C
  C27      1.0000 0.90179  0.91245  0.18770  Biso   1.000  C
  C28      1.0000 0.08755  0.40179  0.68770  Biso   1.000  C
  C29      1.0000 0.40179  0.41245  0.81230  Biso   1.000  C
  C30      1.0000 0.58755  0.90179  0.31230  Biso   1.000  C
  C31      1.0000 0.09821  0.08755  0.81230  Biso   1.000  C
  C32      1.0000 0.91245  0.59821  0.31230  Biso   1.000  C
  C33      1.0000 0.53598  0.55887  0.13050  Biso   1.000  C
  C34      1.0000 0.44113  0.03598  0.63050  Biso   1.000  C
  C35      1.0000 0.96402  0.94113  0.13050  Biso   1.000  C
  C36      1.0000 0.05887  0.46402  0.63050  Biso   1.000  C
  C37      1.0000 0.46402  0.44113  0.86950  Biso   1.000  C
  C38      1.0000 0.55887  0.96402  0.36950  Biso   1.000  C
  C39      1.0000 0.03598  0.05887  0.86950  Biso   1.000  C
  C40      1.0000 0.94113  0.53598  0.36950  Biso   1.000  C
  H25      1.0000 0.51010  0.59340  0.08870  Biso   1.000  H
  H26      1.0000 0.40660  0.01010  0.58870  Biso   1.000  H
  H27      1.0000 0.98990  0.90660  0.08870  Biso   1.000  H
  H28      1.0000 0.09340  0.48990  0.58870  Biso   1.000  H
  H29      1.0000 0.48990  0.40660  0.91130  Biso   1.000  H
  H30      1.0000 0.59340  0.98990  0.41130  Biso   1.000  H
  H31      1.0000 0.01010  0.09340  0.91130  Biso   1.000  H
  H32      1.0000 0.90660  0.51010  0.41130  Biso   1.000  H
  H33      1.0000 0.54660  0.52760  0.05830  Biso   1.000  H
  H34      1.0000 0.47240  0.04660  0.55830  Biso   1.000  H
  H35      1.0000 0.95340  0.97240  0.05830  Biso   1.000  H
  H36      1.0000 0.02760  0.45340  0.55830  Biso   1.000  H
  H37      1.0000 0.45340  0.47240  0.94170  Biso   1.000  H
  H38      1.0000 0.52760  0.95340  0.44170  Biso   1.000  H
  H39      1.0000 0.04660  0.02760  0.94170  Biso   1.000  H
  H40      1.0000 0.97240  0.54660  0.44170  Biso   1.000  H
  C41      1.0000 0.73209  0.67531  0.00450  Biso   1.000  C
  C42      1.0000 0.32469  0.23209  0.50450  Biso   1.000  C
  C43      1.0000 0.76791  0.82469  0.00450  Biso   1.000  C
  C44      1.0000 0.17531  0.26791  0.50450  Biso   1.000  C
  C45      1.0000 0.26791  0.32469  0.99550  Biso   1.000  C
  C46      1.0000 0.67531  0.76791  0.49550  Biso   1.000  C
  C47      1.0000 0.23209  0.17531  0.99550  Biso   1.000  C
  C48      1.0000 0.82469  0.73209  0.49550  Biso   1.000  C
  H41      1.0000 0.77370  0.69050  0.02590  Biso   1.000  H
  H42      1.0000 0.30950  0.27370  0.52590  Biso   1.000  H
  H43      1.0000 0.72630  0.80950  0.02590  Biso   1.000  H
  H44      1.0000 0.19050  0.22630  0.52590  Biso   1.000  H
  H45      1.0000 0.22630  0.30950  0.97410  Biso   1.000  H
  H46      1.0000 0.69050  0.72630  0.47410  Biso   1.000  H
  H47      1.0000 0.27370  0.19050  0.97410  Biso   1.000  H
  H48      1.0000 0.80950  0.77370  0.47410  Biso   1.000  H
  C49      1.0000 0.65199  0.65977  0.84840  Biso   1.000  C
  C50      1.0000 0.34023  0.15199  0.34840  Biso   1.000  C
  C51      1.0000 0.84801  0.84023  0.84840  Biso   1.000  C
  C52      1.0000 0.15977  0.34801  0.34840  Biso   1.000  C
  C53      1.0000 0.34801  0.34023  0.15160  Biso   1.000  C
  C54      1.0000 0.65977  0.84801  0.65160  Biso   1.000  C
  C55      1.0000 0.15199  0.15977  0.15160  Biso   1.000  C
  C56      1.0000 0.84023  0.65199  0.65160  Biso   1.000  C
  H49      1.0000 0.63570  0.66460  0.75870  Biso   1.000  H
  H50      1.0000 0.33540  0.13570  0.25870  Biso   1.000  H
  H51      1.0000 0.86430  0.83540  0.75870  Biso   1.000  H
  H52      1.0000 0.16460  0.36430  0.25870  Biso   1.000  H
  H53      1.0000 0.36430  0.33540  0.24130  Biso   1.000  H
  H54      1.0000 0.66460  0.86430  0.74130  Biso   1.000  H
  H55      1.0000 0.13570  0.16460  0.24130  Biso   1.000  H
  H56      1.0000 0.83540  0.63570  0.74130  Biso   1.000  H
  C57      1.0000 0.69754  0.64512  0.10560  Biso   1.000  C
  C58      1.0000 0.35488  0.19754  0.60560  Biso   1.000  C
  C59      1.0000 0.80246  0.85488  0.10560  Biso   1.000  C
  C60      1.0000 0.14512  0.30246  0.60560  Biso   1.000  C
  C61      1.0000 0.30246  0.35488  0.89440  Biso   1.000  C
  C62      1.0000 0.64512  0.80246  0.39440  Biso   1.000  C
  C63      1.0000 0.19754  0.14512  0.89440  Biso   1.000  C
  C64      1.0000 0.85488  0.69754  0.39440  Biso   1.000  C
  H57      1.0000 0.71500  0.64100  0.19450  Biso   1.000  H
  H58      1.0000 0.35900  0.21500  0.69450  Biso   1.000  H
  H59      1.0000 0.78500  0.85900  0.19450  Biso   1.000  H
  H60      1.0000 0.14100  0.28500  0.69450  Biso   1.000  H
  H61      1.0000 0.28500  0.35900  0.80550  Biso   1.000  H
  H62      1.0000 0.64100  0.78500  0.30550  Biso   1.000  H
  H63      1.0000 0.21500  0.14100  0.80550  Biso   1.000  H
  H64      1.0000 0.85900  0.71500  0.30550  Biso   1.000  H
  C65      1.0000 0.64013  0.53366  0.24880  Biso   1.000  C
  C66      1.0000 0.46634  0.14013  0.74880  Biso   1.000  C
  C67      1.0000 0.85987  0.96634  0.24880  Biso   1.000  C
  C68      1.0000 0.03366  0.35987  0.74880  Biso   1.000  C
  C69      1.0000 0.35987  0.46634  0.75120  Biso   1.000  C
  C70      1.0000 0.53366  0.85987  0.25120  Biso   1.000  C
  C71      1.0000 0.14013  0.03366  0.75120  Biso   1.000  C
  C72      1.0000 0.96634  0.64013  0.25120  Biso   1.000  C
  H65      1.0000 0.65040  0.50220  0.17670  Biso   1.000  H
  H66      1.0000 0.49780  0.15040  0.67670  Biso   1.000  H
  H67      1.0000 0.84960  0.99780  0.17670  Biso   1.000  H
  H68      1.0000 0.00220  0.34960  0.67670  Biso   1.000  H
  H69      1.0000 0.34960  0.49780  0.82330  Biso   1.000  H
  H70      1.0000 0.50220  0.84960  0.32330  Biso   1.000  H
  H71      1.0000 0.15040  0.00220  0.82330  Biso   1.000  H
  H72      1.0000 0.99780  0.65040  0.32330  Biso   1.000  H
  H73      1.0000 0.68090  0.55220  0.28180  Biso   1.000  H
  H74      1.0000 0.44780  0.18090  0.78180  Biso   1.000  H
  H75      1.0000 0.81910  0.94780  0.28180  Biso   1.000  H
  H76      1.0000 0.05220  0.31910  0.78180  Biso   1.000  H
  H77      1.0000 0.31910  0.44780  0.71820  Biso   1.000  H
  H78      1.0000 0.55220  0.81910  0.21820  Biso   1.000  H
  H79      1.0000 0.18090  0.05220  0.71820  Biso   1.000  H
  H80      1.0000 0.94780  0.68090  0.21820  Biso   1.000  H
  N9       1.0000 0.26630  0.55580  0.33130  Biso   1.000  N
  N10      1.0000 0.44420  0.76630  0.83130  Biso   1.000  N
  N11      1.0000 0.23370  0.94420  0.33130  Biso   1.000  N
  N12      1.0000 0.05580  0.73370  0.83130  Biso   1.000  N
  N13      1.0000 0.73370  0.44420  0.66870  Biso   1.000  N
  N14      1.0000 0.55580  0.23370  0.16870  Biso   1.000  N
  N15      1.0000 0.76630  0.05580  0.66870  Biso   1.000  N
  N16      1.0000 0.94420  0.26630  0.16870  Biso   1.000  N
  O77      1.0000 0.20840  0.65360  0.25730  Biso   1.000  O
  O78      1.0000 0.34640  0.70840  0.75730  Biso   1.000  O
  O79      1.0000 0.29160  0.84640  0.25730  Biso   1.000  O
  O80      1.0000 0.15360  0.79160  0.75730  Biso   1.000  O
  O81      1.0000 0.79160  0.34640  0.74270  Biso   1.000  O
  O82      1.0000 0.65360  0.29160  0.24270  Biso   1.000  O
  O83      1.0000 0.70840  0.15360  0.74270  Biso   1.000  O
  O84      1.0000 0.84640  0.20840  0.24270  Biso   1.000  O
  C73      1.0000 0.26330  0.62510  0.27480  Biso   1.000  C
  C74      1.0000 0.37490  0.76330  0.77480  Biso   1.000  C
  C75      1.0000 0.23670  0.87490  0.27480  Biso   1.000  C
  C76      1.0000 0.12510  0.73670  0.77480  Biso   1.000  C
  C77      1.0000 0.73670  0.37490  0.72520  Biso   1.000  C
  C78      1.0000 0.62510  0.23670  0.22520  Biso   1.000  C
  C79      1.0000 0.76330  0.12510  0.72520  Biso   1.000  C
  C80      1.0000 0.87490  0.26330  0.22520  Biso   1.000  C
  H81      1.0000 0.30180  0.64700  0.25280  Biso   1.000  H
  H82      1.0000 0.35300  0.80180  0.75280  Biso   1.000  H
  H83      1.0000 0.19820  0.85300  0.25280  Biso   1.000  H
  H84      1.0000 0.14700  0.69820  0.75280  Biso   1.000  H
  H85      1.0000 0.69820  0.35300  0.74720  Biso   1.000  H
  H86      1.0000 0.64700  0.19820  0.24720  Biso   1.000  H
  H87      1.0000 0.80180  0.14700  0.74720  Biso   1.000  H
  H88      1.0000 0.85300  0.30180  0.24720  Biso   1.000  H
  C81      1.0000 0.27070  0.50660  0.09960  Biso   1.000  C
  C82      1.0000 0.49340  0.77070  0.59960  Biso   1.000  C
  C83      1.0000 0.22930  0.99340  0.09960  Biso   1.000  C
  C84      1.0000 0.00660  0.72930  0.59960  Biso   1.000  C
  C85      1.0000 0.72930  0.49340  0.90040  Biso   1.000  C
  C86      1.0000 0.50660  0.22930  0.40040  Biso   1.000  C
  C87      1.0000 0.77070  0.00660  0.90040  Biso   1.000  C
  C88      1.0000 0.99340  0.27070  0.40040  Biso   1.000  C
  H89      1.0000 0.25400  0.47160  0.04320  Biso   1.000  H
  H90      1.0000 0.52840  0.75400  0.54320  Biso   1.000  H
  H91      1.0000 0.24600  0.02840  0.04320  Biso   1.000  H
  H92      1.0000 0.97160  0.74600  0.54320  Biso   1.000  H
  H93      1.0000 0.74600  0.52840  0.95680  Biso   1.000  H
  H94      1.0000 0.47160  0.24600  0.45680  Biso   1.000  H
  H95      1.0000 0.75400  0.97160  0.95680  Biso   1.000  H
  H96      1.0000 0.02840  0.25400  0.45680  Biso   1.000  H
  H97      1.0000 0.31730  0.50270  0.10710  Biso   1.000  H
  H98      1.0000 0.49730  0.81730  0.60710  Biso   1.000  H
  H99      1.0000 0.18270  0.99730  0.10710  Biso   1.000  H
  H100     1.0000 0.00270  0.68270  0.60710  Biso   1.000  H
  H101     1.0000 0.68270  0.49730  0.89290  Biso   1.000  H
  H102     1.0000 0.50270  0.18270  0.39290  Biso   1.000  H
  H103     1.0000 0.81730  0.00270  0.89290  Biso   1.000  H
  H104     1.0000 0.99730  0.31730  0.39290  Biso   1.000  H
  H105     1.0000 0.25990  0.54770  0.05750  Biso   1.000  H
  H106     1.0000 0.45230  0.75990  0.55750  Biso   1.000  H
  H107     1.0000 0.24010  0.95230  0.05750  Biso   1.000  H
  H108     1.0000 0.04770  0.74010  0.55750  Biso   1.000  H
  H109     1.0000 0.74010  0.45230  0.94250  Biso   1.000  H
  H110     1.0000 0.54770  0.24010  0.44250  Biso   1.000  H
  H111     1.0000 0.75990  0.04770  0.94250  Biso   1.000  H
  H112     1.0000 0.95230  0.25990  0.44250  Biso   1.000  H
  C89      1.0000 0.23580  0.54710  0.47350  Biso   1.000  C
  C90      1.0000 0.45290  0.73580  0.97350  Biso   1.000  C
  C91      1.0000 0.26420  0.95290  0.47350  Biso   1.000  C
  C92      1.0000 0.04710  0.76420  0.97350  Biso   1.000  C
  C93      1.0000 0.76420  0.45290  0.52650  Biso   1.000  C
  C94      1.0000 0.54710  0.26420  0.02650  Biso   1.000  C
  C95      1.0000 0.73580  0.04710  0.52650  Biso   1.000  C
  C96      1.0000 0.95290  0.23580  0.02650  Biso   1.000  C
  H113     1.0000 0.18910  0.55420  0.46740  Biso   1.000  H
  H114     1.0000 0.44580  0.68910  0.96740  Biso   1.000  H
  H115     1.0000 0.31090  0.94580  0.46740  Biso   1.000  H
  H116     1.0000 0.05420  0.81090  0.96740  Biso   1.000  H
  H117     1.0000 0.81090  0.44580  0.53260  Biso   1.000  H
  H118     1.0000 0.55420  0.31090  0.03260  Biso   1.000  H
  H119     1.0000 0.68910  0.05420  0.53260  Biso   1.000  H
  H120     1.0000 0.94580  0.18910  0.03260  Biso   1.000  H
  H121     1.0000 0.24310  0.50280  0.50550  Biso   1.000  H
  H122     1.0000 0.49720  0.74310  0.00550  Biso   1.000  H
  H123     1.0000 0.25690  0.99720  0.50550  Biso   1.000  H
  H124     1.0000 0.00280  0.75690  0.00550  Biso   1.000  H
  H125     1.0000 0.75690  0.49720  0.49450  Biso   1.000  H
  H126     1.0000 0.50280  0.25690  0.99450  Biso   1.000  H
  H127     1.0000 0.74310  0.00280  0.49450  Biso   1.000  H
  H128     1.0000 0.99720  0.24310  0.99450  Biso   1.000  H
  C97      1.0000 0.26480  0.59410  0.57540  Biso   1.000  C
  C98      1.0000 0.40590  0.76480  0.07540  Biso   1.000  C
  C99      1.0000 0.23520  0.90590  0.57540  Biso   1.000  C
  C100     1.0000 0.09410  0.73520  0.07540  Biso   1.000  C
  C101     1.0000 0.73520  0.40590  0.42460  Biso   1.000  C
  C102     1.0000 0.59410  0.23520  0.92460  Biso   1.000  C
  C103     1.0000 0.76480  0.09410  0.42460  Biso   1.000  C
  C104     1.0000 0.90590  0.26480  0.92460  Biso   1.000  C
  H129     1.0000 0.24600  0.58700  0.66550  Biso   1.000  H
  H130     1.0000 0.41300  0.74600  0.16550  Biso   1.000  H
  H131     1.0000 0.25400  0.91300  0.66550  Biso   1.000  H
  H132     1.0000 0.08700  0.75400  0.16550  Biso   1.000  H
  H133     1.0000 0.75400  0.41300  0.33450  Biso   1.000  H
  H134     1.0000 0.58700  0.25400  0.83450  Biso   1.000  H
  H135     1.0000 0.74600  0.08700  0.33450  Biso   1.000  H
  H136     1.0000 0.91300  0.24600  0.83450  Biso   1.000  H
  H137     1.0000 0.25580  0.63800  0.54590  Biso   1.000  H
  H138     1.0000 0.36200  0.75580  0.04590  Biso   1.000  H
  H139     1.0000 0.24420  0.86200  0.54590  Biso   1.000  H
  H140     1.0000 0.13800  0.74420  0.04590  Biso   1.000  H
  H141     1.0000 0.74420  0.36200  0.45410  Biso   1.000  H
  H142     1.0000 0.63800  0.24420  0.95410  Biso   1.000  H
  H143     1.0000 0.75580  0.13800  0.45410  Biso   1.000  H
  H144     1.0000 0.86200  0.25580  0.95410  Biso   1.000  H
  H145     1.0000 0.31120  0.58770  0.58000  Biso   1.000  H
  H146     1.0000 0.41230  0.81120  0.08000  Biso   1.000  H
  H147     1.0000 0.18880  0.91230  0.58000  Biso   1.000  H
  H148     1.0000 0.08770  0.68880  0.08000  Biso   1.000  H
  H149     1.0000 0.68880  0.41230  0.42000  Biso   1.000  H
  H150     1.0000 0.58770  0.18880  0.92000  Biso   1.000  H
  H151     1.0000 0.81120  0.08770  0.42000  Biso   1.000  H
  H152     1.0000 0.91230  0.31120  0.92000  Biso   1.000  H
  C105     1.0000 0.24120  0.50300  0.23960  Biso   1.000  C
  C106     1.0000 0.49700  0.74120  0.73960  Biso   1.000  C
  C107     1.0000 0.25880  0.99700  0.23960  Biso   1.000  C
  C108     1.0000 0.00300  0.75880  0.73960  Biso   1.000  C
  C109     1.0000 0.75880  0.49700  0.76040  Biso   1.000  C
  C110     1.0000 0.50300  0.25880  0.26040  Biso   1.000  C
  C111     1.0000 0.74120  0.00300  0.76040  Biso   1.000  C
  C112     1.0000 0.99700  0.24120  0.26040  Biso   1.000  C
  H153     1.0000 0.25100  0.46090  0.28090  Biso   1.000  H
  H154     1.0000 0.53910  0.75100  0.78090  Biso   1.000  H
  H155     1.0000 0.24900  0.03910  0.28090  Biso   1.000  H
  H156     1.0000 0.96090  0.74900  0.78090  Biso   1.000  H
  H157     1.0000 0.74900  0.53910  0.71910  Biso   1.000  H
  H158     1.0000 0.46090  0.24900  0.21910  Biso   1.000  H
  H159     1.0000 0.75100  0.96090  0.71910  Biso   1.000  H
  H160     1.0000 0.03910  0.25100  0.21910  Biso   1.000  H
  H161     1.0000 0.19410  0.50680  0.23180  Biso   1.000  H
  H162     1.0000 0.49320  0.69410  0.73180  Biso   1.000  H
  H163     1.0000 0.30590  0.99320  0.23180  Biso   1.000  H
  H164     1.0000 0.00680  0.80590  0.73180  Biso   1.000  H
  H165     1.0000 0.80590  0.49320  0.76820  Biso   1.000  H
  H166     1.0000 0.50680  0.30590  0.26820  Biso   1.000  H
  H167     1.0000 0.69410  0.00680  0.76820  Biso   1.000  H
  H168     1.0000 0.99320  0.19410  0.26820  Biso   1.000  H
