data_image0
_cell_length_a       10.8055
_cell_length_b       10.8055
_cell_length_c       12.637
_cell_angle_alpha    90
_cell_angle_beta     90
_cell_angle_gamma    120

_symmetry_space_group_name_H-M    "P 1"
_symmetry_int_tables_number       1

loop_
  _symmetry_equiv_pos_as_xyz
  'x, y, z'

loop_
  _atom_site_label
  _atom_site_occupancy
  _atom_site_fract_x
  _atom_site_fract_y
  _atom_site_fract_z
  _atom_site_thermal_displace_type
  _atom_site_B_iso_or_equiv
  _atom_site_type_symbol
  Cu1      1.0000 0.99773  0.49887  0.50000  Biso   1.000  Cu
  Cu2      1.0000 0.50113  0.49886  0.83333  Biso   1.000  Cu
  Cu3      1.0000 0.50114  0.00227  0.16667  Biso   1.000  Cu
  N1       1.0000 0.14740  0.49530  0.59800  Biso   1.000  N
  N2       1.0000 0.50470  0.65210  0.93133  Biso   1.000  N
  N3       1.0000 0.34790  0.85260  0.26467  Biso   1.000  N
  N4       1.0000 0.50470  0.85260  0.06867  Biso   1.000  N
  N5       1.0000 0.14740  0.65210  0.40200  Biso   1.000  N
  N6       1.0000 0.34790  0.49530  0.73533  Biso   1.000  N
  N7       1.0000 0.87120  0.34300  0.40150  Biso   1.000  N
  N8       1.0000 0.65700  0.52820  0.73483  Biso   1.000  N
  N9       1.0000 0.47180  0.12880  0.06817  Biso   1.000  N
  N10      1.0000 0.65700  0.12880  0.26517  Biso   1.000  N
  N11      1.0000 0.87120  0.52820  0.59850  Biso   1.000  N
  N12      1.0000 0.47180  0.34300  0.93183  Biso   1.000  N
  C1       1.0000 0.24810  0.59890  0.63130  Biso   1.000  C
  C2       1.0000 0.40110  0.64920  0.96463  Biso   1.000  C
  C3       1.0000 0.35080  0.75190  0.29797  Biso   1.000  C
  C4       1.0000 0.40110  0.75190  0.03537  Biso   1.000  C
  C5       1.0000 0.24810  0.64920  0.36870  Biso   1.000  C
  C6       1.0000 0.35080  0.59890  0.70203  Biso   1.000  C
  H1       1.0000 0.26130  0.68700  0.60970  Biso   1.000  H
  H2       1.0000 0.31300  0.57430  0.94303  Biso   1.000  H
  H3       1.0000 0.42570  0.73870  0.27637  Biso   1.000  H
  H4       1.0000 0.31300  0.73870  0.05697  Biso   1.000  H
  H5       1.0000 0.26130  0.57430  0.39030  Biso   1.000  H
  H6       1.0000 0.42570  0.68700  0.72363  Biso   1.000  H
  C7       1.0000 0.13270  0.35860  0.63400  Biso   1.000  C
  C8       1.0000 0.64140  0.77410  0.96733  Biso   1.000  C
  C9       1.0000 0.22590  0.86730  0.30067  Biso   1.000  C
  C10      1.0000 0.64140  0.86730  0.03267  Biso   1.000  C
  C11      1.0000 0.13270  0.77410  0.36600  Biso   1.000  C
  C12      1.0000 0.22590  0.35860  0.69933  Biso   1.000  C
  H7       1.0000 0.05690  0.27260  0.61020  Biso   1.000  H
  H8       1.0000 0.72740  0.78430  0.94353  Biso   1.000  H
  H9       1.0000 0.21570  0.94310  0.27687  Biso   1.000  H
  H10      1.0000 0.72740  0.94310  0.05647  Biso   1.000  H
  H11      1.0000 0.05690  0.78430  0.38980  Biso   1.000  H
  H12      1.0000 0.21570  0.27260  0.72313  Biso   1.000  H
  C13      1.0000 0.75310  0.22060  0.43770  Biso   1.000  C
  C14      1.0000 0.77940  0.53250  0.77103  Biso   1.000  C
  C15      1.0000 0.46750  0.24690  0.10437  Biso   1.000  C
  C16      1.0000 0.77940  0.24690  0.22897  Biso   1.000  C
  C17      1.0000 0.75310  0.53250  0.56230  Biso   1.000  C
  C18      1.0000 0.46750  0.22060  0.89563  Biso   1.000  C
  H13      1.0000 0.73900  0.20250  0.50990  Biso   1.000  H
  H14      1.0000 0.79750  0.53650  0.84323  Biso   1.000  H
  H15      1.0000 0.46350  0.26100  0.17657  Biso   1.000  H
  H16      1.0000 0.79750  0.26100  0.15677  Biso   1.000  H
  H17      1.0000 0.73900  0.53650  0.49010  Biso   1.000  H
  H18      1.0000 0.46350  0.20250  0.82343  Biso   1.000  H
  C19      1.0000 0.86890  0.33840  0.29620  Biso   1.000  C
  C20      1.0000 0.66160  0.53050  0.62953  Biso   1.000  C
  C21      1.0000 0.46950  0.13110  0.96287  Biso   1.000  C
  C22      1.0000 0.66160  0.13110  0.37047  Biso   1.000  C
  C23      1.0000 0.86890  0.53050  0.70380  Biso   1.000  C
  C24      1.0000 0.46950  0.33840  0.03713  Biso   1.000  C
  H19      1.0000 0.94690  0.41600  0.26470  Biso   1.000  H
  H20      1.0000 0.58400  0.53090  0.59803  Biso   1.000  H
  H21      1.0000 0.46910  0.05310  0.93137  Biso   1.000  H
  H22      1.0000 0.58400  0.05310  0.40197  Biso   1.000  H
  H23      1.0000 0.94690  0.53090  0.73530  Biso   1.000  H
  H24      1.0000 0.46910  0.41600  0.06863  Biso   1.000  H
