data_image0
_cell_length_a       10.837
_cell_length_b       18.131
_cell_length_c       17.561
_cell_angle_alpha    90
_cell_angle_beta     104.301
_cell_angle_gamma    90

_symmetry_space_group_name_H-M    "P 1"
_symmetry_int_tables_number       1

loop_
  _symmetry_equiv_pos_as_xyz
  'x, y, z'

loop_
  _atom_site_label
  _atom_site_occupancy
  _atom_site_fract_x
  _atom_site_fract_y
  _atom_site_fract_z
  _atom_site_thermal_displace_type
  _atom_site_B_iso_or_equiv
  _atom_site_type_symbol
  Cu1      1.0000 0.95558  0.14045  0.62506  Biso   1.000  Cu
  Cu2      1.0000 0.04442  0.64045  0.87494  Biso   1.000  Cu
  Cu3      1.0000 0.04442  0.85955  0.37494  Biso   1.000  Cu
  Cu4      1.0000 0.95558  0.35955  0.12506  Biso   1.000  Cu
  Cu5      1.0000 0.55272  0.13269  0.86997  Biso   1.000  Cu
  Cu6      1.0000 0.44728  0.63269  0.63003  Biso   1.000  Cu
  Cu7      1.0000 0.44728  0.86731  0.13003  Biso   1.000  Cu
  Cu8      1.0000 0.55272  0.36731  0.36997  Biso   1.000  Cu
  N1       1.0000 0.84570  0.11399  0.70282  Biso   1.000  N
  N2       1.0000 0.15430  0.61399  0.79718  Biso   1.000  N
  N3       1.0000 0.15430  0.88601  0.29718  Biso   1.000  N
  N4       1.0000 0.84570  0.38601  0.20282  Biso   1.000  N
  N5       1.0000 0.67820  0.11334  0.80299  Biso   1.000  N
  N6       1.0000 0.32180  0.61334  0.69701  Biso   1.000  N
  N7       1.0000 0.32180  0.88666  0.19701  Biso   1.000  N
  N8       1.0000 0.67820  0.38666  0.30299  Biso   1.000  N
  C1       1.0000 0.72230  0.09640  0.67750  Biso   1.000  C
  C2       1.0000 0.27770  0.59640  0.82250  Biso   1.000  C
  C3       1.0000 0.27770  0.90360  0.32250  Biso   1.000  C
  C4       1.0000 0.72230  0.40360  0.17750  Biso   1.000  C
  H1       1.0000 0.69010  0.08370  0.62380  Biso   1.000  H
  H2       1.0000 0.30990  0.58370  0.87620  Biso   1.000  H
  H3       1.0000 0.30990  0.91630  0.37620  Biso   1.000  H
  H4       1.0000 0.69010  0.41630  0.12380  Biso   1.000  H
  C5       1.0000 0.63970  0.09610  0.72610  Biso   1.000  C
  C6       1.0000 0.36030  0.59610  0.77390  Biso   1.000  C
  C7       1.0000 0.36030  0.90390  0.27390  Biso   1.000  C
  C8       1.0000 0.63970  0.40390  0.22610  Biso   1.000  C
  H5       1.0000 0.55300  0.08320  0.70470  Biso   1.000  H
  H6       1.0000 0.44700  0.58320  0.79530  Biso   1.000  H
  H7       1.0000 0.44700  0.91680  0.29530  Biso   1.000  H
  H8       1.0000 0.55300  0.41680  0.20470  Biso   1.000  H
  C9       1.0000 0.80350  0.12852  0.82910  Biso   1.000  C
  C10      1.0000 0.19650  0.62852  0.67090  Biso   1.000  C
  C11      1.0000 0.19650  0.87148  0.17090  Biso   1.000  C
  C12      1.0000 0.80350  0.37148  0.32910  Biso   1.000  C
  H9       1.0000 0.83660  0.13910  0.88330  Biso   1.000  H
  H10      1.0000 0.16340  0.63910  0.61670  Biso   1.000  H
  H11      1.0000 0.16340  0.86090  0.11670  Biso   1.000  H
  H12      1.0000 0.83660  0.36090  0.38330  Biso   1.000  H
  C13      1.0000 0.88560  0.12924  0.78010  Biso   1.000  C
  C14      1.0000 0.11440  0.62924  0.71990  Biso   1.000  C
  C15      1.0000 0.11440  0.87076  0.21990  Biso   1.000  C
  C16      1.0000 0.88560  0.37076  0.28010  Biso   1.000  C
  H13      1.0000 0.97280  0.14080  0.80160  Biso   1.000  H
  H14      1.0000 0.02720  0.64080  0.69840  Biso   1.000  H
  H15      1.0000 0.02720  0.85920  0.19840  Biso   1.000  H
  H16      1.0000 0.97280  0.35920  0.30160  Biso   1.000  H
  N9       1.0000 0.13390  0.15082  0.69451  Biso   1.000  N
  N10      1.0000 0.86610  0.65082  0.80549  Biso   1.000  N
  N11      1.0000 0.86610  0.84918  0.30549  Biso   1.000  N
  N12      1.0000 0.13390  0.34918  0.19451  Biso   1.000  N
  N13      1.0000 0.37770  0.14672  0.79713  Biso   1.000  N
  N14      1.0000 0.62230  0.64672  0.70287  Biso   1.000  N
  N15      1.0000 0.62230  0.85328  0.20287  Biso   1.000  N
  N16      1.0000 0.37770  0.35328  0.29713  Biso   1.000  N
  C17      1.0000 0.17830  0.09050  0.73660  Biso   1.000  C
  C18      1.0000 0.82170  0.59050  0.76340  Biso   1.000  C
  C19      1.0000 0.82170  0.90950  0.26340  Biso   1.000  C
  C20      1.0000 0.17830  0.40950  0.23660  Biso   1.000  C
  H17      1.0000 0.12580  0.04790  0.73130  Biso   1.000  H
  H18      1.0000 0.87420  0.54790  0.76870  Biso   1.000  H
  H19      1.0000 0.87420  0.95210  0.26870  Biso   1.000  H
  H20      1.0000 0.12580  0.45210  0.23130  Biso   1.000  H
  C21      1.0000 0.29780  0.08840  0.78750  Biso   1.000  C
  C22      1.0000 0.70220  0.58840  0.71250  Biso   1.000  C
  C23      1.0000 0.70220  0.91160  0.21250  Biso   1.000  C
  C24      1.0000 0.29780  0.41160  0.28750  Biso   1.000  C
  H21      1.0000 0.32460  0.04460  0.81670  Biso   1.000  H
  H22      1.0000 0.67540  0.54460  0.68330  Biso   1.000  H
  H23      1.0000 0.67540  0.95540  0.18330  Biso   1.000  H
  H24      1.0000 0.32460  0.45540  0.31670  Biso   1.000  H
  C25      1.0000 0.33350  0.20620  0.75420  Biso   1.000  C
  C26      1.0000 0.66650  0.70620  0.74580  Biso   1.000  C
  C27      1.0000 0.66650  0.79380  0.24580  Biso   1.000  C
  C28      1.0000 0.33350  0.29380  0.25420  Biso   1.000  C
  H25      1.0000 0.38660  0.24840  0.75810  Biso   1.000  H
  H26      1.0000 0.61340  0.74840  0.74190  Biso   1.000  H
  H27      1.0000 0.61340  0.75160  0.24190  Biso   1.000  H
  H28      1.0000 0.38660  0.25160  0.25810  Biso   1.000  H
  C29      1.0000 0.21220  0.20840  0.70380  Biso   1.000  C
  C30      1.0000 0.78780  0.70840  0.79620  Biso   1.000  C
  C31      1.0000 0.78780  0.79160  0.29620  Biso   1.000  C
  C32      1.0000 0.21220  0.29160  0.20380  Biso   1.000  C
  H29      1.0000 0.18450  0.25230  0.67530  Biso   1.000  H
  H30      1.0000 0.81550  0.75230  0.82470  Biso   1.000  H
  H31      1.0000 0.81550  0.74770  0.32470  Biso   1.000  H
  H32      1.0000 0.18450  0.24770  0.17530  Biso   1.000  H
  N17      1.0000 0.98230  0.05348  0.55336  Biso   1.000  N
  N18      1.0000 0.01770  0.55348  0.94664  Biso   1.000  N
  N19      1.0000 0.01770  0.94652  0.44664  Biso   1.000  N
  N20      1.0000 0.98230  0.44652  0.05336  Biso   1.000  N
  C33      1.0000 0.07420  0.05710  0.51750  Biso   1.000  C
  C34      1.0000 0.92580  0.55710  0.98250  Biso   1.000  C
  C35      1.0000 0.92580  0.94290  0.48250  Biso   1.000  C
  C36      1.0000 0.07420  0.44290  0.01750  Biso   1.000  C
  H33      1.0000 0.13190  0.09740  0.52860  Biso   1.000  H
  H34      1.0000 0.86810  0.59740  0.97140  Biso   1.000  H
  H35      1.0000 0.86810  0.90260  0.47140  Biso   1.000  H
  H36      1.0000 0.13190  0.40260  0.02860  Biso   1.000  H
  C37      1.0000 0.90940  0.99560  0.53620  Biso   1.000  C
  C38      1.0000 0.09060  0.49560  0.96380  Biso   1.000  C
  C39      1.0000 0.09060  0.00440  0.46380  Biso   1.000  C
  C40      1.0000 0.90940  0.50440  0.03620  Biso   1.000  C
  H37      1.0000 0.84220  0.98930  0.56160  Biso   1.000  H
  H38      1.0000 0.15780  0.48930  0.93840  Biso   1.000  H
  H39      1.0000 0.15780  0.01070  0.43840  Biso   1.000  H
  H40      1.0000 0.84220  0.51070  0.06160  Biso   1.000  H
  N21      1.0000 0.83840  0.20841  0.55122  Biso   1.000  N
  N22      1.0000 0.16160  0.70841  0.94878  Biso   1.000  N
  N23      1.0000 0.16160  0.79159  0.44878  Biso   1.000  N
  N24      1.0000 0.83840  0.29159  0.05122  Biso   1.000  N
  N25      1.0000 0.65460  0.29429  0.44902  Biso   1.000  N
  N26      1.0000 0.34540  0.79429  0.05098  Biso   1.000  N
  N27      1.0000 0.34540  0.70571  0.55098  Biso   1.000  N
  N28      1.0000 0.65460  0.20571  0.94902  Biso   1.000  N
  C41      1.0000 0.78470  0.26720  0.57610  Biso   1.000  C
  C42      1.0000 0.21530  0.76720  0.92390  Biso   1.000  C
  C43      1.0000 0.21530  0.73280  0.42390  Biso   1.000  C
  C44      1.0000 0.78470  0.23280  0.07610  Biso   1.000  C
  H41      1.0000 0.80900  0.27990  0.63020  Biso   1.000  H
  H42      1.0000 0.19100  0.77990  0.86980  Biso   1.000  H
  H43      1.0000 0.19100  0.72010  0.36980  Biso   1.000  H
  H44      1.0000 0.80900  0.22010  0.13020  Biso   1.000  H
  C45      1.0000 0.69480  0.31000  0.52540  Biso   1.000  C
  C46      1.0000 0.30520  0.81000  0.97460  Biso   1.000  C
  C47      1.0000 0.30520  0.69000  0.47460  Biso   1.000  C
  C48      1.0000 0.69480  0.19000  0.02540  Biso   1.000  C
  H45      1.0000 0.66070  0.35180  0.54560  Biso   1.000  H
  H46      1.0000 0.33930  0.85180  0.95440  Biso   1.000  H
  H47      1.0000 0.33930  0.64820  0.45440  Biso   1.000  H
  H48      1.0000 0.66070  0.14820  0.04560  Biso   1.000  H
  C49      1.0000 0.70730  0.23460  0.42480  Biso   1.000  C
  C50      1.0000 0.29270  0.73460  0.07520  Biso   1.000  C
  C51      1.0000 0.29270  0.76540  0.57520  Biso   1.000  C
  C52      1.0000 0.70730  0.26540  0.92480  Biso   1.000  C
  H49      1.0000 0.68140  0.22090  0.37100  Biso   1.000  H
  H50      1.0000 0.31860  0.72090  0.12900  Biso   1.000  H
  H51      1.0000 0.31860  0.77910  0.62900  Biso   1.000  H
  H52      1.0000 0.68140  0.27910  0.87100  Biso   1.000  H
  C53      1.0000 0.79780  0.19260  0.47500  Biso   1.000  C
  C54      1.0000 0.20220  0.69260  0.02500  Biso   1.000  C
  C55      1.0000 0.20220  0.80740  0.52500  Biso   1.000  C
  C56      1.0000 0.79780  0.30740  0.97500  Biso   1.000  C
  H53      1.0000 0.83240  0.15100  0.45470  Biso   1.000  H
  H54      1.0000 0.16760  0.65100  0.04530  Biso   1.000  H
  H55      1.0000 0.16760  0.84900  0.54530  Biso   1.000  H
  H56      1.0000 0.83240  0.34900  0.95470  Biso   1.000  H
  N29      1.0000 0.51890  0.05018  0.94356  Biso   1.000  N
  N30      1.0000 0.48110  0.55018  0.55644  Biso   1.000  N
  N31      1.0000 0.48110  0.94982  0.05644  Biso   1.000  N
  N32      1.0000 0.51890  0.44982  0.44356  Biso   1.000  N
  C57      1.0000 0.59090  0.98928  0.96112  Biso   1.000  C
  C58      1.0000 0.40910  0.48928  0.53888  Biso   1.000  C
  C59      1.0000 0.40910  0.01072  0.03888  Biso   1.000  C
  C60      1.0000 0.59090  0.51072  0.46112  Biso   1.000  C
  H57      1.0000 0.65580  0.98010  0.93460  Biso   1.000  H
  H58      1.0000 0.34420  0.48010  0.56540  Biso   1.000  H
  H59      1.0000 0.34420  0.01990  0.06540  Biso   1.000  H
  H60      1.0000 0.65580  0.51990  0.43460  Biso   1.000  H
  C61      1.0000 0.57210  0.93950  0.01740  Biso   1.000  C
  C62      1.0000 0.42790  0.43950  0.48260  Biso   1.000  C
  C63      1.0000 0.42790  0.06050  0.98260  Biso   1.000  C
  C64      1.0000 0.57210  0.56050  0.51740  Biso   1.000  C
  H61      1.0000 0.62500  0.89710  0.02860  Biso   1.000  H
  H62      1.0000 0.37500  0.39710  0.47140  Biso   1.000  H
  H63      1.0000 0.37500  0.10290  0.97140  Biso   1.000  H
  H64      1.0000 0.62500  0.60290  0.52860  Biso   1.000  H
  C65      1.0000 0.08760  0.07130  0.18460  Biso   1.000  C
  C66      1.0000 0.91240  0.57130  0.31540  Biso   1.000  C
  C67      1.0000 0.91240  0.92870  0.81540  Biso   1.000  C
  C68      1.0000 0.08760  0.42870  0.68460  Biso   1.000  C
  C69      1.0000 0.99850  0.09800  0.22350  Biso   1.000  C
  C70      1.0000 0.00150  0.59800  0.27650  Biso   1.000  C
  C71      1.0000 0.00150  0.90200  0.77650  Biso   1.000  C
  C72      1.0000 0.99850  0.40200  0.72350  Biso   1.000  C
  H65      1.0000 0.90990  0.09350  0.19990  Biso   1.000  H
  H66      1.0000 0.09010  0.59350  0.30010  Biso   1.000  H
  H67      1.0000 0.09010  0.90650  0.80010  Biso   1.000  H
  H68      1.0000 0.90990  0.40650  0.69990  Biso   1.000  H
  C73      1.0000 0.04010  0.13140  0.29690  Biso   1.000  C
  C74      1.0000 0.95990  0.63140  0.20310  Biso   1.000  C
  C75      1.0000 0.95990  0.86860  0.70310  Biso   1.000  C
  C76      1.0000 0.04010  0.36860  0.79690  Biso   1.000  C
  H69      1.0000 0.97990  0.15030  0.32310  Biso   1.000  H
  H70      1.0000 0.02010  0.65030  0.17690  Biso   1.000  H
  H71      1.0000 0.02010  0.84970  0.67690  Biso   1.000  H
  H72      1.0000 0.97990  0.34970  0.82310  Biso   1.000  H
  C77      1.0000 0.16940  0.13710  0.33160  Biso   1.000  C
  C78      1.0000 0.83060  0.63710  0.16840  Biso   1.000  C
  C79      1.0000 0.83060  0.86290  0.66840  Biso   1.000  C
  C80      1.0000 0.16940  0.36290  0.83160  Biso   1.000  C
  H73      1.0000 0.19760  0.15990  0.38160  Biso   1.000  H
  H74      1.0000 0.80240  0.65990  0.11840  Biso   1.000  H
  H75      1.0000 0.80240  0.84010  0.61840  Biso   1.000  H
  H76      1.0000 0.19760  0.34010  0.88160  Biso   1.000  H
  C81      1.0000 0.25770  0.10960  0.29360  Biso   1.000  C
  C82      1.0000 0.74230  0.60960  0.20640  Biso   1.000  C
  C83      1.0000 0.74230  0.89040  0.70640  Biso   1.000  C
  C84      1.0000 0.25770  0.39040  0.79360  Biso   1.000  C
  H77      1.0000 0.34600  0.11290  0.31830  Biso   1.000  H
  H78      1.0000 0.65400  0.61290  0.18170  Biso   1.000  H
  H79      1.0000 0.65400  0.88710  0.68170  Biso   1.000  H
  H80      1.0000 0.34600  0.38710  0.81830  Biso   1.000  H
  C85      1.0000 0.21830  0.07710  0.21960  Biso   1.000  C
  C86      1.0000 0.78170  0.57710  0.28040  Biso   1.000  C
  C87      1.0000 0.78170  0.92290  0.78040  Biso   1.000  C
  C88      1.0000 0.21830  0.42290  0.71960  Biso   1.000  C
  H81      1.0000 0.27900  0.05910  0.19340  Biso   1.000  H
  H82      1.0000 0.72100  0.55910  0.30660  Biso   1.000  H
  H83      1.0000 0.72100  0.94090  0.80660  Biso   1.000  H
  H84      1.0000 0.27900  0.44090  0.69340  Biso   1.000  H
  C89      1.0000 0.04870  0.03720  0.10540  Biso   1.000  C
  C90      1.0000 0.95130  0.53720  0.39460  Biso   1.000  C
  C91      1.0000 0.95130  0.96280  0.89460  Biso   1.000  C
  C92      1.0000 0.04870  0.46280  0.60540  Biso   1.000  C
  O1       1.0000 0.92400  0.03599  0.07510  Biso   1.000  O
  O2       1.0000 0.07600  0.53599  0.42490  Biso   1.000  O
  O3       1.0000 0.07600  0.96401  0.92490  Biso   1.000  O
  O4       1.0000 0.92400  0.46401  0.57510  Biso   1.000  O
  H85      1.0000 0.90870  0.02250  0.02790  Biso   1.000  H
  H86      1.0000 0.09130  0.52250  0.47210  Biso   1.000  H
  H87      1.0000 0.09130  0.97750  0.97210  Biso   1.000  H
  H88      1.0000 0.90870  0.47750  0.52790  Biso   1.000  H
  O5       1.0000 0.12520  0.01107  0.07153  Biso   1.000  O
  O6       1.0000 0.87480  0.51107  0.42847  Biso   1.000  O
  O7       1.0000 0.87480  0.98893  0.92847  Biso   1.000  O
  O8       1.0000 0.12520  0.48893  0.57153  Biso   1.000  O
  O9       1.0000 0.45910  0.23800  0.08140  Biso   1.000  O
  O10      1.0000 0.54090  0.73800  0.41860  Biso   1.000  O
  O11      1.0000 0.54090  0.76200  0.91860  Biso   1.000  O
  O12      1.0000 0.45910  0.26200  0.58140  Biso   1.000  O
  H89      1.0000 0.50200  0.21960  0.12410  Biso   1.000  H
  H90      1.0000 0.49800  0.71960  0.37590  Biso   1.000  H
  H91      1.0000 0.49800  0.78040  0.87590  Biso   1.000  H
  H92      1.0000 0.50200  0.28040  0.62410  Biso   1.000  H
  H93      1.0000 0.38110  0.22720  0.07030  Biso   1.000  H
  H94      1.0000 0.61890  0.72720  0.42970  Biso   1.000  H
  H95      1.0000 0.61890  0.77280  0.92970  Biso   1.000  H
  H96      1.0000 0.38110  0.27280  0.57030  Biso   1.000  H
  Cl1      1.0000 0.62680  0.10725  0.24067  Biso   1.000  Cl
  Cl2      1.0000 0.37320  0.60725  0.25933  Biso   1.000  Cl
  Cl3      1.0000 0.37320  0.89275  0.75933  Biso   1.000  Cl
  Cl4      1.0000 0.62680  0.39275  0.74067  Biso   1.000  Cl
  O13      1.0000 0.57870  0.17980  0.23890  Biso   1.000  O
  O14      1.0000 0.42130  0.67980  0.26110  Biso   1.000  O
  O15      1.0000 0.42130  0.82020  0.76110  Biso   1.000  O
  O16      1.0000 0.57870  0.32020  0.73890  Biso   1.000  O
  O17      1.0000 0.52570  0.05420  0.24380  Biso   1.000  O
  O18      1.0000 0.47430  0.55420  0.25620  Biso   1.000  O
  O19      1.0000 0.47430  0.94580  0.75620  Biso   1.000  O
  O20      1.0000 0.52570  0.44580  0.74380  Biso   1.000  O
  O21      1.0000 0.66700  0.09147  0.17085  Biso   1.000  O
  O22      1.0000 0.33300  0.59147  0.32915  Biso   1.000  O
  O23      1.0000 0.33300  0.90853  0.82915  Biso   1.000  O
  O24      1.0000 0.66700  0.40853  0.67085  Biso   1.000  O
  O25      1.0000 0.72900  0.09500  0.30862  Biso   1.000  O
  O26      1.0000 0.27100  0.59500  0.19138  Biso   1.000  O
  O27      1.0000 0.27100  0.90500  0.69138  Biso   1.000  O
  O28      1.0000 0.72900  0.40500  0.80862  Biso   1.000  O
  Cl5      1.0000 0.12631  0.19990  0.98286  Biso   1.000  Cl
  Cl6      1.0000 0.87369  0.69990  0.51714  Biso   1.000  Cl
  Cl7      1.0000 0.87369  0.80010  0.01714  Biso   1.000  Cl
  Cl8      1.0000 0.12631  0.30010  0.48286  Biso   1.000  Cl
  O29      1.0000 0.22700  0.17480  0.05070  Biso   1.000  O
  O30      1.0000 0.77300  0.67480  0.44930  Biso   1.000  O
  O31      1.0000 0.77300  0.82520  0.94930  Biso   1.000  O
  O32      1.0000 0.22700  0.32520  0.55070  Biso   1.000  O
  O33      1.0000 0.01030  0.16390  0.98940  Biso   1.000  O
  O34      1.0000 0.98970  0.66390  0.51060  Biso   1.000  O
  O35      1.0000 0.98970  0.83610  0.01060  Biso   1.000  O
  O36      1.0000 0.01030  0.33610  0.48940  Biso   1.000  O
  O37      1.0000 0.16070  0.18090  0.91330  Biso   1.000  O
  O38      1.0000 0.83930  0.68090  0.58670  Biso   1.000  O
  O39      1.0000 0.83930  0.81910  0.08670  Biso   1.000  O
  O40      1.0000 0.16070  0.31910  0.41330  Biso   1.000  O
  O41      1.0000 0.11280  0.27810  0.98970  Biso   1.000  O
  O42      1.0000 0.88720  0.77810  0.51030  Biso   1.000  O
  O43      1.0000 0.88720  0.72190  0.01030  Biso   1.000  O
  O44      1.0000 0.11280  0.22190  0.48970  Biso   1.000  O
  O45      1.0000 0.02810  0.25000  0.93060  Biso   1.000  O
  O46      1.0000 0.97190  0.75000  0.56940  Biso   1.000  O
  O47      1.0000 0.97190  0.75000  0.06940  Biso   1.000  O
  O48      1.0000 0.02810  0.25000  0.43060  Biso   1.000  O
  O49      1.0000 0.12890  0.13430  0.93490  Biso   1.000  O
  O50      1.0000 0.87110  0.63430  0.56510  Biso   1.000  O
  O51      1.0000 0.87110  0.86570  0.06510  Biso   1.000  O
  O52      1.0000 0.12890  0.36570  0.43490  Biso   1.000  O
  O53      1.0000 0.08990  0.18420  0.04930  Biso   1.000  O
  O54      1.0000 0.91010  0.68420  0.45070  Biso   1.000  O
  O55      1.0000 0.91010  0.81580  0.95070  Biso   1.000  O
  O56      1.0000 0.08990  0.31580  0.54930  Biso   1.000  O
  O57      1.0000 0.23730  0.23960  0.99380  Biso   1.000  O
  O58      1.0000 0.76270  0.73960  0.50620  Biso   1.000  O
  O59      1.0000 0.76270  0.76040  0.00620  Biso   1.000  O
  O60      1.0000 0.23730  0.26040  0.49380  Biso   1.000  O
  C93      1.0000 0.49800  0.98860  0.49380  Biso   1.000  C
  C94      1.0000 0.50200  0.48860  0.00620  Biso   1.000  C
  C95      1.0000 0.50200  0.01140  0.50620  Biso   1.000  C
  C96      1.0000 0.49800  0.51140  0.99380  Biso   1.000  C
  C97      1.0000 0.52450  0.05470  0.46110  Biso   1.000  C
  C98      1.0000 0.47550  0.55470  0.03890  Biso   1.000  C
  C99      1.0000 0.47550  0.94530  0.53890  Biso   1.000  C
  C100     1.0000 0.52450  0.44530  0.96110  Biso   1.000  C
  H97      1.0000 0.57740  0.05640  0.42540  Biso   1.000  H
  H98      1.0000 0.42260  0.55640  0.07460  Biso   1.000  H
  H99      1.0000 0.42260  0.94360  0.57460  Biso   1.000  H
  H100     1.0000 0.57740  0.44360  0.92540  Biso   1.000  H
  C101     1.0000 0.47030  0.11830  0.48310  Biso   1.000  C
  C102     1.0000 0.52970  0.61830  0.01690  Biso   1.000  C
  C103     1.0000 0.52970  0.88170  0.51690  Biso   1.000  C
  C104     1.0000 0.47030  0.38170  0.98310  Biso   1.000  C
  H101     1.0000 0.48130  0.16370  0.45850  Biso   1.000  H
  H102     1.0000 0.51870  0.66370  0.04150  Biso   1.000  H
  H103     1.0000 0.51870  0.83630  0.54150  Biso   1.000  H
  H104     1.0000 0.48130  0.33630  0.95850  Biso   1.000  H
  C105     1.0000 0.40050  0.11770  0.54000  Biso   1.000  C
  C106     1.0000 0.59950  0.61770  0.96000  Biso   1.000  C
  C107     1.0000 0.59950  0.88230  0.46000  Biso   1.000  C
  C108     1.0000 0.40050  0.38230  0.04000  Biso   1.000  C
  H105     1.0000 0.36580  0.16230  0.55390  Biso   1.000  H
  H106     1.0000 0.63420  0.66230  0.94610  Biso   1.000  H
  H107     1.0000 0.63420  0.83770  0.44610  Biso   1.000  H
  H108     1.0000 0.36580  0.33770  0.05390  Biso   1.000  H
  C109     1.0000 0.38100  0.05250  0.57640  Biso   1.000  C
  C110     1.0000 0.61900  0.55250  0.92360  Biso   1.000  C
  C111     1.0000 0.61900  0.94750  0.42360  Biso   1.000  C
  C112     1.0000 0.38100  0.44750  0.07640  Biso   1.000  C
  H109     1.0000 0.33590  0.05200  0.61630  Biso   1.000  H
  H110     1.0000 0.66410  0.55200  0.88370  Biso   1.000  H
  H111     1.0000 0.66410  0.94800  0.38370  Biso   1.000  H
  H112     1.0000 0.33590  0.44800  0.11630  Biso   1.000  H
  C113     1.0000 0.43070  0.98700  0.55280  Biso   1.000  C
  C114     1.0000 0.56930  0.48700  0.94720  Biso   1.000  C
  C115     1.0000 0.56930  0.01300  0.44720  Biso   1.000  C
  C116     1.0000 0.43070  0.51300  0.05280  Biso   1.000  C
  H113     1.0000 0.41860  0.94150  0.57680  Biso   1.000  H
  H114     1.0000 0.58140  0.44150  0.92320  Biso   1.000  H
  H115     1.0000 0.58140  0.05850  0.42320  Biso   1.000  H
  H116     1.0000 0.41860  0.55850  0.07680  Biso   1.000  H
  C117     1.0000 0.55150  0.92040  0.46700  Biso   1.000  C
  C118     1.0000 0.44850  0.42040  0.03300  Biso   1.000  C
  C119     1.0000 0.44850  0.07960  0.53300  Biso   1.000  C
  C120     1.0000 0.55150  0.57960  0.96700  Biso   1.000  C
  O61      1.0000 0.50400  0.85850  0.49360  Biso   1.000  O
  O62      1.0000 0.49600  0.35850  0.00640  Biso   1.000  O
  O63      1.0000 0.49600  0.14150  0.50640  Biso   1.000  O
  O64      1.0000 0.50400  0.64150  0.99360  Biso   1.000  O
  H117     1.0000 0.53110  0.82100  0.47490  Biso   1.000  H
  H118     1.0000 0.46890  0.32100  0.02510  Biso   1.000  H
  H119     1.0000 0.46890  0.17900  0.52510  Biso   1.000  H
  H120     1.0000 0.53110  0.67900  0.97490  Biso   1.000  H
  O65      1.0000 0.62060  0.91610  0.42220  Biso   1.000  O
  O66      1.0000 0.37940  0.41610  0.07780  Biso   1.000  O
  O67      1.0000 0.37940  0.08390  0.57780  Biso   1.000  O
  O68      1.0000 0.62060  0.58390  0.92220  Biso   1.000  O
