data_image0
_cell_length_a       17.949
_cell_length_b       17.949
_cell_length_c       13.045
_cell_angle_alpha    90
_cell_angle_beta     90
_cell_angle_gamma    90

_symmetry_space_group_name_H-M    "P 1"
_symmetry_int_tables_number       1

loop_
  _symmetry_equiv_pos_as_xyz
  'x, y, z'

loop_
  _atom_site_label
  _atom_site_occupancy
  _atom_site_fract_x
  _atom_site_fract_y
  _atom_site_fract_z
  _atom_site_thermal_displace_type
  _atom_site_B_iso_or_equiv
  _atom_site_type_symbol
  Cu1      1.0000 0.50000  0.50000  0.23096  Biso   1.000  Cu
  Cu2      1.0000 0.50000  0.50000  0.76904  Biso   1.000  Cu
  Cu3      1.0000 0.00000  0.00000  0.26904  Biso   1.000  Cu
  Cu4      1.0000 0.00000  0.00000  0.73096  Biso   1.000  Cu
  Cu5      1.0000 0.00000  0.50000  0.01385  Biso   1.000  Cu
  Cu6      1.0000 0.50000  0.00000  0.98615  Biso   1.000  Cu
  Cu7      1.0000 0.50000  0.00000  0.48615  Biso   1.000  Cu
  Cu8      1.0000 0.00000  0.50000  0.51385  Biso   1.000  Cu
  Cl1      1.0000 0.26885  0.15928  0.13883  Biso   1.000  Cl
  Cl2      1.0000 0.73115  0.84072  0.13883  Biso   1.000  Cl
  Cl3      1.0000 0.15928  0.73115  0.86117  Biso   1.000  Cl
  Cl4      1.0000 0.84072  0.26885  0.86117  Biso   1.000  Cl
  Cl5      1.0000 0.23115  0.65928  0.36117  Biso   1.000  Cl
  Cl6      1.0000 0.76885  0.34072  0.36117  Biso   1.000  Cl
  Cl7      1.0000 0.34072  0.23115  0.63883  Biso   1.000  Cl
  Cl8      1.0000 0.65928  0.76885  0.63883  Biso   1.000  Cl
  O1       1.0000 0.33936  0.16354  0.08693  Biso   1.000  O
  O2       1.0000 0.66064  0.83646  0.08693  Biso   1.000  O
  O3       1.0000 0.16354  0.66064  0.91307  Biso   1.000  O
  O4       1.0000 0.83646  0.33936  0.91307  Biso   1.000  O
  O5       1.0000 0.16064  0.66354  0.41307  Biso   1.000  O
  O6       1.0000 0.83936  0.33646  0.41307  Biso   1.000  O
  O7       1.0000 0.33646  0.16064  0.58693  Biso   1.000  O
  O8       1.0000 0.66354  0.83936  0.58693  Biso   1.000  O
  O9       1.0000 0.21141  0.13714  0.06868  Biso   1.000  O
  O10      1.0000 0.78859  0.86286  0.06868  Biso   1.000  O
  O11      1.0000 0.13714  0.78859  0.93132  Biso   1.000  O
  O12      1.0000 0.86286  0.21141  0.93132  Biso   1.000  O
  O13      1.0000 0.28859  0.63714  0.43132  Biso   1.000  O
  O14      1.0000 0.71141  0.36286  0.43132  Biso   1.000  O
  O15      1.0000 0.36286  0.28859  0.56868  Biso   1.000  O
  O16      1.0000 0.63714  0.71141  0.56868  Biso   1.000  O
  O17      1.0000 0.25069  0.23077  0.18159  Biso   1.000  O
  O18      1.0000 0.74931  0.76923  0.18159  Biso   1.000  O
  O19      1.0000 0.23077  0.74931  0.81841  Biso   1.000  O
  O20      1.0000 0.76923  0.25069  0.81841  Biso   1.000  O
  O21      1.0000 0.24931  0.73077  0.31841  Biso   1.000  O
  O22      1.0000 0.75069  0.26923  0.31841  Biso   1.000  O
  O23      1.0000 0.26923  0.24931  0.68159  Biso   1.000  O
  O24      1.0000 0.73077  0.75069  0.68159  Biso   1.000  O
  O25      1.0000 0.27424  0.10510  0.22023  Biso   1.000  O
  O26      1.0000 0.72576  0.89490  0.22023  Biso   1.000  O
  O27      1.0000 0.10510  0.72576  0.77977  Biso   1.000  O
  O28      1.0000 0.89490  0.27424  0.77977  Biso   1.000  O
  O29      1.0000 0.22576  0.60510  0.27977  Biso   1.000  O
  O30      1.0000 0.77424  0.39490  0.27977  Biso   1.000  O
  O31      1.0000 0.39490  0.22576  0.72023  Biso   1.000  O
  O32      1.0000 0.60510  0.77424  0.72023  Biso   1.000  O
  N1       1.0000 0.41151  0.46075  0.31707  Biso   1.000  N
  N2       1.0000 0.58849  0.53925  0.31707  Biso   1.000  N
  N3       1.0000 0.46075  0.58849  0.68293  Biso   1.000  N
  N4       1.0000 0.53925  0.41151  0.68293  Biso   1.000  N
  N5       1.0000 0.08849  0.96075  0.18293  Biso   1.000  N
  N6       1.0000 0.91151  0.03925  0.18293  Biso   1.000  N
  N7       1.0000 0.03925  0.08849  0.81707  Biso   1.000  N
  N8       1.0000 0.96075  0.91151  0.81707  Biso   1.000  N
  N9       1.0000 0.04322  0.08635  0.35231  Biso   1.000  N
  N10      1.0000 0.95678  0.91365  0.35231  Biso   1.000  N
  N11      1.0000 0.08635  0.95678  0.64769  Biso   1.000  N
  N12      1.0000 0.91365  0.04322  0.64769  Biso   1.000  N
  N13      1.0000 0.45678  0.58635  0.14769  Biso   1.000  N
  N14      1.0000 0.54322  0.41365  0.14769  Biso   1.000  N
  N15      1.0000 0.41365  0.45678  0.85231  Biso   1.000  N
  N16      1.0000 0.58635  0.54322  0.85231  Biso   1.000  N
  N17      1.0000 0.20164  0.30441  0.44510  Biso   1.000  N
  N18      1.0000 0.79836  0.69559  0.44510  Biso   1.000  N
  N19      1.0000 0.30441  0.79836  0.55490  Biso   1.000  N
  N20      1.0000 0.69559  0.20164  0.55490  Biso   1.000  N
  N21      1.0000 0.29836  0.80441  0.05490  Biso   1.000  N
  N22      1.0000 0.70164  0.19559  0.05490  Biso   1.000  N
  N23      1.0000 0.19559  0.29836  0.94510  Biso   1.000  N
  N24      1.0000 0.80441  0.70164  0.94510  Biso   1.000  N
  N25      1.0000 0.11634  0.30083  0.58340  Biso   1.000  N
  N26      1.0000 0.88366  0.69917  0.58340  Biso   1.000  N
  N27      1.0000 0.30083  0.88366  0.41660  Biso   1.000  N
  N28      1.0000 0.69917  0.11634  0.41660  Biso   1.000  N
  N29      1.0000 0.38366  0.80083  0.91660  Biso   1.000  N
  N30      1.0000 0.61634  0.19917  0.91660  Biso   1.000  N
  N31      1.0000 0.19917  0.38366  0.08340  Biso   1.000  N
  N32      1.0000 0.80083  0.61634  0.08340  Biso   1.000  N
  N33      1.0000 0.20620  0.39798  0.57358  Biso   1.000  N
  N34      1.0000 0.79380  0.60202  0.57358  Biso   1.000  N
  N35      1.0000 0.39798  0.79380  0.42642  Biso   1.000  N
  N36      1.0000 0.60202  0.20620  0.42642  Biso   1.000  N
  N37      1.0000 0.29380  0.89798  0.92642  Biso   1.000  N
  N38      1.0000 0.70620  0.10202  0.92642  Biso   1.000  N
  N39      1.0000 0.10202  0.29380  0.07358  Biso   1.000  N
  N40      1.0000 0.89798  0.70620  0.07358  Biso   1.000  N
  N41      1.0000 0.06386  0.44604  0.90252  Biso   1.000  N
  N42      1.0000 0.93614  0.55396  0.90252  Biso   1.000  N
  N43      1.0000 0.44604  0.93614  0.09748  Biso   1.000  N
  N44      1.0000 0.55396  0.06386  0.09748  Biso   1.000  N
  N45      1.0000 0.43614  0.94604  0.59748  Biso   1.000  N
  N46      1.0000 0.56386  0.05396  0.59748  Biso   1.000  N
  N47      1.0000 0.05396  0.43614  0.40252  Biso   1.000  N
  N48      1.0000 0.94604  0.56386  0.40252  Biso   1.000  N
  N49      1.0000 0.05694  0.57674  0.08272  Biso   1.000  N
  N50      1.0000 0.94306  0.42326  0.08272  Biso   1.000  N
  N51      1.0000 0.57674  0.94306  0.91728  Biso   1.000  N
  N52      1.0000 0.42326  0.05694  0.91728  Biso   1.000  N
  N53      1.0000 0.44306  0.07674  0.41728  Biso   1.000  N
  N54      1.0000 0.55694  0.92326  0.41728  Biso   1.000  N
  N55      1.0000 0.92326  0.44306  0.58272  Biso   1.000  N
  N56      1.0000 0.07674  0.55694  0.58272  Biso   1.000  N
  C1       1.0000 0.37078  0.40351  0.28100  Biso   1.000  C
  C2       1.0000 0.62922  0.59649  0.28100  Biso   1.000  C
  C3       1.0000 0.40351  0.62922  0.71900  Biso   1.000  C
  C4       1.0000 0.59649  0.37078  0.71900  Biso   1.000  C
  C5       1.0000 0.12922  0.90351  0.21900  Biso   1.000  C
  C6       1.0000 0.87078  0.09649  0.21900  Biso   1.000  C
  C7       1.0000 0.09649  0.12922  0.78100  Biso   1.000  C
  C8       1.0000 0.90351  0.87078  0.78100  Biso   1.000  C
  H1       1.0000 0.38380  0.38270  0.21650  Biso   1.000  H
  H2       1.0000 0.61620  0.61730  0.21650  Biso   1.000  H
  H3       1.0000 0.38270  0.61620  0.78350  Biso   1.000  H
  H4       1.0000 0.61730  0.38380  0.78350  Biso   1.000  H
  H5       1.0000 0.11620  0.88270  0.28350  Biso   1.000  H
  H6       1.0000 0.88380  0.11730  0.28350  Biso   1.000  H
  H7       1.0000 0.11730  0.11620  0.71650  Biso   1.000  H
  H8       1.0000 0.88270  0.88380  0.71650  Biso   1.000  H
  C9       1.0000 0.31067  0.37344  0.33340  Biso   1.000  C
  C10      1.0000 0.68933  0.62656  0.33340  Biso   1.000  C
  C11      1.0000 0.37344  0.68933  0.66660  Biso   1.000  C
  C12      1.0000 0.62656  0.31067  0.66660  Biso   1.000  C
  C13      1.0000 0.18933  0.87344  0.16660  Biso   1.000  C
  C14      1.0000 0.81067  0.12656  0.16660  Biso   1.000  C
  C15      1.0000 0.12656  0.18933  0.83340  Biso   1.000  C
  C16      1.0000 0.87344  0.81067  0.83340  Biso   1.000  C
  H9       1.0000 0.28290  0.33370  0.30420  Biso   1.000  H
  H10      1.0000 0.71710  0.66630  0.30420  Biso   1.000  H
  H11      1.0000 0.33370  0.71710  0.69580  Biso   1.000  H
  H12      1.0000 0.66630  0.28290  0.69580  Biso   1.000  H
  H13      1.0000 0.21710  0.83370  0.19580  Biso   1.000  H
  H14      1.0000 0.78290  0.16630  0.19580  Biso   1.000  H
  H15      1.0000 0.16630  0.21710  0.80420  Biso   1.000  H
  H16      1.0000 0.83370  0.78290  0.80420  Biso   1.000  H
  C17      1.0000 0.29147  0.40153  0.42811  Biso   1.000  C
  C18      1.0000 0.70853  0.59847  0.42811  Biso   1.000  C
  C19      1.0000 0.40153  0.70853  0.57189  Biso   1.000  C
  C20      1.0000 0.59847  0.29147  0.57189  Biso   1.000  C
  C21      1.0000 0.20853  0.90153  0.07189  Biso   1.000  C
  C22      1.0000 0.79147  0.09847  0.07189  Biso   1.000  C
  C23      1.0000 0.09847  0.20853  0.92811  Biso   1.000  C
  C24      1.0000 0.90153  0.79147  0.92811  Biso   1.000  C
  C25      1.0000 0.33153  0.46186  0.46490  Biso   1.000  C
  C26      1.0000 0.66847  0.53814  0.46490  Biso   1.000  C
  C27      1.0000 0.46186  0.66847  0.53510  Biso   1.000  C
  C28      1.0000 0.53814  0.33153  0.53510  Biso   1.000  C
  C29      1.0000 0.16847  0.96186  0.03510  Biso   1.000  C
  C30      1.0000 0.83153  0.03814  0.03510  Biso   1.000  C
  C31      1.0000 0.03814  0.16847  0.96490  Biso   1.000  C
  C32      1.0000 0.96186  0.83153  0.96490  Biso   1.000  C
  H17      1.0000 0.31910  0.48380  0.52890  Biso   1.000  H
  H18      1.0000 0.68090  0.51620  0.52890  Biso   1.000  H
  H19      1.0000 0.48380  0.68090  0.47110  Biso   1.000  H
  H20      1.0000 0.51620  0.31910  0.47110  Biso   1.000  H
  H21      1.0000 0.18090  0.98380  0.97110  Biso   1.000  H
  H22      1.0000 0.81910  0.01620  0.97110  Biso   1.000  H
  H23      1.0000 0.01620  0.18090  0.02890  Biso   1.000  H
  H24      1.0000 0.98380  0.81910  0.02890  Biso   1.000  H
  C33      1.0000 0.38990  0.48979  0.40700  Biso   1.000  C
  C34      1.0000 0.61010  0.51021  0.40700  Biso   1.000  C
  C35      1.0000 0.48979  0.61010  0.59300  Biso   1.000  C
  C36      1.0000 0.51021  0.38990  0.59300  Biso   1.000  C
  C37      1.0000 0.11010  0.98979  0.09300  Biso   1.000  C
  C38      1.0000 0.88990  0.01021  0.09300  Biso   1.000  C
  C39      1.0000 0.01021  0.11010  0.90700  Biso   1.000  C
  C40      1.0000 0.98979  0.88990  0.90700  Biso   1.000  C
  H25      1.0000 0.41610  0.53190  0.43250  Biso   1.000  H
  H26      1.0000 0.58390  0.46810  0.43250  Biso   1.000  H
  H27      1.0000 0.53190  0.58390  0.56750  Biso   1.000  H
  H28      1.0000 0.46810  0.41610  0.56750  Biso   1.000  H
  H29      1.0000 0.08390  0.03190  0.06750  Biso   1.000  H
  H30      1.0000 0.91610  0.96810  0.06750  Biso   1.000  H
  H31      1.0000 0.96810  0.08390  0.93250  Biso   1.000  H
  H32      1.0000 0.03190  0.91610  0.93250  Biso   1.000  H
  C41      1.0000 0.11177  0.11053  0.32660  Biso   1.000  C
  C42      1.0000 0.88823  0.88947  0.32660  Biso   1.000  C
  C43      1.0000 0.11053  0.88823  0.67340  Biso   1.000  C
  C44      1.0000 0.88947  0.11177  0.67340  Biso   1.000  C
  C45      1.0000 0.38823  0.61053  0.17340  Biso   1.000  C
  C46      1.0000 0.61177  0.38947  0.17340  Biso   1.000  C
  C47      1.0000 0.38947  0.38823  0.82660  Biso   1.000  C
  C48      1.0000 0.61053  0.61177  0.82660  Biso   1.000  C
  H33      1.0000 0.13770  0.08510  0.27360  Biso   1.000  H
  H34      1.0000 0.86230  0.91490  0.27360  Biso   1.000  H
  H35      1.0000 0.08510  0.86230  0.72640  Biso   1.000  H
  H36      1.0000 0.91490  0.13770  0.72640  Biso   1.000  H
  H37      1.0000 0.36230  0.58510  0.22640  Biso   1.000  H
  H38      1.0000 0.63770  0.41490  0.22640  Biso   1.000  H
  H39      1.0000 0.41490  0.36230  0.77360  Biso   1.000  H
  H40      1.0000 0.58510  0.63770  0.77360  Biso   1.000  H
  C49      1.0000 0.14600  0.16986  0.37290  Biso   1.000  C
  C50      1.0000 0.85400  0.83014  0.37290  Biso   1.000  C
  C51      1.0000 0.16986  0.85400  0.62710  Biso   1.000  C
  C52      1.0000 0.83014  0.14600  0.62710  Biso   1.000  C
  C53      1.0000 0.35400  0.66986  0.12710  Biso   1.000  C
  C54      1.0000 0.64600  0.33014  0.12710  Biso   1.000  C
  C55      1.0000 0.33014  0.35400  0.87290  Biso   1.000  C
  C56      1.0000 0.66986  0.64600  0.87290  Biso   1.000  C
  H41      1.0000 0.19450  0.18460  0.35200  Biso   1.000  H
  H42      1.0000 0.80550  0.81540  0.35200  Biso   1.000  H
  H43      1.0000 0.18460  0.80550  0.64800  Biso   1.000  H
  H44      1.0000 0.81540  0.19450  0.64800  Biso   1.000  H
  H45      1.0000 0.30550  0.68460  0.14800  Biso   1.000  H
  H46      1.0000 0.69450  0.31540  0.14800  Biso   1.000  H
  H47      1.0000 0.31540  0.30550  0.85200  Biso   1.000  H
  H48      1.0000 0.68460  0.69450  0.85200  Biso   1.000  H
  C57      1.0000 0.10976  0.20804  0.44990  Biso   1.000  C
  C58      1.0000 0.89024  0.79196  0.44990  Biso   1.000  C
  C59      1.0000 0.20804  0.89024  0.55010  Biso   1.000  C
  C60      1.0000 0.79196  0.10976  0.55010  Biso   1.000  C
  C61      1.0000 0.39024  0.70804  0.05010  Biso   1.000  C
  C62      1.0000 0.60976  0.29196  0.05010  Biso   1.000  C
  C63      1.0000 0.29196  0.39024  0.94990  Biso   1.000  C
  C64      1.0000 0.70804  0.60976  0.94990  Biso   1.000  C
  C65      1.0000 0.03943  0.18297  0.47930  Biso   1.000  C
  C66      1.0000 0.96057  0.81703  0.47930  Biso   1.000  C
  C67      1.0000 0.18297  0.96057  0.52070  Biso   1.000  C
  C68      1.0000 0.81703  0.03943  0.52070  Biso   1.000  C
  C69      1.0000 0.46057  0.68297  0.02070  Biso   1.000  C
  C70      1.0000 0.53943  0.31703  0.02070  Biso   1.000  C
  C71      1.0000 0.31703  0.46057  0.97930  Biso   1.000  C
  C72      1.0000 0.68297  0.53943  0.97930  Biso   1.000  C
  H49      1.0000 0.01320  0.20660  0.53360  Biso   1.000  H
  H50      1.0000 0.98680  0.79340  0.53360  Biso   1.000  H
  H51      1.0000 0.20660  0.98680  0.46640  Biso   1.000  H
  H52      1.0000 0.79340  0.01320  0.46640  Biso   1.000  H
  H53      1.0000 0.48680  0.70660  0.96640  Biso   1.000  H
  H54      1.0000 0.51320  0.29340  0.96640  Biso   1.000  H
  H55      1.0000 0.29340  0.48680  0.03360  Biso   1.000  H
  H56      1.0000 0.70660  0.51320  0.03360  Biso   1.000  H
  C73      1.0000 0.00867  0.12318  0.42813  Biso   1.000  C
  C74      1.0000 0.99133  0.87682  0.42813  Biso   1.000  C
  C75      1.0000 0.12318  0.99133  0.57187  Biso   1.000  C
  C76      1.0000 0.87682  0.00867  0.57187  Biso   1.000  C
  C77      1.0000 0.49133  0.62318  0.07187  Biso   1.000  C
  C78      1.0000 0.50867  0.37682  0.07187  Biso   1.000  C
  C79      1.0000 0.37682  0.49133  0.92813  Biso   1.000  C
  C80      1.0000 0.62318  0.50867  0.92813  Biso   1.000  C
  H57      1.0000 0.96030  0.10720  0.44770  Biso   1.000  H
  H58      1.0000 0.03970  0.89280  0.44770  Biso   1.000  H
  H59      1.0000 0.10720  0.03970  0.55230  Biso   1.000  H
  H60      1.0000 0.89280  0.96030  0.55230  Biso   1.000  H
  H61      1.0000 0.53970  0.60720  0.05230  Biso   1.000  H
  H62      1.0000 0.46030  0.39280  0.05230  Biso   1.000  H
  H63      1.0000 0.39280  0.53970  0.94770  Biso   1.000  H
  H64      1.0000 0.60720  0.46030  0.94770  Biso   1.000  H
  C81      1.0000 0.14472  0.27481  0.49680  Biso   1.000  C
  C82      1.0000 0.85528  0.72519  0.49680  Biso   1.000  C
  C83      1.0000 0.27481  0.85528  0.50320  Biso   1.000  C
  C84      1.0000 0.72519  0.14472  0.50320  Biso   1.000  C
  C85      1.0000 0.35528  0.77481  0.00320  Biso   1.000  C
  C86      1.0000 0.64472  0.22519  0.00320  Biso   1.000  C
  C87      1.0000 0.22519  0.35528  0.99680  Biso   1.000  C
  C88      1.0000 0.77481  0.64472  0.99680  Biso   1.000  C
  C89      1.0000 0.15003  0.36219  0.61971  Biso   1.000  C
  C90      1.0000 0.84997  0.63781  0.61971  Biso   1.000  C
  C91      1.0000 0.36219  0.84997  0.38029  Biso   1.000  C
  C92      1.0000 0.63781  0.15003  0.38029  Biso   1.000  C
  C93      1.0000 0.34997  0.86219  0.88029  Biso   1.000  C
  C94      1.0000 0.65003  0.13781  0.88029  Biso   1.000  C
  C95      1.0000 0.13781  0.34997  0.11971  Biso   1.000  C
  C96      1.0000 0.86219  0.65003  0.11971  Biso   1.000  C
  C97      1.0000 0.22977  0.36666  0.48687  Biso   1.000  C
  C98      1.0000 0.77023  0.63334  0.48687  Biso   1.000  C
  C99      1.0000 0.36666  0.77023  0.51313  Biso   1.000  C
  C100     1.0000 0.63334  0.22977  0.51313  Biso   1.000  C
  C101     1.0000 0.27023  0.86666  0.01313  Biso   1.000  C
  C102     1.0000 0.72977  0.13334  0.01313  Biso   1.000  C
  C103     1.0000 0.13334  0.27023  0.98687  Biso   1.000  C
  C104     1.0000 0.86666  0.72977  0.98687  Biso   1.000  C
  C105     1.0000 0.02867  0.39197  0.84940  Biso   1.000  C
  C106     1.0000 0.97133  0.60803  0.84940  Biso   1.000  C
  C107     1.0000 0.39197  0.97133  0.15060  Biso   1.000  C
  C108     1.0000 0.60803  0.02867  0.15060  Biso   1.000  C
  C109     1.0000 0.47133  0.89197  0.65060  Biso   1.000  C
  C110     1.0000 0.52867  0.10803  0.65060  Biso   1.000  C
  C111     1.0000 0.10803  0.47133  0.34940  Biso   1.000  C
  C112     1.0000 0.89197  0.52867  0.34940  Biso   1.000  C
  H65      1.0000 0.98350  0.37240  0.87610  Biso   1.000  H
  H66      1.0000 0.01650  0.62760  0.87610  Biso   1.000  H
  H67      1.0000 0.37240  0.01650  0.12390  Biso   1.000  H
  H68      1.0000 0.62760  0.98350  0.12390  Biso   1.000  H
  H69      1.0000 0.51650  0.87240  0.62390  Biso   1.000  H
  H70      1.0000 0.48350  0.12760  0.62390  Biso   1.000  H
  H71      1.0000 0.12760  0.51650  0.37610  Biso   1.000  H
  H72      1.0000 0.87240  0.48350  0.37610  Biso   1.000  H
  C113     1.0000 0.05495  0.36388  0.75860  Biso   1.000  C
  C114     1.0000 0.94505  0.63612  0.75860  Biso   1.000  C
  C115     1.0000 0.36388  0.94505  0.24140  Biso   1.000  C
  C116     1.0000 0.63612  0.05495  0.24140  Biso   1.000  C
  C117     1.0000 0.44505  0.86388  0.74140  Biso   1.000  C
  C118     1.0000 0.55495  0.13612  0.74140  Biso   1.000  C
  C119     1.0000 0.13612  0.44505  0.25860  Biso   1.000  C
  C120     1.0000 0.86388  0.55495  0.25860  Biso   1.000  C
  H73      1.0000 0.02820  0.32590  0.72370  Biso   1.000  H
  H74      1.0000 0.97180  0.67410  0.72370  Biso   1.000  H
  H75      1.0000 0.32590  0.97180  0.27630  Biso   1.000  H
  H76      1.0000 0.67410  0.02820  0.27630  Biso   1.000  H
  H77      1.0000 0.47180  0.82590  0.77630  Biso   1.000  H
  H78      1.0000 0.52820  0.17410  0.77630  Biso   1.000  H
  H79      1.0000 0.17410  0.47180  0.22370  Biso   1.000  H
  H80      1.0000 0.82590  0.52820  0.22370  Biso   1.000  H
  C121     1.0000 0.12110  0.39142  0.71790  Biso   1.000  C
  C122     1.0000 0.87890  0.60858  0.71790  Biso   1.000  C
  C123     1.0000 0.39142  0.87890  0.28210  Biso   1.000  C
  C124     1.0000 0.60858  0.12110  0.28210  Biso   1.000  C
  C125     1.0000 0.37890  0.89142  0.78210  Biso   1.000  C
  C126     1.0000 0.62110  0.10858  0.78210  Biso   1.000  C
  C127     1.0000 0.10858  0.37890  0.21790  Biso   1.000  C
  C128     1.0000 0.89142  0.62110  0.21790  Biso   1.000  C
  C129     1.0000 0.15809  0.44649  0.77290  Biso   1.000  C
  C130     1.0000 0.84191  0.55351  0.77290  Biso   1.000  C
  C131     1.0000 0.44649  0.84191  0.22710  Biso   1.000  C
  C132     1.0000 0.55351  0.15809  0.22710  Biso   1.000  C
  C133     1.0000 0.34191  0.94649  0.72710  Biso   1.000  C
  C134     1.0000 0.65809  0.05351  0.72710  Biso   1.000  C
  C135     1.0000 0.05351  0.34191  0.27290  Biso   1.000  C
  C136     1.0000 0.94649  0.65809  0.27290  Biso   1.000  C
  H81      1.0000 0.20390  0.46610  0.74850  Biso   1.000  H
  H82      1.0000 0.79610  0.53390  0.74850  Biso   1.000  H
  H83      1.0000 0.46610  0.79610  0.25150  Biso   1.000  H
  H84      1.0000 0.53390  0.20390  0.25150  Biso   1.000  H
  H85      1.0000 0.29610  0.96610  0.75150  Biso   1.000  H
  H86      1.0000 0.70390  0.03390  0.75150  Biso   1.000  H
  H87      1.0000 0.03390  0.29610  0.24850  Biso   1.000  H
  H88      1.0000 0.96610  0.70390  0.24850  Biso   1.000  H
  C137     1.0000 0.12780  0.47221  0.86260  Biso   1.000  C
  C138     1.0000 0.87220  0.52779  0.86260  Biso   1.000  C
  C139     1.0000 0.47221  0.87220  0.13740  Biso   1.000  C
  C140     1.0000 0.52779  0.12780  0.13740  Biso   1.000  C
  C141     1.0000 0.37220  0.97221  0.63740  Biso   1.000  C
  C142     1.0000 0.62780  0.02779  0.63740  Biso   1.000  C
  C143     1.0000 0.02779  0.37220  0.36260  Biso   1.000  C
  C144     1.0000 0.97221  0.62780  0.36260  Biso   1.000  C
  H89      1.0000 0.15330  0.51050  0.89850  Biso   1.000  H
  H90      1.0000 0.84670  0.48950  0.89850  Biso   1.000  H
  H91      1.0000 0.51050  0.84670  0.10150  Biso   1.000  H
  H92      1.0000 0.48950  0.15330  0.10150  Biso   1.000  H
  H93      1.0000 0.34670  0.01050  0.60150  Biso   1.000  H
  H94      1.0000 0.65330  0.98950  0.60150  Biso   1.000  H
  H95      1.0000 0.98950  0.34670  0.39850  Biso   1.000  H
  H96      1.0000 0.01050  0.65330  0.39850  Biso   1.000  H
  C145     1.0000 0.08265  0.63071  0.10970  Biso   1.000  C
  C146     1.0000 0.91735  0.36929  0.10970  Biso   1.000  C
  C147     1.0000 0.63071  0.91735  0.89030  Biso   1.000  C
  C148     1.0000 0.36929  0.08265  0.89030  Biso   1.000  C
  C149     1.0000 0.41735  0.13071  0.39030  Biso   1.000  C
  C150     1.0000 0.58265  0.86929  0.39030  Biso   1.000  C
  C151     1.0000 0.86929  0.41735  0.60970  Biso   1.000  C
  C152     1.0000 0.13071  0.58265  0.60970  Biso   1.000  C
  C153     1.0000 0.11453  0.70143  0.14330  Biso   1.000  C
  C154     1.0000 0.88547  0.29857  0.14330  Biso   1.000  C
  C155     1.0000 0.70143  0.88547  0.85670  Biso   1.000  C
  C156     1.0000 0.29857  0.11453  0.85670  Biso   1.000  C
  C157     1.0000 0.38547  0.20143  0.35670  Biso   1.000  C
  C158     1.0000 0.61453  0.79857  0.35670  Biso   1.000  C
  C159     1.0000 0.79857  0.38547  0.64330  Biso   1.000  C
  C160     1.0000 0.20143  0.61453  0.64330  Biso   1.000  C
  H97      1.0000 0.08690  0.74270  0.11210  Biso   1.000  H
  H98      1.0000 0.91310  0.25730  0.11210  Biso   1.000  H
  H99      1.0000 0.74270  0.91310  0.88790  Biso   1.000  H
  H100     1.0000 0.25730  0.08690  0.88790  Biso   1.000  H
  H101     1.0000 0.41310  0.24270  0.38790  Biso   1.000  H
  H102     1.0000 0.58690  0.75730  0.38790  Biso   1.000  H
  H103     1.0000 0.75730  0.41310  0.61210  Biso   1.000  H
  H104     1.0000 0.24270  0.58690  0.61210  Biso   1.000  H
  H105     1.0000 0.16690  0.70400  0.12230  Biso   1.000  H
  H106     1.0000 0.83310  0.29600  0.12230  Biso   1.000  H
  H107     1.0000 0.70400  0.83310  0.87770  Biso   1.000  H
  H108     1.0000 0.29600  0.16690  0.87770  Biso   1.000  H
  H109     1.0000 0.33310  0.20400  0.37770  Biso   1.000  H
  H110     1.0000 0.66690  0.79600  0.37770  Biso   1.000  H
  H111     1.0000 0.79600  0.33310  0.62230  Biso   1.000  H
  H112     1.0000 0.20400  0.66690  0.62230  Biso   1.000  H
  H113     1.0000 0.11130  0.70500  0.21820  Biso   1.000  H
  H114     1.0000 0.88870  0.29500  0.21820  Biso   1.000  H
  H115     1.0000 0.70500  0.88870  0.78180  Biso   1.000  H
  H116     1.0000 0.29500  0.11130  0.78180  Biso   1.000  H
  H117     1.0000 0.38870  0.20500  0.28180  Biso   1.000  H
  H118     1.0000 0.61130  0.79500  0.28180  Biso   1.000  H
  H119     1.0000 0.79500  0.38870  0.71820  Biso   1.000  H
  H120     1.0000 0.20500  0.61130  0.71820  Biso   1.000  H
