data_image0
_cell_length_a       21.712
_cell_length_b       7.334
_cell_length_c       4.0807
_cell_angle_alpha    90
_cell_angle_beta     90.466
_cell_angle_gamma    90

_symmetry_space_group_name_H-M    "P 1"
_symmetry_int_tables_number       1

loop_
  _symmetry_equiv_pos_as_xyz
  'x, y, z'

loop_
  _atom_site_label
  _atom_site_occupancy
  _atom_site_fract_x
  _atom_site_fract_y
  _atom_site_fract_z
  _atom_site_thermal_displace_type
  _atom_site_B_iso_or_equiv
  _atom_site_type_symbol
  Cu1      1.0000 0.00000  0.61439  0.50000  Biso   1.000  Cu
  Cu2      1.0000 0.50000  0.11439  0.50000  Biso   1.000  Cu
  C1       1.0000 0.15267  0.71460  0.25600  Biso   1.000  C
  C2       1.0000 0.84733  0.71460  0.74400  Biso   1.000  C
  C3       1.0000 0.65267  0.21460  0.25600  Biso   1.000  C
  C4       1.0000 0.34733  0.21460  0.74400  Biso   1.000  C
  C5       1.0000 0.20305  0.82850  0.22830  Biso   1.000  C
  C6       1.0000 0.79695  0.82850  0.77170  Biso   1.000  C
  C7       1.0000 0.70305  0.32850  0.22830  Biso   1.000  C
  C8       1.0000 0.29695  0.32850  0.77170  Biso   1.000  C
  H1       1.0000 0.23880  0.78230  0.12410  Biso   1.000  H
  H2       1.0000 0.76120  0.78230  0.87590  Biso   1.000  H
  H3       1.0000 0.73880  0.28230  0.12410  Biso   1.000  H
  H4       1.0000 0.26120  0.28230  0.87590  Biso   1.000  H
  C9       1.0000 0.20450  0.00650  0.34420  Biso   1.000  C
  C10      1.0000 0.79550  0.00650  0.65580  Biso   1.000  C
  C11      1.0000 0.70450  0.50650  0.34420  Biso   1.000  C
  C12      1.0000 0.29550  0.50650  0.65580  Biso   1.000  C
  H5       1.0000 0.24140  0.07420  0.31710  Biso   1.000  H
  H6       1.0000 0.75860  0.07420  0.68290  Biso   1.000  H
  H7       1.0000 0.74140  0.57420  0.31710  Biso   1.000  H
  H8       1.0000 0.25860  0.57420  0.68290  Biso   1.000  H
  C13      1.0000 0.15540  0.09160  0.49680  Biso   1.000  C
  C14      1.0000 0.84460  0.09160  0.50320  Biso   1.000  C
  C15      1.0000 0.65540  0.59160  0.49680  Biso   1.000  C
  C16      1.0000 0.34460  0.59160  0.50320  Biso   1.000  C
  H9       1.0000 0.16000  0.21480  0.56440  Biso   1.000  H
  H10      1.0000 0.84000  0.21480  0.43560  Biso   1.000  H
  H11      1.0000 0.66000  0.71480  0.56440  Biso   1.000  H
  H12      1.0000 0.34000  0.71480  0.43560  Biso   1.000  H
  C17      1.0000 0.10010  0.00400  0.55470  Biso   1.000  C
  C18      1.0000 0.89990  0.00400  0.44530  Biso   1.000  C
  C19      1.0000 0.60010  0.50400  0.55470  Biso   1.000  C
  C20      1.0000 0.39990  0.50400  0.44530  Biso   1.000  C
  H13      1.0000 0.06840  0.07100  0.66000  Biso   1.000  H
  H14      1.0000 0.93160  0.07100  0.34000  Biso   1.000  H
  H15      1.0000 0.56840  0.57100  0.66000  Biso   1.000  H
  H16      1.0000 0.43160  0.57100  0.34000  Biso   1.000  H
  I1       1.0000 0.00000  0.38410  0.00000  Biso   1.000  I
  I2       1.0000 0.50000  0.88410  0.00000  Biso   1.000  I
  O1       1.0000 0.15839  0.54250  0.12910  Biso   1.000  O
  O2       1.0000 0.84161  0.54250  0.87090  Biso   1.000  O
  O3       1.0000 0.65839  0.04250  0.12910  Biso   1.000  O
  O4       1.0000 0.34161  0.04250  0.87090  Biso   1.000  O
  H17      1.0000 0.12470  0.48690  0.14660  Biso   1.000  H
  H18      1.0000 0.87530  0.48690  0.85340  Biso   1.000  H
  H19      1.0000 0.62470  0.98690  0.14660  Biso   1.000  H
  H20      1.0000 0.37530  0.98690  0.85340  Biso   1.000  H
  P1       1.0000 0.08502  0.78187  0.44780  Biso   1.000  P
  P2       1.0000 0.91498  0.78187  0.55220  Biso   1.000  P
  P3       1.0000 0.58502  0.28187  0.44780  Biso   1.000  P
  P4       1.0000 0.41498  0.28187  0.55220  Biso   1.000  P
