data_image0
_cell_length_a       9.2488
_cell_length_b       17.7696
_cell_length_c       7.5714
_cell_angle_alpha    90
_cell_angle_beta     90.817
_cell_angle_gamma    90

_symmetry_space_group_name_H-M    "P 1"
_symmetry_int_tables_number       1

loop_
  _symmetry_equiv_pos_as_xyz
  'x, y, z'

loop_
  _atom_site_label
  _atom_site_occupancy
  _atom_site_fract_x
  _atom_site_fract_y
  _atom_site_fract_z
  _atom_site_thermal_displace_type
  _atom_site_B_iso_or_equiv
  _atom_site_type_symbol
  Cu1      1.0000 0.78402  0.20945  0.07457  Biso   1.000  Cu
  Cu2      1.0000 0.21598  0.70945  0.42543  Biso   1.000  Cu
  Cu3      1.0000 0.21598  0.79055  0.92543  Biso   1.000  Cu
  Cu4      1.0000 0.78402  0.29055  0.57457  Biso   1.000  Cu
  Br1      1.0000 0.93422  0.22095  0.35426  Biso   1.000  Br
  Br2      1.0000 0.06578  0.72095  0.14574  Biso   1.000  Br
  Br3      1.0000 0.06578  0.77905  0.64574  Biso   1.000  Br
  Br4      1.0000 0.93422  0.27905  0.85426  Biso   1.000  Br
  C1       1.0000 0.87940  0.05440  0.81570  Biso   1.000  C
  C2       1.0000 0.12060  0.55440  0.68430  Biso   1.000  C
  C3       1.0000 0.12060  0.94560  0.18430  Biso   1.000  C
  C4       1.0000 0.87940  0.44560  0.31570  Biso   1.000  C
  C5       1.0000 0.89350  0.97830  0.78010  Biso   1.000  C
  C6       1.0000 0.10650  0.47830  0.71990  Biso   1.000  C
  C7       1.0000 0.10650  0.02170  0.21990  Biso   1.000  C
  C8       1.0000 0.89350  0.52170  0.28010  Biso   1.000  C
  H1       1.0000 0.95580  0.96330  0.68800  Biso   1.000  H
  H2       1.0000 0.04420  0.46330  0.81200  Biso   1.000  H
  H3       1.0000 0.04420  0.03670  0.31200  Biso   1.000  H
  H4       1.0000 0.95580  0.53670  0.18800  Biso   1.000  H
  C9       1.0000 0.82010  0.92290  0.87350  Biso   1.000  C
  C10      1.0000 0.17990  0.42290  0.62650  Biso   1.000  C
  C11      1.0000 0.17990  0.07710  0.12650  Biso   1.000  C
  C12      1.0000 0.82010  0.57710  0.37350  Biso   1.000  C
  H5       1.0000 0.83520  0.87180  0.84170  Biso   1.000  H
  H6       1.0000 0.16480  0.37180  0.65830  Biso   1.000  H
  H7       1.0000 0.16480  0.12820  0.15830  Biso   1.000  H
  H8       1.0000 0.83520  0.62820  0.34170  Biso   1.000  H
  C13      1.0000 0.72630  0.93810  0.01040  Biso   1.000  C
  C14      1.0000 0.27370  0.43810  0.48960  Biso   1.000  C
  C15      1.0000 0.27370  0.06190  0.98960  Biso   1.000  C
  C16      1.0000 0.72630  0.56190  0.51040  Biso   1.000  C
  H9       1.0000 0.67860  0.89710  0.06510  Biso   1.000  H
  H10      1.0000 0.32140  0.39710  0.43490  Biso   1.000  H
  H11      1.0000 0.32140  0.10290  0.93490  Biso   1.000  H
  H12      1.0000 0.67860  0.60290  0.56510  Biso   1.000  H
  C17      1.0000 0.69890  0.00980  0.07080  Biso   1.000  C
  C18      1.0000 0.30110  0.50980  0.42920  Biso   1.000  C
  C19      1.0000 0.30110  0.99020  0.92920  Biso   1.000  C
  C20      1.0000 0.69890  0.49020  0.57080  Biso   1.000  C
  H13      1.0000 0.63410  0.01530  0.16620  Biso   1.000  H
  H14      1.0000 0.36590  0.51530  0.33380  Biso   1.000  H
  H15      1.0000 0.36590  0.98470  0.83380  Biso   1.000  H
  H16      1.0000 0.63410  0.48470  0.66620  Biso   1.000  H
  C21      1.0000 0.55650  0.36690  0.01600  Biso   1.000  C
  C22      1.0000 0.44350  0.86690  0.48400  Biso   1.000  C
  C23      1.0000 0.44350  0.63310  0.98400  Biso   1.000  C
  C24      1.0000 0.55650  0.13310  0.51600  Biso   1.000  C
  C25      1.0000 0.42210  0.40060  0.00140  Biso   1.000  C
  C26      1.0000 0.57790  0.90060  0.49860  Biso   1.000  C
  C27      1.0000 0.57790  0.59940  0.99860  Biso   1.000  C
  C28      1.0000 0.42210  0.09940  0.50140  Biso   1.000  C
  H17      1.0000 0.41650  0.44990  0.95350  Biso   1.000  H
  H18      1.0000 0.58350  0.94990  0.54650  Biso   1.000  H
  H19      1.0000 0.58350  0.55010  0.04650  Biso   1.000  H
  H20      1.0000 0.41650  0.05010  0.45350  Biso   1.000  H
  C29      1.0000 0.29560  0.36630  0.05290  Biso   1.000  C
  C30      1.0000 0.70440  0.86630  0.44710  Biso   1.000  C
  C31      1.0000 0.70440  0.63370  0.94710  Biso   1.000  C
  C32      1.0000 0.29560  0.13370  0.55290  Biso   1.000  C
  H21      1.0000 0.20780  0.39350  0.03760  Biso   1.000  H
  H22      1.0000 0.79220  0.89350  0.46240  Biso   1.000  H
  H23      1.0000 0.79220  0.60650  0.96240  Biso   1.000  H
  H24      1.0000 0.20780  0.10650  0.53760  Biso   1.000  H
  C33      1.0000 0.28880  0.29470  0.12560  Biso   1.000  C
  C34      1.0000 0.71120  0.79470  0.37440  Biso   1.000  C
  C35      1.0000 0.71120  0.70530  0.87440  Biso   1.000  C
  C36      1.0000 0.28880  0.20530  0.62560  Biso   1.000  C
  H25      1.0000 0.19710  0.27560  0.15850  Biso   1.000  H
  H26      1.0000 0.80290  0.77560  0.34150  Biso   1.000  H
  H27      1.0000 0.80290  0.72440  0.84150  Biso   1.000  H
  H28      1.0000 0.19710  0.22440  0.65850  Biso   1.000  H
  C37      1.0000 0.40930  0.24990  0.15210  Biso   1.000  C
  C38      1.0000 0.59070  0.74990  0.34790  Biso   1.000  C
  C39      1.0000 0.59070  0.75010  0.84790  Biso   1.000  C
  C40      1.0000 0.40930  0.25010  0.65210  Biso   1.000  C
  H29      1.0000 0.39560  0.20100  0.19990  Biso   1.000  H
  H30      1.0000 0.60440  0.70100  0.30010  Biso   1.000  H
  H31      1.0000 0.60440  0.79900  0.80010  Biso   1.000  H
  H32      1.0000 0.39560  0.29900  0.69990  Biso   1.000  H
  O1       1.0000 0.95430  0.10150  0.70770  Biso   1.000  O
  O2       1.0000 0.04570  0.60150  0.79230  Biso   1.000  O
  O3       1.0000 0.04570  0.89850  0.29230  Biso   1.000  O
  O4       1.0000 0.95430  0.39850  0.20770  Biso   1.000  O
  H33      1.0000 0.97450  0.14130  0.76230  Biso   1.000  H
  H34      1.0000 0.02550  0.64130  0.73770  Biso   1.000  H
  H35      1.0000 0.02550  0.85870  0.23770  Biso   1.000  H
  H36      1.0000 0.97450  0.35870  0.26230  Biso   1.000  H
  O5       1.0000 0.67130  0.40850  0.95960  Biso   1.000  O
  O6       1.0000 0.32870  0.90850  0.54040  Biso   1.000  O
  O7       1.0000 0.32870  0.59150  0.04040  Biso   1.000  O
  O8       1.0000 0.67130  0.09150  0.45960  Biso   1.000  O
  H37      1.0000 0.74600  0.38150  0.95970  Biso   1.000  H
  H38      1.0000 0.25400  0.88150  0.54030  Biso   1.000  H
  H39      1.0000 0.25400  0.61850  0.04030  Biso   1.000  H
  H40      1.0000 0.74600  0.11850  0.45970  Biso   1.000  H
  P1       1.0000 0.77414  0.08941  0.98485  Biso   1.000  P
  P2       1.0000 0.22586  0.58941  0.51515  Biso   1.000  P
  P3       1.0000 0.22586  0.91059  0.01515  Biso   1.000  P
  P4       1.0000 0.77414  0.41059  0.48485  Biso   1.000  P
  P5       1.0000 0.58231  0.27738  0.10407  Biso   1.000  P
  P6       1.0000 0.41769  0.77738  0.39593  Biso   1.000  P
  P7       1.0000 0.41769  0.72262  0.89593  Biso   1.000  P
  P8       1.0000 0.58231  0.22262  0.60407  Biso   1.000  P
