data_image0
_cell_length_a       9.122
_cell_length_b       9.322
_cell_length_c       13.201
_cell_angle_alpha    106.44
_cell_angle_beta     105.965
_cell_angle_gamma    94.167

_symmetry_space_group_name_H-M    "P 1"
_symmetry_int_tables_number       1

loop_
  _symmetry_equiv_pos_as_xyz
  'x, y, z'

loop_
  _atom_site_label
  _atom_site_occupancy
  _atom_site_fract_x
  _atom_site_fract_y
  _atom_site_fract_z
  _atom_site_thermal_displace_type
  _atom_site_B_iso_or_equiv
  _atom_site_type_symbol
  Cu1      1.0000 0.44208  0.01459  0.10028  Biso   1.000  Cu
  Cu2      1.0000 0.55792  0.98541  0.89972  Biso   1.000  Cu
  Br1      1.0000 0.32728  0.10178  0.93075  Biso   1.000  Br
  Br2      1.0000 0.67272  0.89822  0.06925  Biso   1.000  Br
  P1       1.0000 0.48276  0.20635  0.25453  Biso   1.000  P
  P2       1.0000 0.51724  0.79365  0.74547  Biso   1.000  P
  N1       1.0000 0.27970  0.82550  0.06430  Biso   1.000  N
  N2       1.0000 0.72030  0.17450  0.93570  Biso   1.000  N
  C1       1.0000 0.30210  0.26260  0.27380  Biso   1.000  C
  C2       1.0000 0.69790  0.73740  0.72620  Biso   1.000  C
  C3       1.0000 0.18010  0.14690  0.25110  Biso   1.000  C
  C4       1.0000 0.81990  0.85310  0.74890  Biso   1.000  C
  H1       1.0000 0.19270  0.04630  0.22540  Biso   1.000  H
  H2       1.0000 0.80730  0.95370  0.77460  Biso   1.000  H
  C5       1.0000 0.04220  0.17960  0.26610  Biso   1.000  C
  C6       1.0000 0.95780  0.82040  0.73390  Biso   1.000  C
  H3       1.0000 0.96270  0.10120  0.25180  Biso   1.000  H
  H4       1.0000 0.03730  0.89880  0.74820  Biso   1.000  H
  C7       1.0000 0.02060  0.32650  0.30190  Biso   1.000  C
  C8       1.0000 0.97940  0.67350  0.69810  Biso   1.000  C
  H5       1.0000 0.92610  0.34780  0.31080  Biso   1.000  H
  H6       1.0000 0.07390  0.65220  0.68920  Biso   1.000  H
  C9       1.0000 0.13860  0.44320  0.32490  Biso   1.000  C
  C10      1.0000 0.86140  0.55680  0.67510  Biso   1.000  C
  H7       1.0000 0.12450  0.54340  0.35000  Biso   1.000  H
  H8       1.0000 0.87550  0.45660  0.65000  Biso   1.000  H
  C11      1.0000 0.27830  0.41030  0.31030  Biso   1.000  C
  C12      1.0000 0.72170  0.58970  0.68970  Biso   1.000  C
  H9       1.0000 0.35760  0.48930  0.32530  Biso   1.000  H
  H10      1.0000 0.64240  0.51070  0.67470  Biso   1.000  H
  C13      1.0000 0.57740  0.17040  0.38370  Biso   1.000  C
  C14      1.0000 0.42260  0.82960  0.61630  Biso   1.000  C
  C15      1.0000 0.52930  0.21020  0.47810  Biso   1.000  C
  C16      1.0000 0.47070  0.78980  0.52190  Biso   1.000  C
  H11      1.0000 0.44160  0.25560  0.47630  Biso   1.000  H
  H12      1.0000 0.55840  0.74440  0.52370  Biso   1.000  H
  C17      1.0000 0.60950  0.18340  0.57320  Biso   1.000  C
  C18      1.0000 0.39050  0.81660  0.42680  Biso   1.000  C
  H13      1.0000 0.57480  0.20830  0.63500  Biso   1.000  H
  H14      1.0000 0.42520  0.79170  0.36500  Biso   1.000  H
  C19      1.0000 0.73950  0.12060  0.57720  Biso   1.000  C
  C20      1.0000 0.26050  0.87940  0.42280  Biso   1.000  C
  H15      1.0000 0.79610  0.10640  0.64290  Biso   1.000  H
  H16      1.0000 0.20390  0.89360  0.35710  Biso   1.000  H
  C21      1.0000 0.78800  0.07780  0.48540  Biso   1.000  C
  C22      1.0000 0.21200  0.92220  0.51460  Biso   1.000  C
  H17      1.0000 0.87660  0.03350  0.48870  Biso   1.000  H
  H18      1.0000 0.12340  0.96650  0.51130  Biso   1.000  H
  C23      1.0000 0.70650  0.10000  0.38830  Biso   1.000  C
  C24      1.0000 0.29350  0.90000  0.61170  Biso   1.000  C
  H19      1.0000 0.73820  0.06770  0.32550  Biso   1.000  H
  H20      1.0000 0.26180  0.93230  0.67450  Biso   1.000  H
  C25      1.0000 0.59800  0.38470  0.27060  Biso   1.000  C
  C26      1.0000 0.40200  0.61530  0.72940  Biso   1.000  C
  C27      1.0000 0.68130  0.48730  0.37330  Biso   1.000  C
  C28      1.0000 0.31870  0.51270  0.62670  Biso   1.000  C
  H21      1.0000 0.68100  0.46550  0.43780  Biso   1.000  H
  H22      1.0000 0.31900  0.53450  0.56220  Biso   1.000  H
  C29      1.0000 0.76460  0.62160  0.38060  Biso   1.000  C
  C30      1.0000 0.23540  0.37840  0.61940  Biso   1.000  C
  H23      1.0000 0.82000  0.68930  0.45000  Biso   1.000  H
  H24      1.0000 0.18000  0.31070  0.55000  Biso   1.000  H
  C31      1.0000 0.76660  0.65600  0.28720  Biso   1.000  C
  C32      1.0000 0.23340  0.34400  0.71280  Biso   1.000  C
  H25      1.0000 0.82320  0.74650  0.29260  Biso   1.000  H
  H26      1.0000 0.17680  0.25350  0.70740  Biso   1.000  H
  C33      1.0000 0.68500  0.55660  0.18570  Biso   1.000  C
  C34      1.0000 0.31500  0.44340  0.81430  Biso   1.000  C
  H27      1.0000 0.68450  0.58070  0.12190  Biso   1.000  H
  H28      1.0000 0.31550  0.41930  0.87810  Biso   1.000  H
  C35      1.0000 0.60270  0.42020  0.17640  Biso   1.000  C
  C36      1.0000 0.39730  0.57980  0.82360  Biso   1.000  C
  H29      1.0000 0.55040  0.35200  0.10650  Biso   1.000  H
  H30      1.0000 0.44960  0.64800  0.89350  Biso   1.000  H
  C37      1.0000 0.13250  0.81630  0.00890  Biso   1.000  C
  C38      1.0000 0.86750  0.18370  0.99110  Biso   1.000  C
  H31      1.0000 0.10340  0.89830  0.98580  Biso   1.000  H
  H32      1.0000 0.89660  0.10170  0.01420  Biso   1.000  H
  C39      1.0000 0.02020  0.69460  0.98320  Biso   1.000  C
  C40      1.0000 0.97980  0.30540  0.01680  Biso   1.000  C
  H33      1.0000 0.91850  0.69660  0.94510  Biso   1.000  H
  H34      1.0000 0.08150  0.30340  0.05490  Biso   1.000  H
  C41      1.0000 0.05830  0.56800  0.01410  Biso   1.000  C
  C42      1.0000 0.94170  0.43200  0.98590  Biso   1.000  C
  C43      1.0000 0.21310  0.57760  0.07180  Biso   1.000  C
  C44      1.0000 0.78690  0.42240  0.92820  Biso   1.000  C
  H35      1.0000 0.24610  0.49650  0.09460  Biso   1.000  H
  H36      1.0000 0.75390  0.50350  0.90540  Biso   1.000  H
  C45      1.0000 0.31710  0.70460  0.09560  Biso   1.000  C
  C46      1.0000 0.68290  0.29540  0.90440  Biso   1.000  C
  H37      1.0000 0.41920  0.70740  0.13550  Biso   1.000  H
  H38      1.0000 0.58080  0.29260  0.86450  Biso   1.000  H
