data_image0
_cell_length_a       9.42
_cell_length_b       10.209
_cell_length_c       12.407
_cell_angle_alpha    104.136
_cell_angle_beta     108.132
_cell_angle_gamma    95.338

_symmetry_space_group_name_H-M    "P 1"
_symmetry_int_tables_number       1

loop_
  _symmetry_equiv_pos_as_xyz
  'x, y, z'

loop_
  _atom_site_label
  _atom_site_occupancy
  _atom_site_fract_x
  _atom_site_fract_y
  _atom_site_fract_z
  _atom_site_thermal_displace_type
  _atom_site_B_iso_or_equiv
  _atom_site_type_symbol
  Cu1      1.0000 0.64523  0.53671  0.60581  Biso   1.000  Cu
  Cu2      1.0000 0.35477  0.46329  0.39419  Biso   1.000  Cu
  Br1      1.0000 0.60482  0.59016  0.40658  Biso   1.000  Br
  Br2      1.0000 0.39518  0.40984  0.59342  Biso   1.000  Br
  P1       1.0000 0.75773  0.71774  0.76244  Biso   1.000  P
  P2       1.0000 0.24227  0.28226  0.23756  Biso   1.000  P
  C1       1.0000 0.95760  0.77070  0.78250  Biso   1.000  C
  C2       1.0000 0.04240  0.22930  0.21750  Biso   1.000  C
  C3       1.0000 0.02510  0.90440  0.79860  Biso   1.000  C
  C4       1.0000 0.97490  0.09560  0.20140  Biso   1.000  C
  H1       1.0000 0.96840  0.97420  0.80220  Biso   1.000  H
  H2       1.0000 0.03160  0.02580  0.19780  Biso   1.000  H
  C5       1.0000 0.17670  0.93430  0.80930  Biso   1.000  C
  C6       1.0000 0.82330  0.06570  0.19070  Biso   1.000  C
  H3       1.0000 0.22050  0.02400  0.81930  Biso   1.000  H
  H4       1.0000 0.77950  0.97600  0.18070  Biso   1.000  H
  C7       1.0000 0.26230  0.83310  0.80520  Biso   1.000  C
  C8       1.0000 0.73770  0.16690  0.19480  Biso   1.000  C
  H5       1.0000 0.36380  0.85380  0.81290  Biso   1.000  H
  H6       1.0000 0.63620  0.14620  0.18710  Biso   1.000  H
  C9       1.0000 0.19670  0.70050  0.78960  Biso   1.000  C
  C10      1.0000 0.80330  0.29950  0.21040  Biso   1.000  C
  H7       1.0000 0.25450  0.63150  0.78680  Biso   1.000  H
  H8       1.0000 0.74550  0.36850  0.21320  Biso   1.000  H
  C11      1.0000 0.04690  0.66940  0.77810  Biso   1.000  C
  C12      1.0000 0.95310  0.33060  0.22190  Biso   1.000  C
  H9       1.0000 0.00420  0.57910  0.76720  Biso   1.000  H
  H10      1.0000 0.99580  0.42090  0.23280  Biso   1.000  H
  C13      1.0000 0.67650  0.87450  0.76590  Biso   1.000  C
  C14      1.0000 0.32350  0.12550  0.23410  Biso   1.000  C
  C15      1.0000 0.71200  0.98160  0.86910  Biso   1.000  C
  C16      1.0000 0.28800  0.01840  0.13090  Biso   1.000  C
  H11      1.0000 0.78230  0.97650  0.93900  Biso   1.000  H
  H12      1.0000 0.21770  0.02350  0.06100  Biso   1.000  H
  C17      1.0000 0.64380  0.09600  0.86870  Biso   1.000  C
  C18      1.0000 0.35620  0.90400  0.13130  Biso   1.000  C
  H13      1.0000 0.66890  0.16760  0.93800  Biso   1.000  H
  H14      1.0000 0.33110  0.83240  0.06200  Biso   1.000  H
  C19      1.0000 0.53900  0.10380  0.76600  Biso   1.000  C
  C20      1.0000 0.46100  0.89620  0.23400  Biso   1.000  C
  H15      1.0000 0.49260  0.18030  0.76580  Biso   1.000  H
  H16      1.0000 0.50740  0.81970  0.23420  Biso   1.000  H
  C21      1.0000 0.50310  0.99930  0.66430  Biso   1.000  C
  C22      1.0000 0.49690  0.00070  0.33570  Biso   1.000  C
  H17      1.0000 0.43300  0.00530  0.59460  Biso   1.000  H
  H18      1.0000 0.56700  0.99470  0.40540  Biso   1.000  H
  C23      1.0000 0.57010  0.88410  0.66380  Biso   1.000  C
  C24      1.0000 0.42990  0.11590  0.33620  Biso   1.000  C
  H19      1.0000 0.54330  0.81260  0.59420  Biso   1.000  H
  H20      1.0000 0.45670  0.18740  0.40580  Biso   1.000  H
  C25      1.0000 0.76630  0.69360  0.90580  Biso   1.000  C
  C26      1.0000 0.23370  0.30640  0.09420  Biso   1.000  C
  C27      1.0000 0.89910  0.70200  0.99740  Biso   1.000  C
  C28      1.0000 0.10090  0.29800  0.00260  Biso   1.000  C
  H21      1.0000 0.99250  0.72110  0.98850  Biso   1.000  H
  H22      1.0000 0.00750  0.27890  0.01150  Biso   1.000  H
  C29      1.0000 0.89270  0.68160  0.10370  Biso   1.000  C
  C30      1.0000 0.10730  0.31840  0.89630  Biso   1.000  C
  H23      1.0000 0.98230  0.68600  0.16460  Biso   1.000  H
  H24      1.0000 0.01770  0.31400  0.83540  Biso   1.000  H
  C31      1.0000 0.75750  0.65550  0.11850  Biso   1.000  C
  C32      1.0000 0.24250  0.34450  0.88150  Biso   1.000  C
  H25      1.0000 0.75470  0.64090  0.18900  Biso   1.000  H
  H26      1.0000 0.24530  0.35910  0.81100  Biso   1.000  H
  C33      1.0000 0.62680  0.65040  0.03120  Biso   1.000  C
  C34      1.0000 0.37320  0.34960  0.96880  Biso   1.000  C
  H27      1.0000 0.53440  0.63680  0.04310  Biso   1.000  H
  H28      1.0000 0.46560  0.36320  0.95690  Biso   1.000  H
  C35      1.0000 0.63020  0.66570  0.92380  Biso   1.000  C
  C36      1.0000 0.36980  0.33430  0.07620  Biso   1.000  C
  H29      1.0000 0.53930  0.65700  0.86270  Biso   1.000  H
  H30      1.0000 0.46070  0.34300  0.13730  Biso   1.000  H
  N1       1.0000 0.76800  0.37730  0.58790  Biso   1.000  N
  N2       1.0000 0.23200  0.62270  0.41210  Biso   1.000  N
  C37      1.0000 0.73820  0.25210  0.60960  Biso   1.000  C
  C38      1.0000 0.26180  0.74790  0.39040  Biso   1.000  C
  H31      1.0000 0.66620  0.23790  0.64450  Biso   1.000  H
  H32      1.0000 0.33380  0.76210  0.35550  Biso   1.000  H
  C39      1.0000 0.81610  0.14800  0.57890  Biso   1.000  C
  C40      1.0000 0.18390  0.85200  0.42110  Biso   1.000  C
  H33      1.0000 0.79620  0.06430  0.59340  Biso   1.000  H
  H34      1.0000 0.20380  0.93570  0.40660  Biso   1.000  H
  C41      1.0000 0.92370  0.16920  0.52660  Biso   1.000  C
  C42      1.0000 0.07630  0.83080  0.47340  Biso   1.000  C
  C43      1.0000 0.95350  0.29440  0.50500  Biso   1.000  C
  C44      1.0000 0.04650  0.70560  0.49500  Biso   1.000  C
  H35      1.0000 0.02550  0.30860  0.47000  Biso   1.000  H
  H36      1.0000 0.97450  0.69140  0.53000  Biso   1.000  H
  C45      1.0000 0.87560  0.39840  0.53560  Biso   1.000  C
  C46      1.0000 0.12440  0.60160  0.46440  Biso   1.000  C
  H37      1.0000 0.89550  0.48220  0.52120  Biso   1.000  H
  H38      1.0000 0.10450  0.51780  0.47880  Biso   1.000  H
  C47      1.0000 0.01010  0.06110  0.49150  Biso   1.000  C
  C48      1.0000 0.98990  0.93890  0.50850  Biso   1.000  C
  H39      1.0000 0.08060  0.08030  0.45650  Biso   1.000  H
  H40      1.0000 0.91940  0.91970  0.54350  Biso   1.000  H
  N3       1.0000 0.76180  0.38000  0.57800  Biso   1.000  N
  N4       1.0000 0.23820  0.62000  0.42200  Biso   1.000  N
  C49      1.0000 0.74330  0.28430  0.63750  Biso   1.000  C
  C50      1.0000 0.25670  0.71570  0.36250  Biso   1.000  C
  H41      1.0000 0.68730  0.29830  0.68790  Biso   1.000  H
  H42      1.0000 0.31270  0.70170  0.31210  Biso   1.000  H
  C51      1.0000 0.80850  0.16760  0.62180  Biso   1.000  C
  C52      1.0000 0.19150  0.83240  0.37820  Biso   1.000  C
  H43      1.0000 0.79610  0.10360  0.66170  Biso   1.000  H
  H44      1.0000 0.20390  0.89640  0.33830  Biso   1.000  H
  C53      1.0000 0.89220  0.14660  0.54650  Biso   1.000  C
  C54      1.0000 0.10780  0.85340  0.45350  Biso   1.000  C
  C55      1.0000 0.91070  0.24230  0.48700  Biso   1.000  C
  C56      1.0000 0.08930  0.75770  0.51300  Biso   1.000  C
  H45      1.0000 0.96680  0.22830  0.43660  Biso   1.000  H
  H46      1.0000 0.03320  0.77170  0.56340  Biso   1.000  H
  C57      1.0000 0.84550  0.35900  0.50270  Biso   1.000  C
  C58      1.0000 0.15450  0.64100  0.49730  Biso   1.000  C
  H47      1.0000 0.85790  0.42310  0.46290  Biso   1.000  H
  H48      1.0000 0.14210  0.57690  0.53710  Biso   1.000  H
  C59      1.0000 0.95890  0.02020  0.53260  Biso   1.000  C
  C60      1.0000 0.04110  0.97980  0.46740  Biso   1.000  C
  H49      1.0000 0.93990  0.96230  0.57590  Biso   1.000  H
  H50      1.0000 0.06010  0.03770  0.42410  Biso   1.000  H
