data_image0
_cell_length_a       8.324
_cell_length_b       11.53
_cell_length_c       13.94
_cell_angle_alpha    109.57
_cell_angle_beta     93.85
_cell_angle_gamma    97.28

_symmetry_space_group_name_H-M    "P 1"
_symmetry_int_tables_number       1

loop_
  _symmetry_equiv_pos_as_xyz
  'x, y, z'

loop_
  _atom_site_label
  _atom_site_occupancy
  _atom_site_fract_x
  _atom_site_fract_y
  _atom_site_fract_z
  _atom_site_thermal_displace_type
  _atom_site_B_iso_or_equiv
  _atom_site_type_symbol
  Cu1      1.0000 0.50199  0.38127  0.91250  Biso   1.000  Cu
  Cu2      1.0000 0.49801  0.61873  0.08750  Biso   1.000  Cu
  P1       1.0000 0.36780  0.30987  0.75768  Biso   1.000  P
  P2       1.0000 0.63220  0.69013  0.24232  Biso   1.000  P
  Cl1      1.0000 0.33730  0.41287  0.04972  Biso   1.000  Cl
  Cl2      1.0000 0.66270  0.58713  0.95028  Biso   1.000  Cl
  N1       1.0000 0.67110  0.28380  0.94910  Biso   1.000  N
  N2       1.0000 0.32890  0.71620  0.05090  Biso   1.000  N
  C1       1.0000 0.82440  0.29670  0.92620  Biso   1.000  C
  C2       1.0000 0.17560  0.70330  0.07380  Biso   1.000  C
  H1       1.0000 0.85630  0.35800  0.89860  Biso   1.000  H
  H2       1.0000 0.14370  0.64200  0.10140  Biso   1.000  H
  C3       1.0000 0.93660  0.22630  0.94050  Biso   1.000  C
  C4       1.0000 0.06340  0.77370  0.05950  Biso   1.000  C
  H3       1.0000 0.04170  0.24130  0.92390  Biso   1.000  H
  H4       1.0000 0.95830  0.75870  0.07610  Biso   1.000  H
  C5       1.0000 0.89530  0.13130  0.98010  Biso   1.000  C
  C6       1.0000 0.10470  0.86870  0.01990  Biso   1.000  C
  C7       1.0000 0.73550  0.11920  0.00610  Biso   1.000  C
  C8       1.0000 0.26450  0.88080  0.99390  Biso   1.000  C
  H5       1.0000 0.70040  0.05930  0.03450  Biso   1.000  H
  H6       1.0000 0.29960  0.94070  0.96550  Biso   1.000  H
  C9       1.0000 0.63200  0.19470  0.99000  Biso   1.000  C
  C10      1.0000 0.36800  0.80530  0.01000  Biso   1.000  C
  H7       1.0000 0.52720  0.18430  0.00850  Biso   1.000  H
  H8       1.0000 0.47280  0.81570  0.99150  Biso   1.000  H
  C11      1.0000 0.01250  0.05300  0.99190  Biso   1.000  C
  C12      1.0000 0.98750  0.94700  0.00810  Biso   1.000  C
  H9       1.0000 0.12020  0.08180  0.98730  Biso   1.000  H
  H10      1.0000 0.87980  0.91820  0.01270  Biso   1.000  H
  C13      1.0000 0.49570  0.26690  0.65360  Biso   1.000  C
  C14      1.0000 0.50430  0.73310  0.34640  Biso   1.000  C
  C15      1.0000 0.44170  0.17330  0.55980  Biso   1.000  C
  C16      1.0000 0.55830  0.82670  0.44020  Biso   1.000  C
  H11      1.0000 0.33650  0.12890  0.54720  Biso   1.000  H
  H12      1.0000 0.66350  0.87110  0.45280  Biso   1.000  H
  C17      1.0000 0.54860  0.14690  0.48430  Biso   1.000  C
  C18      1.0000 0.45140  0.85310  0.51570  Biso   1.000  C
  H13      1.0000 0.51590  0.08240  0.42210  Biso   1.000  H
  H14      1.0000 0.48410  0.91760  0.57790  Biso   1.000  H
  C19      1.0000 0.70120  0.21620  0.50230  Biso   1.000  C
  C20      1.0000 0.29880  0.78380  0.49770  Biso   1.000  C
  H15      1.0000 0.77090  0.19990  0.45170  Biso   1.000  H
  H16      1.0000 0.22910  0.80010  0.54830  Biso   1.000  H
  C21      1.0000 0.75120  0.30900  0.59440  Biso   1.000  C
  C22      1.0000 0.24880  0.69100  0.40560  Biso   1.000  C
  H17      1.0000 0.85480  0.35560  0.60570  Biso   1.000  H
  H18      1.0000 0.14520  0.64440  0.39430  Biso   1.000  H
  C23      1.0000 0.65070  0.33460  0.67050  Biso   1.000  C
  C24      1.0000 0.34930  0.66540  0.32950  Biso   1.000  C
  H19      1.0000 0.68680  0.39740  0.73320  Biso   1.000  H
  H20      1.0000 0.31320  0.60260  0.26680  Biso   1.000  H
  C25      1.0000 0.25340  0.41910  0.72570  Biso   1.000  C
  C26      1.0000 0.74660  0.58090  0.27430  Biso   1.000  C
  C27      1.0000 0.16740  0.49060  0.80020  Biso   1.000  C
  C28      1.0000 0.83260  0.50940  0.19980  Biso   1.000  C
  H21      1.0000 0.17140  0.48210  0.86430  Biso   1.000  H
  H22      1.0000 0.82860  0.51790  0.13570  Biso   1.000  H
  C29      1.0000 0.07560  0.57460  0.77990  Biso   1.000  C
  C30      1.0000 0.92440  0.42540  0.22010  Biso   1.000  C
  H23      1.0000 0.01330  0.61800  0.82860  Biso   1.000  H
  H24      1.0000 0.98670  0.38200  0.17140  Biso   1.000  H
  C31      1.0000 0.07780  0.59270  0.68750  Biso   1.000  C
  C32      1.0000 0.92220  0.40730  0.31250  Biso   1.000  C
  H25      1.0000 0.02140  0.65200  0.67540  Biso   1.000  H
  H26      1.0000 0.97860  0.34800  0.32460  Biso   1.000  H
  C33      1.0000 0.16030  0.52580  0.61400  Biso   1.000  C
  C34      1.0000 0.83970  0.47420  0.38600  Biso   1.000  C
  H27      1.0000 0.15890  0.53870  0.55160  Biso   1.000  H
  H28      1.0000 0.84110  0.46130  0.44840  Biso   1.000  H
  C35      1.0000 0.24760  0.43750  0.63050  Biso   1.000  C
  C36      1.0000 0.75240  0.56250  0.36950  Biso   1.000  C
  H29      1.0000 0.30220  0.39060  0.57880  Biso   1.000  H
  H30      1.0000 0.69780  0.60940  0.42120  Biso   1.000  H
  C37      1.0000 0.21770  0.16800  0.72820  Biso   1.000  C
  C38      1.0000 0.78230  0.83200  0.27180  Biso   1.000  C
  C39      1.0000 0.25890  0.07330  0.76130  Biso   1.000  C
  C40      1.0000 0.74110  0.92670  0.23870  Biso   1.000  C
  H31      1.0000 0.36150  0.08160  0.79600  Biso   1.000  H
  H32      1.0000 0.63850  0.91840  0.20400  Biso   1.000  H
  C41      1.0000 0.14630  0.96630  0.74240  Biso   1.000  C
  C42      1.0000 0.85370  0.03370  0.25760  Biso   1.000  C
  H33      1.0000 0.17420  0.90350  0.76520  Biso   1.000  H
  H34      1.0000 0.82580  0.09650  0.23480  Biso   1.000  H
  C43      1.0000 0.99880  0.95170  0.69240  Biso   1.000  C
  C44      1.0000 0.00120  0.04830  0.30760  Biso   1.000  C
  H35      1.0000 0.92680  0.87800  0.67880  Biso   1.000  H
  H36      1.0000 0.07320  0.12200  0.32120  Biso   1.000  H
  C45      1.0000 0.95200  0.04400  0.66060  Biso   1.000  C
  C46      1.0000 0.04800  0.95600  0.33940  Biso   1.000  C
  H37      1.0000 0.84760  0.03470  0.62800  Biso   1.000  H
  H38      1.0000 0.15240  0.96530  0.37200  Biso   1.000  H
  C47      1.0000 0.06400  0.15280  0.67810  Biso   1.000  C
  C48      1.0000 0.93600  0.84720  0.32190  Biso   1.000  C
  H39      1.0000 0.03420  0.21510  0.65550  Biso   1.000  H
  H40      1.0000 0.96580  0.78490  0.34450  Biso   1.000  H
  C49      1.0000 0.44760  0.29790  0.25530  Biso   1.000  C
  C50      1.0000 0.55240  0.70210  0.74470  Biso   1.000  C
  H41      1.0000 0.56480  0.32350  0.27010  Biso   1.000  H
  H42      1.0000 0.43520  0.67650  0.72990  Biso   1.000  H
  H43      1.0000 0.40920  0.33290  0.20540  Biso   1.000  H
  H44      1.0000 0.59080  0.66710  0.79460  Biso   1.000  H
  Cl3      1.0000 0.40720  0.13620  0.20050  Biso   1.000  Cl
  Cl4      1.0000 0.59280  0.86380  0.79950  Biso   1.000  Cl
  Cl5      1.0000 0.36200  0.35970  0.36470  Biso   1.000  Cl
  Cl6      1.0000 0.63800  0.64030  0.63530  Biso   1.000  Cl
