data_image0
_cell_length_a       10.864
_cell_length_b       5.116
_cell_length_c       12.282
_cell_angle_alpha    90
_cell_angle_beta     104.53
_cell_angle_gamma    90

_symmetry_space_group_name_H-M    "P 1"
_symmetry_int_tables_number       1

loop_
  _symmetry_equiv_pos_as_xyz
  'x, y, z'

loop_
  _atom_site_label
  _atom_site_occupancy
  _atom_site_fract_x
  _atom_site_fract_y
  _atom_site_fract_z
  _atom_site_thermal_displace_type
  _atom_site_B_iso_or_equiv
  _atom_site_type_symbol
  Cu1      1.0000 0.49893  0.42920  0.62014  Biso   1.000  Cu
  Cu2      1.0000 0.49893  0.57080  0.12014  Biso   1.000  Cu
  Cu3      1.0000 0.19115  0.06960  0.42557  Biso   1.000  Cu
  Cu4      1.0000 0.19115  0.93040  0.92557  Biso   1.000  Cu
  N1       1.0000 0.38050  0.67750  0.54680  Biso   1.000  N
  N2       1.0000 0.38050  0.32250  0.04680  Biso   1.000  N
  C1       1.0000 0.30760  0.82810  0.50180  Biso   1.000  C
  C2       1.0000 0.30760  0.17190  0.00180  Biso   1.000  C
  N3       1.0000 0.55920  0.14880  0.72300  Biso   1.000  N
  N4       1.0000 0.55920  0.85120  0.22300  Biso   1.000  N
  C3       1.0000 0.50940  0.09840  0.81760  Biso   1.000  C
  C4       1.0000 0.50940  0.90160  0.31760  Biso   1.000  C
  H1       1.0000 0.44300  0.20310  0.82730  Biso   1.000  H
  H2       1.0000 0.44300  0.79690  0.32730  Biso   1.000  H
  C5       1.0000 0.55050  0.91540  0.89150  Biso   1.000  C
  C6       1.0000 0.55050  0.08460  0.39150  Biso   1.000  C
  H3       1.0000 0.51150  0.88910  0.94980  Biso   1.000  H
  H4       1.0000 0.51150  0.11090  0.44980  Biso   1.000  H
  C7       1.0000 0.65320  0.75810  0.88330  Biso   1.000  C
  C8       1.0000 0.65320  0.24190  0.38330  Biso   1.000  C
  C9       1.0000 0.70610  0.80950  0.78900  Biso   1.000  C
  C10      1.0000 0.70610  0.19050  0.28900  Biso   1.000  C
  H5       1.0000 0.77410  0.71210  0.77780  Biso   1.000  H
  H6       1.0000 0.77410  0.28790  0.27780  Biso   1.000  H
  C11      1.0000 0.65660  0.99400  0.72070  Biso   1.000  C
  C12      1.0000 0.65660  0.00600  0.22070  Biso   1.000  C
  H7       1.0000 0.69420  0.02240  0.66160  Biso   1.000  H
  H8       1.0000 0.69420  0.97760  0.16160  Biso   1.000  H
  C13      1.0000 0.70920  0.55460  0.97140  Biso   1.000  C
  C14      1.0000 0.70920  0.44540  0.47140  Biso   1.000  C
  O1       1.0000 0.66450  0.52720  0.05330  Biso   1.000  O
  O2       1.0000 0.66450  0.47280  0.55330  Biso   1.000  O
  O3       1.0000 0.80270  0.42150  0.95060  Biso   1.000  O
  O4       1.0000 0.80270  0.57850  0.45060  Biso   1.000  O
  N5       1.0000 0.12880  0.34750  0.31740  Biso   1.000  N
  N6       1.0000 0.12880  0.65250  0.81740  Biso   1.000  N
  C15      1.0000 0.17850  0.38920  0.23840  Biso   1.000  C
  C16      1.0000 0.17850  0.61080  0.73840  Biso   1.000  C
  H9       1.0000 0.24880  0.29050  0.23360  Biso   1.000  H
  H10      1.0000 0.24880  0.70950  0.73360  Biso   1.000  H
  C17      1.0000 0.13080  0.58590  0.15330  Biso   1.000  C
  C18      1.0000 0.13080  0.41410  0.65330  Biso   1.000  C
  H11      1.0000 0.16760  0.60600  0.09310  Biso   1.000  H
  H12      1.0000 0.16760  0.39400  0.59310  Biso   1.000  H
  C19      1.0000 0.03190  0.74130  0.16200  Biso   1.000  C
  C20      1.0000 0.03190  0.25870  0.66200  Biso   1.000  C
  C21      1.0000 0.98660  0.71070  0.25100  Biso   1.000  C
  C22      1.0000 0.98660  0.28930  0.75100  Biso   1.000  C
  H13      1.0000 0.92330  0.82280  0.26170  Biso   1.000  H
  H14      1.0000 0.92330  0.17720  0.76170  Biso   1.000  H
  C23      1.0000 0.03380  0.50330  0.33370  Biso   1.000  C
  C24      1.0000 0.03380  0.49670  0.83370  Biso   1.000  C
  H15      1.0000 0.99960  0.47940  0.39530  Biso   1.000  H
  H16      1.0000 0.99960  0.52060  0.89530  Biso   1.000  H
  C25      1.0000 0.97870  0.94620  0.07340  Biso   1.000  C
  C26      1.0000 0.97870  0.05380  0.57340  Biso   1.000  C
  O5       1.0000 0.01840  0.97110  0.99060  Biso   1.000  O
  O6       1.0000 0.01840  0.02890  0.49060  Biso   1.000  O
  O7       1.0000 0.89040  0.07980  0.09170  Biso   1.000  O
  O8       1.0000 0.89040  0.92020  0.59170  Biso   1.000  O
  H17      1.0000 0.82400  0.27900  0.99500  Biso   1.000  H
  H18      1.0000 0.82400  0.72100  0.49500  Biso   1.000  H
