data_image0
_cell_length_a       8.72
_cell_length_b       3.933
_cell_length_c       21.11
_cell_angle_alpha    90
_cell_angle_beta     100.603
_cell_angle_gamma    90

_symmetry_space_group_name_H-M    "P 1"
_symmetry_int_tables_number       1

loop_
  _symmetry_equiv_pos_as_xyz
  'x, y, z'

loop_
  _atom_site_label
  _atom_site_occupancy
  _atom_site_fract_x
  _atom_site_fract_y
  _atom_site_fract_z
  _atom_site_thermal_displace_type
  _atom_site_B_iso_or_equiv
  _atom_site_type_symbol
  Br1      1.0000 0.32956  0.40401  0.17743  Biso   1.000  Br
  Br2      1.0000 0.17044  0.90401  0.32257  Biso   1.000  Br
  Br3      1.0000 0.67044  0.59599  0.82257  Biso   1.000  Br
  Br4      1.0000 0.82956  0.09599  0.67743  Biso   1.000  Br
  Br5      1.0000 0.74864  0.33430  0.98222  Biso   1.000  Br
  Br6      1.0000 0.75136  0.83430  0.51778  Biso   1.000  Br
  Br7      1.0000 0.25136  0.66570  0.01778  Biso   1.000  Br
  Br8      1.0000 0.24864  0.16570  0.48222  Biso   1.000  Br
  Cu1      1.0000 0.18087  0.89430  0.20301  Biso   1.000  Cu
  Cu2      1.0000 0.31913  0.39430  0.29699  Biso   1.000  Cu
  Cu3      1.0000 0.81913  0.10570  0.79699  Biso   1.000  Cu
  Cu4      1.0000 0.68087  0.60570  0.70301  Biso   1.000  Cu
  N1       1.0000 0.95990  0.96080  0.15660  Biso   1.000  N
  N2       1.0000 0.54010  0.46080  0.34340  Biso   1.000  N
  N3       1.0000 0.04010  0.03920  0.84340  Biso   1.000  N
  N4       1.0000 0.45990  0.53920  0.65660  Biso   1.000  N
  C1       1.0000 0.68800  0.91770  0.15340  Biso   1.000  C
  C2       1.0000 0.81200  0.41770  0.34660  Biso   1.000  C
  C3       1.0000 0.31200  0.08230  0.84660  Biso   1.000  C
  C4       1.0000 0.18800  0.58230  0.65340  Biso   1.000  C
  H1       1.0000 0.60670  0.85350  0.17380  Biso   1.000  H
  H2       1.0000 0.89330  0.35350  0.32620  Biso   1.000  H
  H3       1.0000 0.39330  0.14650  0.82620  Biso   1.000  H
  H4       1.0000 0.10670  0.64650  0.67380  Biso   1.000  H
  C5       1.0000 0.92950  0.09790  0.09850  Biso   1.000  C
  C6       1.0000 0.57050  0.59790  0.40150  Biso   1.000  C
  C7       1.0000 0.07050  0.90210  0.90150  Biso   1.000  C
  C8       1.0000 0.42950  0.40210  0.59850  Biso   1.000  C
  H5       1.0000 0.01260  0.16100  0.07900  Biso   1.000  H
  H6       1.0000 0.48740  0.66100  0.42100  Biso   1.000  H
  H7       1.0000 0.98740  0.83900  0.92100  Biso   1.000  H
  H8       1.0000 0.51260  0.33900  0.57900  Biso   1.000  H
  C9       1.0000 0.78030  0.15090  0.06580  Biso   1.000  C
  C10      1.0000 0.71970  0.65090  0.43420  Biso   1.000  C
  C11      1.0000 0.21970  0.84910  0.93420  Biso   1.000  C
  C12      1.0000 0.28030  0.34910  0.56580  Biso   1.000  C
  C13      1.0000 0.65710  0.06000  0.09410  Biso   1.000  C
  C14      1.0000 0.84290  0.56000  0.40590  Biso   1.000  C
  C15      1.0000 0.34290  0.94000  0.90590  Biso   1.000  C
  C16      1.0000 0.15710  0.44000  0.59410  Biso   1.000  C
  H9       1.0000 0.55480  0.09500  0.07310  Biso   1.000  H
  H10      1.0000 0.94520  0.59500  0.42690  Biso   1.000  H
  H11      1.0000 0.44520  0.90500  0.92690  Biso   1.000  H
  H12      1.0000 0.05480  0.40500  0.57310  Biso   1.000  H
  C17      1.0000 0.84000  0.86850  0.18340  Biso   1.000  C
  C18      1.0000 0.66000  0.36850  0.31660  Biso   1.000  C
  C19      1.0000 0.16000  0.13150  0.81660  Biso   1.000  C
  C20      1.0000 0.34000  0.63150  0.68340  Biso   1.000  C
  H13      1.0000 0.85970  0.76710  0.22390  Biso   1.000  H
  H14      1.0000 0.64030  0.26710  0.27610  Biso   1.000  H
  H15      1.0000 0.14030  0.23290  0.77610  Biso   1.000  H
  H16      1.0000 0.35970  0.73290  0.72390  Biso   1.000  H
