data_image0
_cell_length_a       8.7438
_cell_length_b       3.9296
_cell_length_c       21.002
_cell_angle_alpha    90
_cell_angle_beta     100.837
_cell_angle_gamma    90

_symmetry_space_group_name_H-M    "P 1"
_symmetry_int_tables_number       1

loop_
  _symmetry_equiv_pos_as_xyz
  'x, y, z'

loop_
  _atom_site_label
  _atom_site_occupancy
  _atom_site_fract_x
  _atom_site_fract_y
  _atom_site_fract_z
  _atom_site_thermal_displace_type
  _atom_site_B_iso_or_equiv
  _atom_site_type_symbol
  Br1      1.0000 0.33032  0.90307  0.17634  Biso   1.000  Br
  Br2      1.0000 0.16968  0.40307  0.32366  Biso   1.000  Br
  Br3      1.0000 0.66968  0.09693  0.82366  Biso   1.000  Br
  Br4      1.0000 0.83032  0.59693  0.67634  Biso   1.000  Br
  Cu1      1.0000 0.18109  0.39375  0.20309  Biso   1.000  Cu
  Cu2      1.0000 0.31891  0.89375  0.29691  Biso   1.000  Cu
  Cu3      1.0000 0.81891  0.60625  0.79691  Biso   1.000  Cu
  Cu4      1.0000 0.68109  0.10625  0.70309  Biso   1.000  Cu
  Cl1      1.0000 0.75105  0.82490  0.98578  Biso   1.000  Cl
  Cl2      1.0000 0.74895  0.32490  0.51422  Biso   1.000  Cl
  Cl3      1.0000 0.24895  0.17510  0.01422  Biso   1.000  Cl
  Cl4      1.0000 0.25105  0.67510  0.48578  Biso   1.000  Cl
  C1       1.0000 0.93020  0.59730  0.09604  Biso   1.000  C
  C2       1.0000 0.56980  0.09730  0.40396  Biso   1.000  C
  C3       1.0000 0.06980  0.40270  0.90396  Biso   1.000  C
  C4       1.0000 0.43020  0.90270  0.59604  Biso   1.000  C
  H1       1.0000 0.01320  0.66230  0.07680  Biso   1.000  H
  H2       1.0000 0.48680  0.16230  0.42320  Biso   1.000  H
  H3       1.0000 0.98680  0.33770  0.92320  Biso   1.000  H
  H4       1.0000 0.51320  0.83770  0.57680  Biso   1.000  H
  N1       1.0000 0.95930  0.45710  0.15456  Biso   1.000  N
  N2       1.0000 0.54070  0.95710  0.34544  Biso   1.000  N
  N3       1.0000 0.04070  0.54290  0.84544  Biso   1.000  N
  N4       1.0000 0.45930  0.04290  0.65456  Biso   1.000  N
  C5       1.0000 0.68620  0.41600  0.15116  Biso   1.000  C
  C6       1.0000 0.81380  0.91600  0.34884  Biso   1.000  C
  C7       1.0000 0.31380  0.58400  0.84884  Biso   1.000  C
  C8       1.0000 0.18620  0.08400  0.65116  Biso   1.000  C
  H5       1.0000 0.60460  0.34990  0.17120  Biso   1.000  H
  H6       1.0000 0.89540  0.84990  0.32880  Biso   1.000  H
  H7       1.0000 0.39540  0.65010  0.82880  Biso   1.000  H
  H8       1.0000 0.10460  0.15010  0.67120  Biso   1.000  H
  C9       1.0000 0.77960  0.64930  0.06278  Biso   1.000  C
  C10      1.0000 0.72040  0.14930  0.43722  Biso   1.000  C
  C11      1.0000 0.22040  0.35070  0.93722  Biso   1.000  C
  C12      1.0000 0.27960  0.85070  0.56278  Biso   1.000  C
  C13      1.0000 0.65540  0.56150  0.09065  Biso   1.000  C
  C14      1.0000 0.84460  0.06150  0.40935  Biso   1.000  C
  C15      1.0000 0.34460  0.43850  0.90935  Biso   1.000  C
  C16      1.0000 0.15540  0.93850  0.59065  Biso   1.000  C
  H9       1.0000 0.55360  0.59930  0.06930  Biso   1.000  H
  H10      1.0000 0.94640  0.09930  0.43070  Biso   1.000  H
  H11      1.0000 0.44640  0.40070  0.93070  Biso   1.000  H
  H12      1.0000 0.05360  0.90070  0.56930  Biso   1.000  H
  C17      1.0000 0.83770  0.36820  0.18211  Biso   1.000  C
  C18      1.0000 0.66230  0.86820  0.31789  Biso   1.000  C
  C19      1.0000 0.16230  0.63180  0.81789  Biso   1.000  C
  C20      1.0000 0.33770  0.13180  0.68211  Biso   1.000  C
  H13      1.0000 0.85690  0.27160  0.22330  Biso   1.000  H
  H14      1.0000 0.64310  0.77160  0.27670  Biso   1.000  H
  H15      1.0000 0.14310  0.72840  0.77670  Biso   1.000  H
  H16      1.0000 0.35690  0.22840  0.72330  Biso   1.000  H
