data_image0
_cell_length_a       13.638
_cell_length_b       13.638
_cell_length_c       11.428
_cell_angle_alpha    90
_cell_angle_beta     90
_cell_angle_gamma    90

_symmetry_space_group_name_H-M    "P 1"
_symmetry_int_tables_number       1

loop_
  _symmetry_equiv_pos_as_xyz
  'x, y, z'

loop_
  _atom_site_label
  _atom_site_occupancy
  _atom_site_fract_x
  _atom_site_fract_y
  _atom_site_fract_z
  _atom_site_thermal_displace_type
  _atom_site_B_iso_or_equiv
  _atom_site_type_symbol
  Cu1      1.0000 0.50000  0.75000  0.37500  Biso   1.000  Cu
  Cu2      1.0000 0.50000  0.25000  0.62500  Biso   1.000  Cu
  Cu3      1.0000 0.00000  0.25000  0.87500  Biso   1.000  Cu
  Cu4      1.0000 0.00000  0.75000  0.12500  Biso   1.000  Cu
  Cu5      1.0000 0.50000  0.50000  0.50000  Biso   1.000  Cu
  Cu6      1.0000 0.75000  0.25000  0.75000  Biso   1.000  Cu
  Cu7      1.0000 0.00000  0.50000  0.00000  Biso   1.000  Cu
  Cu8      1.0000 0.75000  0.75000  0.25000  Biso   1.000  Cu
  Cu9      1.0000 0.00000  0.00000  0.00000  Biso   1.000  Cu
  Cu10     1.0000 0.25000  0.75000  0.25000  Biso   1.000  Cu
  Cu11     1.0000 0.50000  0.00000  0.50000  Biso   1.000  Cu
  Cu12     1.0000 0.25000  0.25000  0.75000  Biso   1.000  Cu
  Na1      1.0000 0.50000  0.25000  0.12500  Biso   1.000  Na
  Na2      1.0000 0.00000  0.25000  0.37500  Biso   1.000  Na
  Na3      1.0000 0.00000  0.75000  0.62500  Biso   1.000  Na
  Na4      1.0000 0.50000  0.75000  0.87500  Biso   1.000  Na
  O1       1.0000 0.50000  0.37170  0.25990  Biso   1.000  O
  O2       1.0000 0.87830  0.25000  0.50990  Biso   1.000  O
  O3       1.0000 0.00000  0.62830  0.75990  Biso   1.000  O
  O4       1.0000 0.62170  0.75000  0.00990  Biso   1.000  O
  O5       1.0000 0.50000  0.62830  0.74010  Biso   1.000  O
  O6       1.0000 0.62170  0.25000  0.99010  Biso   1.000  O
  O7       1.0000 0.00000  0.37170  0.24010  Biso   1.000  O
  O8       1.0000 0.87830  0.75000  0.49010  Biso   1.000  O
  O9       1.0000 0.00000  0.87170  0.75990  Biso   1.000  O
  O10      1.0000 0.37830  0.75000  0.00990  Biso   1.000  O
  O11      1.0000 0.50000  0.12830  0.25990  Biso   1.000  O
  O12      1.0000 0.12170  0.25000  0.50990  Biso   1.000  O
  O13      1.0000 0.00000  0.12830  0.24010  Biso   1.000  O
  O14      1.0000 0.12170  0.75000  0.49010  Biso   1.000  O
  O15      1.0000 0.50000  0.87170  0.74010  Biso   1.000  O
  O16      1.0000 0.37830  0.25000  0.99010  Biso   1.000  O
  N1       1.0000 0.50000  0.51390  0.14770  Biso   1.000  N
  N2       1.0000 0.73610  0.25000  0.39770  Biso   1.000  N
  N3       1.0000 0.00000  0.48610  0.64770  Biso   1.000  N
  N4       1.0000 0.76390  0.75000  0.89770  Biso   1.000  N
  N5       1.0000 0.50000  0.48610  0.85230  Biso   1.000  N
  N6       1.0000 0.76390  0.25000  0.10230  Biso   1.000  N
  N7       1.0000 0.00000  0.51390  0.35230  Biso   1.000  N
  N8       1.0000 0.73610  0.75000  0.60230  Biso   1.000  N
  N9       1.0000 0.00000  0.01390  0.64770  Biso   1.000  N
  N10      1.0000 0.23610  0.75000  0.89770  Biso   1.000  N
  N11      1.0000 0.50000  0.98610  0.14770  Biso   1.000  N
  N12      1.0000 0.26390  0.25000  0.39770  Biso   1.000  N
  N13      1.0000 0.00000  0.98610  0.35230  Biso   1.000  N
  N14      1.0000 0.26390  0.75000  0.60230  Biso   1.000  N
  N15      1.0000 0.50000  0.01390  0.85230  Biso   1.000  N
  N16      1.0000 0.23610  0.25000  0.10230  Biso   1.000  N
  N17      1.0000 0.50000  0.46980  0.04070  Biso   1.000  N
  N18      1.0000 0.78020  0.25000  0.29070  Biso   1.000  N
  N19      1.0000 0.00000  0.53020  0.54070  Biso   1.000  N
  N20      1.0000 0.71980  0.75000  0.79070  Biso   1.000  N
  N21      1.0000 0.50000  0.53020  0.95930  Biso   1.000  N
  N22      1.0000 0.71980  0.25000  0.20930  Biso   1.000  N
  N23      1.0000 0.00000  0.46980  0.45930  Biso   1.000  N
  N24      1.0000 0.78020  0.75000  0.70930  Biso   1.000  N
  N25      1.0000 0.00000  0.96980  0.54070  Biso   1.000  N
  N26      1.0000 0.28020  0.75000  0.79070  Biso   1.000  N
  N27      1.0000 0.50000  0.03020  0.04070  Biso   1.000  N
  N28      1.0000 0.21980  0.25000  0.29070  Biso   1.000  N
  N29      1.0000 0.00000  0.03020  0.45930  Biso   1.000  N
  N30      1.0000 0.21980  0.75000  0.70930  Biso   1.000  N
  N31      1.0000 0.50000  0.96980  0.95930  Biso   1.000  N
  N32      1.0000 0.28020  0.25000  0.20930  Biso   1.000  N
  N33      1.0000 0.50000  0.62300  0.28780  Biso   1.000  N
  N34      1.0000 0.62700  0.25000  0.53780  Biso   1.000  N
  N35      1.0000 0.00000  0.37700  0.78780  Biso   1.000  N
  N36      1.0000 0.87300  0.75000  0.03780  Biso   1.000  N
  N37      1.0000 0.50000  0.37700  0.71220  Biso   1.000  N
  N38      1.0000 0.87300  0.25000  0.96220  Biso   1.000  N
  N39      1.0000 0.00000  0.62300  0.21220  Biso   1.000  N
  N40      1.0000 0.62700  0.75000  0.46220  Biso   1.000  N
  N41      1.0000 0.00000  0.12300  0.78780  Biso   1.000  N
  N42      1.0000 0.12700  0.75000  0.03780  Biso   1.000  N
  N43      1.0000 0.50000  0.87700  0.28780  Biso   1.000  N
  N44      1.0000 0.37300  0.25000  0.53780  Biso   1.000  N
  N45      1.0000 0.00000  0.87700  0.21220  Biso   1.000  N
  N46      1.0000 0.37300  0.75000  0.46220  Biso   1.000  N
  N47      1.0000 0.50000  0.12300  0.71220  Biso   1.000  N
  N48      1.0000 0.12700  0.25000  0.96220  Biso   1.000  N
  N49      1.0000 0.50000  0.52640  0.33910  Biso   1.000  N
  N50      1.0000 0.72360  0.25000  0.58910  Biso   1.000  N
  N51      1.0000 0.00000  0.47360  0.83910  Biso   1.000  N
  N52      1.0000 0.77640  0.75000  0.08910  Biso   1.000  N
  N53      1.0000 0.50000  0.47360  0.66090  Biso   1.000  N
  N54      1.0000 0.77640  0.25000  0.91090  Biso   1.000  N
  N55      1.0000 0.00000  0.52640  0.16090  Biso   1.000  N
  N56      1.0000 0.72360  0.75000  0.41090  Biso   1.000  N
  N57      1.0000 0.00000  0.02640  0.83910  Biso   1.000  N
  N58      1.0000 0.22360  0.75000  0.08910  Biso   1.000  N
  N59      1.0000 0.50000  0.97360  0.33910  Biso   1.000  N
  N60      1.0000 0.27640  0.25000  0.58910  Biso   1.000  N
  N61      1.0000 0.00000  0.97360  0.16090  Biso   1.000  N
  N62      1.0000 0.27640  0.75000  0.41090  Biso   1.000  N
  N63      1.0000 0.50000  0.02640  0.66090  Biso   1.000  N
  N64      1.0000 0.22360  0.25000  0.91090  Biso   1.000  N
  C1       1.0000 0.50000  0.45990  0.25270  Biso   1.000  C
  C2       1.0000 0.79010  0.25000  0.50270  Biso   1.000  C
  C3       1.0000 0.00000  0.54010  0.75270  Biso   1.000  C
  C4       1.0000 0.70990  0.75000  0.00270  Biso   1.000  C
  C5       1.0000 0.50000  0.54010  0.74730  Biso   1.000  C
  C6       1.0000 0.70990  0.25000  0.99730  Biso   1.000  C
  C7       1.0000 0.00000  0.45990  0.24730  Biso   1.000  C
  C8       1.0000 0.79010  0.75000  0.49730  Biso   1.000  C
  C9       1.0000 0.00000  0.95990  0.75270  Biso   1.000  C
  C10      1.0000 0.29010  0.75000  0.00270  Biso   1.000  C
  C11      1.0000 0.50000  0.04010  0.25270  Biso   1.000  C
  C12      1.0000 0.20990  0.25000  0.50270  Biso   1.000  C
  C13      1.0000 0.00000  0.04010  0.24730  Biso   1.000  C
  C14      1.0000 0.20990  0.75000  0.49730  Biso   1.000  C
  C15      1.0000 0.50000  0.95990  0.74730  Biso   1.000  C
  C16      1.0000 0.29010  0.25000  0.99730  Biso   1.000  C
  C17      1.0000 0.50000  0.61240  0.17630  Biso   1.000  C
  C18      1.0000 0.63760  0.25000  0.42630  Biso   1.000  C
  C19      1.0000 0.00000  0.38760  0.67630  Biso   1.000  C
  C20      1.0000 0.86240  0.75000  0.92630  Biso   1.000  C
  C21      1.0000 0.50000  0.38760  0.82370  Biso   1.000  C
  C22      1.0000 0.86240  0.25000  0.07370  Biso   1.000  C
  C23      1.0000 0.00000  0.61240  0.32370  Biso   1.000  C
  C24      1.0000 0.63760  0.75000  0.57370  Biso   1.000  C
  C25      1.0000 0.00000  0.11240  0.67630  Biso   1.000  C
  C26      1.0000 0.13760  0.75000  0.92630  Biso   1.000  C
  C27      1.0000 0.50000  0.88760  0.17630  Biso   1.000  C
  C28      1.0000 0.36240  0.25000  0.42630  Biso   1.000  C
  C29      1.0000 0.00000  0.88760  0.32370  Biso   1.000  C
  C30      1.0000 0.36240  0.75000  0.57370  Biso   1.000  C
  C31      1.0000 0.50000  0.11240  0.82370  Biso   1.000  C
  C32      1.0000 0.13760  0.25000  0.07370  Biso   1.000  C
  H1       1.0000 0.50000  0.66360  0.12250  Biso   1.000  H
  H2       1.0000 0.58640  0.25000  0.37250  Biso   1.000  H
  H3       1.0000 0.00000  0.33640  0.62250  Biso   1.000  H
  H4       1.0000 0.91360  0.75000  0.87250  Biso   1.000  H
  H5       1.0000 0.50000  0.33640  0.87750  Biso   1.000  H
  H6       1.0000 0.91360  0.25000  0.12750  Biso   1.000  H
  H7       1.0000 0.00000  0.66360  0.37750  Biso   1.000  H
  H8       1.0000 0.58640  0.75000  0.62750  Biso   1.000  H
  H9       1.0000 0.00000  0.16360  0.62250  Biso   1.000  H
  H10      1.0000 0.08640  0.75000  0.87250  Biso   1.000  H
  H11      1.0000 0.50000  0.83640  0.12250  Biso   1.000  H
  H12      1.0000 0.41360  0.25000  0.37250  Biso   1.000  H
  H13      1.0000 0.00000  0.83640  0.37750  Biso   1.000  H
  H14      1.0000 0.41360  0.75000  0.62750  Biso   1.000  H
  H15      1.0000 0.50000  0.16360  0.87750  Biso   1.000  H
  H16      1.0000 0.08640  0.25000  0.12750  Biso   1.000  H
