data_image0
_cell_length_a       8.6442
_cell_length_b       11.0859
_cell_length_c       14.2907
_cell_angle_alpha    108.567
_cell_angle_beta     91.523
_cell_angle_gamma    91.791

_symmetry_space_group_name_H-M    "P 1"
_symmetry_int_tables_number       1

loop_
  _symmetry_equiv_pos_as_xyz
  'x, y, z'

loop_
  _atom_site_label
  _atom_site_occupancy
  _atom_site_fract_x
  _atom_site_fract_y
  _atom_site_fract_z
  _atom_site_thermal_displace_type
  _atom_site_B_iso_or_equiv
  _atom_site_type_symbol
  Cu1      1.0000 0.50000  0.50000  0.50000  Biso   1.000  Cu
  Cu2      1.0000 0.39006  0.96064  0.39800  Biso   1.000  Cu
  Cu3      1.0000 0.60994  0.03936  0.60200  Biso   1.000  Cu
  Cu4      1.0000 0.37765  0.31771  0.27195  Biso   1.000  Cu
  Cu5      1.0000 0.62235  0.68229  0.72805  Biso   1.000  Cu
  Cu6      1.0000 0.12352  0.69230  0.24225  Biso   1.000  Cu
  Cu7      1.0000 0.87648  0.30770  0.75775  Biso   1.000  Cu
  Cu8      1.0000 0.11021  0.04492  0.11223  Biso   1.000  Cu
  Cu9      1.0000 0.88979  0.95508  0.88777  Biso   1.000  Cu
  Cu10     1.0000 0.00000  0.50000  0.00000  Biso   1.000  Cu
  C1       1.0000 0.28290  0.70490  0.53780  Biso   1.000  C
  C2       1.0000 0.71710  0.29510  0.46220  Biso   1.000  C
  C3       1.0000 0.17710  0.66520  0.59400  Biso   1.000  C
  C4       1.0000 0.82290  0.33480  0.40600  Biso   1.000  C
  H1       1.0000 0.18900  0.58990  0.60840  Biso   1.000  H
  H2       1.0000 0.81100  0.41010  0.39160  Biso   1.000  H
  C5       1.0000 0.05350  0.74060  0.62810  Biso   1.000  C
  C6       1.0000 0.94650  0.25940  0.37190  Biso   1.000  C
  H3       1.0000 0.97980  0.71490  0.66480  Biso   1.000  H
  H4       1.0000 0.02020  0.28510  0.33520  Biso   1.000  H
  C7       1.0000 0.03760  0.85500  0.60800  Biso   1.000  C
  C8       1.0000 0.96240  0.14500  0.39200  Biso   1.000  C
  H5       1.0000 0.95530  0.90550  0.63410  Biso   1.000  H
  H6       1.0000 0.04470  0.09450  0.36590  Biso   1.000  H
  C9       1.0000 0.13890  0.89520  0.55130  Biso   1.000  C
  C10      1.0000 0.86110  0.10480  0.44870  Biso   1.000  C
  H7       1.0000 0.12630  0.97090  0.53750  Biso   1.000  H
  H8       1.0000 0.87370  0.02910  0.46250  Biso   1.000  H
  C11      1.0000 0.26280  0.81730  0.51470  Biso   1.000  C
  C12      1.0000 0.73720  0.18270  0.48530  Biso   1.000  C
  C13      1.0000 0.47330  0.73410  0.44990  Biso   1.000  C
  C14      1.0000 0.52670  0.26590  0.55010  Biso   1.000  C
  C15      1.0000 0.37800  0.08320  0.34010  Biso   1.000  C
  C16      1.0000 0.62200  0.91680  0.65990  Biso   1.000  C
  C17      1.0000 0.66340  0.19630  0.17270  Biso   1.000  C
  C18      1.0000 0.33660  0.80370  0.82730  Biso   1.000  C
  H9       1.0000 0.61580  0.12410  0.18090  Biso   1.000  H
  H10      1.0000 0.38420  0.87590  0.81910  Biso   1.000  H
  C19      1.0000 0.80100  0.18410  0.12750  Biso   1.000  C
  C20      1.0000 0.19900  0.81590  0.87250  Biso   1.000  C
  H11      1.0000 0.84260  0.10420  0.10340  Biso   1.000  H
  H12      1.0000 0.15740  0.89580  0.89660  Biso   1.000  H
  C21      1.0000 0.88000  0.28920  0.11680  Biso   1.000  C
  C22      1.0000 0.12000  0.71080  0.88320  Biso   1.000  C
  C23      1.0000 0.80910  0.40510  0.15290  Biso   1.000  C
  C24      1.0000 0.19090  0.59490  0.84710  Biso   1.000  C
  H13      1.0000 0.85750  0.47930  0.14900  Biso   1.000  H
  H14      1.0000 0.14250  0.52070  0.85100  Biso   1.000  H
  C25      1.0000 0.66800  0.40890  0.19420  Biso   1.000  C
  C26      1.0000 0.33200  0.59110  0.80580  Biso   1.000  C
  H15      1.0000 0.62080  0.48680  0.21550  Biso   1.000  H
  H16      1.0000 0.37920  0.51320  0.78450  Biso   1.000  H
  C27      1.0000 0.28160  0.46320  0.26900  Biso   1.000  C
  C28      1.0000 0.71840  0.53680  0.73100  Biso   1.000  C
  C29      1.0000 0.88780  0.66690  0.38980  Biso   1.000  C
  C30      1.0000 0.11220  0.33310  0.61020  Biso   1.000  C
  H17      1.0000 0.97040  0.63140  0.41310  Biso   1.000  H
  H18      1.0000 0.02960  0.36860  0.58690  Biso   1.000  H
  C31      1.0000 0.74880  0.67290  0.43580  Biso   1.000  C
  C32      1.0000 0.25120  0.32710  0.56420  Biso   1.000  C
  H19      1.0000 0.73980  0.64300  0.48940  Biso   1.000  H
  H20      1.0000 0.26020  0.35700  0.51060  Biso   1.000  H
  C33      1.0000 0.62190  0.72350  0.40200  Biso   1.000  C
  C34      1.0000 0.37810  0.27650  0.59800  Biso   1.000  C
  C35      1.0000 0.64560  0.76740  0.32270  Biso   1.000  C
  C36      1.0000 0.35440  0.23260  0.67730  Biso   1.000  C
  H21      1.0000 0.56390  0.80090  0.29680  Biso   1.000  H
  H22      1.0000 0.43610  0.19910  0.70320  Biso   1.000  H
  C37      1.0000 0.78800  0.76190  0.28220  Biso   1.000  C
  C38      1.0000 0.21200  0.23810  0.71780  Biso   1.000  C
  H23      1.0000 0.80120  0.79560  0.23090  Biso   1.000  H
  H24      1.0000 0.19880  0.20440  0.76910  Biso   1.000  H
  C39      1.0000 0.12150  0.82010  0.18460  Biso   1.000  C
  C40      1.0000 0.87850  0.17990  0.81540  Biso   1.000  C
  C41      1.0000 0.25340  0.20740  0.01740  Biso   1.000  C
  C42      1.0000 0.74660  0.79260  0.98260  Biso   1.000  C
  C43      1.0000 0.38360  0.13680  0.98910  Biso   1.000  C
  C44      1.0000 0.61640  0.86320  0.01090  Biso   1.000  C
  H25      1.0000 0.39440  0.05920  0.00020  Biso   1.000  H
  H26      1.0000 0.60560  0.94080  0.99980  Biso   1.000  H
  C45      1.0000 0.49660  0.18650  0.94370  Biso   1.000  C
  C46      1.0000 0.50340  0.81350  0.05630  Biso   1.000  C
  H27      1.0000 0.58430  0.14060  0.92220  Biso   1.000  H
  H28      1.0000 0.41570  0.85940  0.07780  Biso   1.000  H
  C47      1.0000 0.48150  0.30430  0.92950  Biso   1.000  C
  C48      1.0000 0.51850  0.69570  0.07050  Biso   1.000  C
  H29      1.0000 0.56080  0.33650  0.90040  Biso   1.000  H
  H30      1.0000 0.43920  0.66350  0.09960  Biso   1.000  H
  C49      1.0000 0.35090  0.37460  0.95780  Biso   1.000  C
  C50      1.0000 0.64910  0.62540  0.04220  Biso   1.000  C
  H31      1.0000 0.34200  0.45390  0.94920  Biso   1.000  H
  H32      1.0000 0.65800  0.54610  0.05080  Biso   1.000  H
  C51      1.0000 0.23440  0.32250  0.99920  Biso   1.000  C
  C52      1.0000 0.76560  0.67750  0.00080  Biso   1.000  C
  C53      1.0000 0.03070  0.27950  0.07080  Biso   1.000  C
  C54      1.0000 0.96930  0.72050  0.92920  Biso   1.000  C
  N1       1.0000 0.42020  0.65370  0.49710  Biso   1.000  N
  N2       1.0000 0.57980  0.34630  0.50290  Biso   1.000  N
  N3       1.0000 0.38240  0.83360  0.45770  Biso   1.000  N
  N4       1.0000 0.61760  0.16640  0.54230  Biso   1.000  N
  N5       1.0000 0.36840  0.16660  0.31010  Biso   1.000  N
  N6       1.0000 0.63160  0.83340  0.68990  Biso   1.000  N
  N7       1.0000 0.59290  0.30690  0.20610  Biso   1.000  N
  N8       1.0000 0.40710  0.69310  0.79390  Biso   1.000  N
  N9       1.0000 0.22600  0.55210  0.26160  Biso   1.000  N
  N10      1.0000 0.77400  0.44790  0.73840  Biso   1.000  N
  N11      1.0000 0.11280  0.90340  0.15530  Biso   1.000  N
  N12      1.0000 0.88720  0.09660  0.84470  Biso   1.000  N
  N13      1.0000 0.90980  0.70990  0.31330  Biso   1.000  N
  N14      1.0000 0.09020  0.29010  0.68670  Biso   1.000  N
  N15      1.0000 0.12390  0.18170  0.06350  Biso   1.000  N
  N16      1.0000 0.87610  0.81830  0.93650  Biso   1.000  N
  N17      1.0000 0.09100  0.36670  0.03250  Biso   1.000  N
  N18      1.0000 0.90900  0.63330  0.96750  Biso   1.000  N
