data_image0
_cell_length_a       9.887
_cell_length_b       6.911
_cell_length_c       18.336
_cell_angle_alpha    90
_cell_angle_beta     90.178
_cell_angle_gamma    90

_symmetry_space_group_name_H-M    "P 1"
_symmetry_int_tables_number       1

loop_
  _symmetry_equiv_pos_as_xyz
  'x, y, z'

loop_
  _atom_site_label
  _atom_site_occupancy
  _atom_site_fract_x
  _atom_site_fract_y
  _atom_site_fract_z
  _atom_site_thermal_displace_type
  _atom_site_B_iso_or_equiv
  _atom_site_type_symbol
  Cu1      1.0000 0.40734  0.17097  0.20339  Biso   1.000  Cu
  Cu2      1.0000 0.09266  0.67097  0.29661  Biso   1.000  Cu
  Cu3      1.0000 0.59266  0.82903  0.79661  Biso   1.000  Cu
  Cu4      1.0000 0.90734  0.32903  0.70339  Biso   1.000  Cu
  Cu5      1.0000 0.13166  0.24927  0.41627  Biso   1.000  Cu
  Cu6      1.0000 0.36834  0.74927  0.08373  Biso   1.000  Cu
  Cu7      1.0000 0.86834  0.75073  0.58373  Biso   1.000  Cu
  Cu8      1.0000 0.63166  0.25073  0.91627  Biso   1.000  Cu
  C1       1.0000 0.22790  0.21820  0.33200  Biso   1.000  C
  C2       1.0000 0.27210  0.71820  0.16800  Biso   1.000  C
  C3       1.0000 0.77210  0.78180  0.66800  Biso   1.000  C
  C4       1.0000 0.72790  0.28180  0.83200  Biso   1.000  C
  C5       1.0000 0.67190  0.12100  0.13930  Biso   1.000  C
  C6       1.0000 0.82810  0.62100  0.36070  Biso   1.000  C
  C7       1.0000 0.32810  0.87900  0.86070  Biso   1.000  C
  C8       1.0000 0.17190  0.37900  0.63930  Biso   1.000  C
  C9       1.0000 0.74220  0.06760  0.20190  Biso   1.000  C
  C10      1.0000 0.75780  0.56760  0.29810  Biso   1.000  C
  C11      1.0000 0.25780  0.93240  0.79810  Biso   1.000  C
  C12      1.0000 0.24220  0.43240  0.70190  Biso   1.000  C
  H1       1.0000 0.69860  0.05340  0.24640  Biso   1.000  H
  H2       1.0000 0.80140  0.55340  0.25360  Biso   1.000  H
  H3       1.0000 0.30140  0.94660  0.75360  Biso   1.000  H
  H4       1.0000 0.19860  0.44660  0.74640  Biso   1.000  H
  C13      1.0000 0.87810  0.03700  0.19500  Biso   1.000  C
  C14      1.0000 0.62190  0.53700  0.30500  Biso   1.000  C
  C15      1.0000 0.12190  0.96300  0.80500  Biso   1.000  C
  C16      1.0000 0.37810  0.46300  0.69500  Biso   1.000  C
  H5       1.0000 0.92810  0.00200  0.23590  Biso   1.000  H
  H6       1.0000 0.57190  0.50200  0.26410  Biso   1.000  H
  H7       1.0000 0.07190  0.99800  0.76410  Biso   1.000  H
  H8       1.0000 0.42810  0.49800  0.73590  Biso   1.000  H
  C17      1.0000 0.94360  0.05680  0.12830  Biso   1.000  C
  C18      1.0000 0.55640  0.55680  0.37170  Biso   1.000  C
  C19      1.0000 0.05640  0.94320  0.87170  Biso   1.000  C
  C20      1.0000 0.44360  0.44320  0.62830  Biso   1.000  C
  H9       1.0000 0.03630  0.03540  0.12590  Biso   1.000  H
  H10      1.0000 0.46370  0.53540  0.37410  Biso   1.000  H
  H11      1.0000 0.96370  0.96460  0.87410  Biso   1.000  H
  H12      1.0000 0.53630  0.46460  0.62590  Biso   1.000  H
  C21      1.0000 0.87510  0.10690  0.06620  Biso   1.000  C
  C22      1.0000 0.62490  0.60690  0.43380  Biso   1.000  C
  C23      1.0000 0.12490  0.89310  0.93380  Biso   1.000  C
  C24      1.0000 0.37510  0.39310  0.56620  Biso   1.000  C
  H13      1.0000 0.91920  0.11940  0.02180  Biso   1.000  H
  H14      1.0000 0.58080  0.61940  0.47820  Biso   1.000  H
  H15      1.0000 0.08080  0.88060  0.97820  Biso   1.000  H
  H16      1.0000 0.41920  0.38060  0.52180  Biso   1.000  H
  C25      1.0000 0.73630  0.13850  0.07250  Biso   1.000  C
  C26      1.0000 0.76370  0.63850  0.42750  Biso   1.000  C
  C27      1.0000 0.26370  0.86150  0.92750  Biso   1.000  C
  C28      1.0000 0.23630  0.36150  0.57250  Biso   1.000  C
  C29      1.0000 0.52660  0.20750  0.05680  Biso   1.000  C
  C30      1.0000 0.97340  0.70750  0.44320  Biso   1.000  C
  C31      1.0000 0.47340  0.79250  0.94320  Biso   1.000  C
  C32      1.0000 0.02660  0.29250  0.55680  Biso   1.000  C
  C33      1.0000 0.40640  0.27030  0.01770  Biso   1.000  C
  C34      1.0000 0.09360  0.77030  0.48230  Biso   1.000  C
  C35      1.0000 0.59360  0.72970  0.98230  Biso   1.000  C
  C36      1.0000 0.90640  0.22970  0.51770  Biso   1.000  C
  C37      1.0000 0.28010  0.30470  0.04830  Biso   1.000  C
  C38      1.0000 0.21990  0.80470  0.45170  Biso   1.000  C
  C39      1.0000 0.71990  0.69530  0.95170  Biso   1.000  C
  C40      1.0000 0.78010  0.19530  0.54830  Biso   1.000  C
  H17      1.0000 0.26690  0.28690  0.09800  Biso   1.000  H
  H18      1.0000 0.23310  0.78690  0.40200  Biso   1.000  H
  H19      1.0000 0.73310  0.71310  0.90200  Biso   1.000  H
  H20      1.0000 0.76690  0.21310  0.59800  Biso   1.000  H
  C41      1.0000 0.17620  0.36440  0.00530  Biso   1.000  C
  C42      1.0000 0.32380  0.86440  0.49470  Biso   1.000  C
  C43      1.0000 0.82380  0.63560  0.99470  Biso   1.000  C
  C44      1.0000 0.67620  0.13560  0.50530  Biso   1.000  C
  H21      1.0000 0.09190  0.38870  0.02580  Biso   1.000  H
  H22      1.0000 0.40810  0.88870  0.47420  Biso   1.000  H
  H23      1.0000 0.90810  0.61130  0.97420  Biso   1.000  H
  H24      1.0000 0.59190  0.11130  0.52580  Biso   1.000  H
  C45      1.0000 0.19530  0.38910  0.93120  Biso   1.000  C
  C46      1.0000 0.30470  0.88910  0.56880  Biso   1.000  C
  C47      1.0000 0.80470  0.61090  0.06880  Biso   1.000  C
  C48      1.0000 0.69530  0.11090  0.43120  Biso   1.000  C
  H25      1.0000 0.12490  0.42770  0.90070  Biso   1.000  H
  H26      1.0000 0.37510  0.92770  0.59930  Biso   1.000  H
  H27      1.0000 0.87510  0.57230  0.09930  Biso   1.000  H
  H28      1.0000 0.62490  0.07230  0.40070  Biso   1.000  H
  C49      1.0000 0.32390  0.35390  0.90430  Biso   1.000  C
  C50      1.0000 0.17610  0.85390  0.59570  Biso   1.000  C
  C51      1.0000 0.67610  0.64610  0.09570  Biso   1.000  C
  C52      1.0000 0.82390  0.14610  0.40430  Biso   1.000  C
  H29      1.0000 0.33900  0.37020  0.85460  Biso   1.000  H
  H30      1.0000 0.16100  0.87020  0.64540  Biso   1.000  H
  H31      1.0000 0.66100  0.62980  0.14540  Biso   1.000  H
  H32      1.0000 0.83900  0.12980  0.35460  Biso   1.000  H
  N1       1.0000 0.29390  0.19290  0.28110  Biso   1.000  N
  N2       1.0000 0.20610  0.69290  0.21890  Biso   1.000  N
  N3       1.0000 0.70610  0.80710  0.71890  Biso   1.000  N
  N4       1.0000 0.79390  0.30710  0.78110  Biso   1.000  N
  N5       1.0000 0.53590  0.16660  0.12980  Biso   1.000  N
  N6       1.0000 0.96410  0.66660  0.37020  Biso   1.000  N
  N7       1.0000 0.46410  0.83340  0.87020  Biso   1.000  N
  N8       1.0000 0.03590  0.33340  0.62980  Biso   1.000  N
  N9       1.0000 0.64280  0.19130  0.02110  Biso   1.000  N
  N10      1.0000 0.85720  0.69130  0.47890  Biso   1.000  N
  N11      1.0000 0.35720  0.80870  0.97890  Biso   1.000  N
  N12      1.0000 0.14280  0.30870  0.52110  Biso   1.000  N
  N13      1.0000 0.42630  0.29810  0.94610  Biso   1.000  N
  N14      1.0000 0.07370  0.79810  0.55390  Biso   1.000  N
  N15      1.0000 0.57370  0.70190  0.05390  Biso   1.000  N
  N16      1.0000 0.92630  0.20190  0.44610  Biso   1.000  N
