data_image0
_cell_length_a       12.796
_cell_length_b       13.742
_cell_length_c       14.772
_cell_angle_alpha    103.362
_cell_angle_beta     99.382
_cell_angle_gamma    90.307

_symmetry_space_group_name_H-M    "P 1"
_symmetry_int_tables_number       1

loop_
  _symmetry_equiv_pos_as_xyz
  'x, y, z'

loop_
  _atom_site_label
  _atom_site_occupancy
  _atom_site_fract_x
  _atom_site_fract_y
  _atom_site_fract_z
  _atom_site_thermal_displace_type
  _atom_site_B_iso_or_equiv
  _atom_site_type_symbol
  Cu1      1.0000 0.24999  0.13468  0.99664  Biso   1.000  Cu
  Cu2      1.0000 0.75001  0.86532  0.00336  Biso   1.000  Cu
  Cu3      1.0000 0.57515  0.33862  0.04266  Biso   1.000  Cu
  Cu4      1.0000 0.42485  0.66138  0.95734  Biso   1.000  Cu
  Cu5      1.0000 0.92783  0.31763  0.95902  Biso   1.000  Cu
  Cu6      1.0000 0.07217  0.68237  0.04098  Biso   1.000  Cu
  C1       1.0000 0.45390  0.26190  0.02670  Biso   1.000  C
  C2       1.0000 0.54610  0.73810  0.97330  Biso   1.000  C
  C3       1.0000 0.04860  0.25050  0.97200  Biso   1.000  C
  C4       1.0000 0.95140  0.74950  0.02800  Biso   1.000  C
  C5       1.0000 0.35070  0.97170  0.86390  Biso   1.000  C
  C6       1.0000 0.64930  0.02830  0.13610  Biso   1.000  C
  H1       1.0000 0.40930  0.01630  0.87830  Biso   1.000  H
  H2       1.0000 0.59070  0.98370  0.12170  Biso   1.000  H
  C7       1.0000 0.36090  0.87660  0.81380  Biso   1.000  C
  C8       1.0000 0.63910  0.12340  0.18620  Biso   1.000  C
  H3       1.0000 0.42570  0.85780  0.79610  Biso   1.000  H
  H4       1.0000 0.57430  0.14220  0.20390  Biso   1.000  H
  C9       1.0000 0.27590  0.80800  0.78900  Biso   1.000  C
  C10      1.0000 0.72410  0.19200  0.21100  Biso   1.000  C
  C11      1.0000 0.18440  0.84140  0.81820  Biso   1.000  C
  C12      1.0000 0.81560  0.15860  0.18180  Biso   1.000  C
  H5       1.0000 0.12470  0.79830  0.80410  Biso   1.000  H
  H6       1.0000 0.87530  0.20170  0.19590  Biso   1.000  H
  C13      1.0000 0.17940  0.93720  0.86780  Biso   1.000  C
  C14      1.0000 0.82060  0.06280  0.13220  Biso   1.000  C
  H7       1.0000 0.11480  0.95760  0.88520  Biso   1.000  H
  H8       1.0000 0.88520  0.04240  0.11480  Biso   1.000  H
  C15      1.0000 0.28480  0.70700  0.73610  Biso   1.000  C
  C16      1.0000 0.71520  0.29300  0.26390  Biso   1.000  C
  C17      1.0000 0.34100  0.56810  0.66540  Biso   1.000  C
  C18      1.0000 0.65900  0.43190  0.33460  Biso   1.000  C
  C19      1.0000 0.23190  0.55390  0.65520  Biso   1.000  C
  C20      1.0000 0.76810  0.44610  0.34480  Biso   1.000  C
  C21      1.0000 0.17830  0.46330  0.60610  Biso   1.000  C
  C22      1.0000 0.82170  0.53670  0.39390  Biso   1.000  C
  H9       1.0000 0.10490  0.45520  0.59870  Biso   1.000  H
  H10      1.0000 0.89510  0.54480  0.40130  Biso   1.000  H
  C23      1.0000 0.23870  0.38730  0.56970  Biso   1.000  C
  C24      1.0000 0.76130  0.61270  0.43030  Biso   1.000  C
  H11      1.0000 0.20580  0.32540  0.53840  Biso   1.000  H
  H12      1.0000 0.79420  0.67460  0.46160  Biso   1.000  H
  C25      1.0000 0.34860  0.39980  0.57810  Biso   1.000  C
  C26      1.0000 0.65140  0.60020  0.42190  Biso   1.000  C
  H13      1.0000 0.38680  0.34670  0.55090  Biso   1.000  H
  H14      1.0000 0.61320  0.65330  0.44910  Biso   1.000  H
  C27      1.0000 0.40160  0.48920  0.62600  Biso   1.000  C
  C28      1.0000 0.59840  0.51080  0.37400  Biso   1.000  C
  H15      1.0000 0.47480  0.49710  0.63190  Biso   1.000  H
  H16      1.0000 0.52520  0.50290  0.36810  Biso   1.000  H
  C29      1.0000 0.32070  0.00100  0.12400  Biso   1.000  C
  C30      1.0000 0.67930  0.99900  0.87600  Biso   1.000  C
  H17      1.0000 0.38420  0.01180  0.10410  Biso   1.000  H
  H18      1.0000 0.61580  0.98820  0.89590  Biso   1.000  H
  C31      1.0000 0.31730  0.92970  0.17520  Biso   1.000  C
  C32      1.0000 0.68270  0.07030  0.82480  Biso   1.000  C
  H19      1.0000 0.37620  0.89260  0.18780  Biso   1.000  H
  H20      1.0000 0.62380  0.10740  0.81220  Biso   1.000  H
  C33      1.0000 0.22500  0.91420  0.20770  Biso   1.000  C
  C34      1.0000 0.77500  0.08580  0.79230  Biso   1.000  C
  C35      1.0000 0.14090  0.97260  0.18600  Biso   1.000  C
  C36      1.0000 0.85910  0.02740  0.81400  Biso   1.000  C
  H21      1.0000 0.07760  0.96590  0.20770  Biso   1.000  H
  H22      1.0000 0.92240  0.03410  0.79230  Biso   1.000  H
  C37      1.0000 0.15100  0.04020  0.13260  Biso   1.000  C
  C38      1.0000 0.84900  0.95980  0.86740  Biso   1.000  C
  H23      1.0000 0.09280  0.07730  0.11770  Biso   1.000  H
  H24      1.0000 0.90720  0.92270  0.88230  Biso   1.000  H
  C39      1.0000 0.21680  0.84100  0.26390  Biso   1.000  C
  C40      1.0000 0.78320  0.15900  0.73610  Biso   1.000  C
  C41      1.0000 0.15960  0.74060  0.33790  Biso   1.000  C
  C42      1.0000 0.84040  0.25940  0.66210  Biso   1.000  C
  C43      1.0000 0.09840  0.68530  0.37970  Biso   1.000  C
  C44      1.0000 0.90160  0.31470  0.62030  Biso   1.000  C
  H25      1.0000 0.02600  0.69360  0.37670  Biso   1.000  H
  H26      1.0000 0.97400  0.30640  0.62330  Biso   1.000  H
  C45      1.0000 0.14920  0.61790  0.42550  Biso   1.000  C
  C46      1.0000 0.85080  0.38210  0.57450  Biso   1.000  C
  H27      1.0000 0.11000  0.57940  0.45330  Biso   1.000  H
  H28      1.0000 0.89000  0.42060  0.54670  Biso   1.000  H
  C47      1.0000 0.25770  0.60580  0.43140  Biso   1.000  C
  C48      1.0000 0.74230  0.39420  0.56860  Biso   1.000  C
  H29      1.0000 0.28920  0.56010  0.46380  Biso   1.000  H
  H30      1.0000 0.71080  0.43990  0.53620  Biso   1.000  H
  C49      1.0000 0.31980  0.65920  0.39090  Biso   1.000  C
  C50      1.0000 0.68020  0.34080  0.60910  Biso   1.000  C
  H31      1.0000 0.39230  0.65040  0.39400  Biso   1.000  H
  H32      1.0000 0.60770  0.34960  0.60600  Biso   1.000  H
  C51      1.0000 0.26740  0.72790  0.34450  Biso   1.000  C
  C52      1.0000 0.73260  0.27210  0.65550  Biso   1.000  C
  C53      1.0000 0.67470  0.53860  0.13730  Biso   1.000  C
  C54      1.0000 0.32530  0.46140  0.86270  Biso   1.000  C
  H33      1.0000 0.73520  0.50560  0.12250  Biso   1.000  H
  H34      1.0000 0.26480  0.49440  0.87750  Biso   1.000  H
  C55      1.0000 0.68700  0.63630  0.18550  Biso   1.000  C
  C56      1.0000 0.31300  0.36370  0.81450  Biso   1.000  C
  H35      1.0000 0.75420  0.66790  0.20150  Biso   1.000  H
  H36      1.0000 0.24580  0.33210  0.79850  Biso   1.000  H
  C57      1.0000 0.60050  0.68880  0.21070  Biso   1.000  C
  C58      1.0000 0.39950  0.31120  0.78930  Biso   1.000  C
  C59      1.0000 0.50370  0.63440  0.18210  Biso   1.000  C
  C60      1.0000 0.49630  0.36560  0.81790  Biso   1.000  C
  H37      1.0000 0.44210  0.66520  0.19680  Biso   1.000  H
  H38      1.0000 0.55790  0.33480  0.80320  Biso   1.000  H
  C61      1.0000 0.49760  0.53730  0.13320  Biso   1.000  C
  C62      1.0000 0.50240  0.46270  0.86680  Biso   1.000  C
  H39      1.0000 0.43110  0.50430  0.11510  Biso   1.000  H
  H40      1.0000 0.56890  0.49570  0.88490  Biso   1.000  H
  C63      1.0000 0.60920  0.79090  0.26500  Biso   1.000  C
  C64      1.0000 0.39080  0.20910  0.73500  Biso   1.000  C
  C65      1.0000 0.68100  0.94000  0.34010  Biso   1.000  C
  C66      1.0000 0.31900  0.06000  0.65990  Biso   1.000  C
  C67      1.0000 0.74460  0.02680  0.37950  Biso   1.000  C
  C68      1.0000 0.25540  0.97320  0.62050  Biso   1.000  C
  H41      1.0000 0.81600  0.02920  0.37430  Biso   1.000  H
  H42      1.0000 0.18400  0.97080  0.62570  Biso   1.000  H
  C69      1.0000 0.69810  0.10790  0.42600  Biso   1.000  C
  C70      1.0000 0.30190  0.89210  0.57400  Biso   1.000  C
  H43      1.0000 0.73870  0.16660  0.45410  Biso   1.000  H
  H44      1.0000 0.26130  0.83340  0.54590  Biso   1.000  H
  C71      1.0000 0.59060  0.10440  0.43230  Biso   1.000  C
  C72      1.0000 0.40940  0.89560  0.56770  Biso   1.000  C
  H45      1.0000 0.56130  0.16120  0.46440  Biso   1.000  H
  H46      1.0000 0.43870  0.83880  0.53560  Biso   1.000  H
  C73      1.0000 0.52700  0.01980  0.39250  Biso   1.000  C
  C74      1.0000 0.47300  0.98020  0.60750  Biso   1.000  C
  H47      1.0000 0.45530  0.01850  0.39670  Biso   1.000  H
  H48      1.0000 0.54470  0.98150  0.60330  Biso   1.000  H
  C75      1.0000 0.57340  0.93590  0.34550  Biso   1.000  C
  C76      1.0000 0.42660  0.06410  0.65450  Biso   1.000  C
  C77      1.0000 0.00400  0.46990  0.86270  Biso   1.000  C
  C78      1.0000 0.99600  0.53010  0.13730  Biso   1.000  C
  H49      1.0000 0.07030  0.44540  0.87890  Biso   1.000  H
  H50      1.0000 0.92970  0.55460  0.12110  Biso   1.000  H
  C79      1.0000 0.99620  0.54270  0.81260  Biso   1.000  C
  C80      1.0000 0.00380  0.45730  0.18740  Biso   1.000  C
  H51      1.0000 0.05660  0.56660  0.79580  Biso   1.000  H
  H52      1.0000 0.94340  0.43340  0.20420  Biso   1.000  H
  C81      1.0000 0.90070  0.57980  0.78740  Biso   1.000  C
  C82      1.0000 0.09930  0.42020  0.21260  Biso   1.000  C
  C83      1.0000 0.81440  0.54240  0.81330  Biso   1.000  C
  C84      1.0000 0.18560  0.45760  0.18670  Biso   1.000  C
  H53      1.0000 0.74770  0.56610  0.79730  Biso   1.000  H
  H54      1.0000 0.25230  0.43390  0.20270  Biso   1.000  H
  C85      1.0000 0.82670  0.46940  0.86320  Biso   1.000  C
  C86      1.0000 0.17330  0.53060  0.13680  Biso   1.000  C
  H55      1.0000 0.76650  0.44450  0.87960  Biso   1.000  H
  H56      1.0000 0.23350  0.55550  0.12040  Biso   1.000  H
  C87      1.0000 0.89230  0.65730  0.73290  Biso   1.000  C
  C88      1.0000 0.10770  0.34270  0.26710  Biso   1.000  C
  C89      1.0000 0.92530  0.75920  0.64960  Biso   1.000  C
  C90      1.0000 0.07470  0.24080  0.35040  Biso   1.000  C
  C91      1.0000 0.96980  0.81690  0.59840  Biso   1.000  C
  C92      1.0000 0.03020  0.18310  0.40160  Biso   1.000  C
  H57      1.0000 0.04050  0.81210  0.59110  Biso   1.000  H
  H58      1.0000 0.95950  0.18790  0.40890  Biso   1.000  H
  C93      1.0000 0.90570  0.88100  0.55930  Biso   1.000  C
  C94      1.0000 0.09430  0.11900  0.44070  Biso   1.000  C
  H59      1.0000 0.93340  0.91910  0.52360  Biso   1.000  H
  H60      1.0000 0.06660  0.08090  0.47640  Biso   1.000  H
  C95      1.0000 0.80020  0.89100  0.57130  Biso   1.000  C
  C96      1.0000 0.19980  0.10900  0.42870  Biso   1.000  C
  H61      1.0000 0.75970  0.93650  0.54470  Biso   1.000  H
  H62      1.0000 0.24030  0.06350  0.45530  Biso   1.000  H
  C97      1.0000 0.75560  0.83550  0.62110  Biso   1.000  C
  C98      1.0000 0.24440  0.16450  0.37890  Biso   1.000  C
  H63      1.0000 0.68480  0.84120  0.62820  Biso   1.000  H
  H64      1.0000 0.31520  0.15880  0.37180  Biso   1.000  H
  C99      1.0000 0.81980  0.76960  0.66140  Biso   1.000  C
  C100     1.0000 0.18020  0.23040  0.33860  Biso   1.000  C
  C101     1.0000 0.70790  0.31840  0.01520  Biso   1.000  C
  C102     1.0000 0.29210  0.68160  0.98480  Biso   1.000  C
  N1       1.0000 0.38260  0.20780  0.01640  Biso   1.000  N
  N2       1.0000 0.61740  0.79220  0.98360  Biso   1.000  N
  N3       1.0000 0.12090  0.19930  0.97760  Biso   1.000  N
  N4       1.0000 0.87910  0.80070  0.02240  Biso   1.000  N
  N5       1.0000 0.26120  0.00410  0.89320  Biso   1.000  N
  N6       1.0000 0.73880  0.99590  0.10680  Biso   1.000  N
  N7       1.0000 0.37290  0.66400  0.71510  Biso   1.000  N
  N8       1.0000 0.62710  0.33600  0.28490  Biso   1.000  N
  N9       1.0000 0.19640  0.64270  0.69950  Biso   1.000  N
  N10      1.0000 0.80360  0.35730  0.30050  Biso   1.000  N
  H65      1.0000 0.13160  0.65630  0.70390  Biso   1.000  H
  H66      1.0000 0.86840  0.34370  0.29610  Biso   1.000  H
  N11      1.0000 0.24020  0.05540  0.10090  Biso   1.000  N
  N12      1.0000 0.75980  0.94460  0.89910  Biso   1.000  N
  N13      1.0000 0.30300  0.79250  0.29660  Biso   1.000  N
  N14      1.0000 0.69700  0.20750  0.70340  Biso   1.000  N
  H67      1.0000 0.36730  0.80090  0.28870  Biso   1.000  H
  H68      1.0000 0.63270  0.19910  0.71130  Biso   1.000  H
  N15      1.0000 0.12900  0.81200  0.28800  Biso   1.000  N
  N16      1.0000 0.87100  0.18800  0.71200  Biso   1.000  N
  N17      1.0000 0.58150  0.48660  0.10960  Biso   1.000  N
  N18      1.0000 0.41850  0.51340  0.89040  Biso   1.000  N
  N19      1.0000 0.70010  0.84730  0.28880  Biso   1.000  N
  N20      1.0000 0.29990  0.15270  0.71120  Biso   1.000  N
  H69      1.0000 0.76040  0.82830  0.27410  Biso   1.000  H
  H70      1.0000 0.23960  0.17170  0.72590  Biso   1.000  H
  N21      1.0000 0.52990  0.84080  0.29910  Biso   1.000  N
  N22      1.0000 0.47010  0.15920  0.70090  Biso   1.000  N
  N23      1.0000 0.91930  0.43200  0.88960  Biso   1.000  N
  N24      1.0000 0.08070  0.56800  0.11040  Biso   1.000  N
  N25      1.0000 0.96920  0.68750  0.69630  Biso   1.000  N
  N26      1.0000 0.03080  0.31250  0.30370  Biso   1.000  N
  N27      1.0000 0.80040  0.70340  0.71260  Biso   1.000  N
  N28      1.0000 0.19960  0.29660  0.28740  Biso   1.000  N
  H71      1.0000 0.74090  0.69260  0.72920  Biso   1.000  H
  H72      1.0000 0.25910  0.30740  0.27080  Biso   1.000  H
  N29      1.0000 0.79100  0.31110  0.99260  Biso   1.000  N
  N30      1.0000 0.20900  0.68890  0.00740  Biso   1.000  N
  O1       1.0000 0.90310  0.82230  0.23660  Biso   1.000  O
  O2       1.0000 0.09690  0.17770  0.76340  Biso   1.000  O
  O3       1.0000 0.60040  0.70160  0.76480  Biso   1.000  O
  O4       1.0000 0.39960  0.29840  0.23520  Biso   1.000  O
  H73      1.0000 0.96580  0.81330  0.26070  Biso   1.000  H
  H74      1.0000 0.03420  0.18670  0.73930  Biso   1.000  H
  H75      1.0000 0.59640  0.71680  0.82320  Biso   1.000  H
  H76      1.0000 0.40360  0.28320  0.17680  Biso   1.000  H
  H77      1.0000 0.53370  0.69510  0.74660  Biso   1.000  H
  H78      1.0000 0.46630  0.30490  0.25340  Biso   1.000  H
  H79      1.0000 0.85040  0.84440  0.26350  Biso   1.000  H
  H80      1.0000 0.14960  0.15560  0.73650  Biso   1.000  H
