data_image0
_cell_length_a       8.4196
_cell_length_b       9.2078
_cell_length_c       9.39
_cell_angle_alpha    98.709
_cell_angle_beta     97.918
_cell_angle_gamma    109.316

_symmetry_space_group_name_H-M    "P 1"
_symmetry_int_tables_number       1

loop_
  _symmetry_equiv_pos_as_xyz
  'x, y, z'

loop_
  _atom_site_label
  _atom_site_occupancy
  _atom_site_fract_x
  _atom_site_fract_y
  _atom_site_fract_z
  _atom_site_thermal_displace_type
  _atom_site_B_iso_or_equiv
  _atom_site_type_symbol
  Cu1      1.0000 0.74109  0.19919  0.56075  Biso   1.000  Cu
  Cu2      1.0000 0.25891  0.80081  0.43925  Biso   1.000  Cu
  Cu3      1.0000 0.32150  0.29330  0.26922  Biso   1.000  Cu
  Cu4      1.0000 0.67850  0.70670  0.73078  Biso   1.000  Cu
  C1       1.0000 0.86990  0.11390  0.28300  Biso   1.000  C
  C2       1.0000 0.13010  0.88610  0.71700  Biso   1.000  C
  H1       1.0000 0.94240  0.08030  0.34250  Biso   1.000  H
  H2       1.0000 0.05760  0.91970  0.65750  Biso   1.000  H
  C3       1.0000 0.86060  0.08380  0.13530  Biso   1.000  C
  C4       1.0000 0.13940  0.91620  0.86470  Biso   1.000  C
  H3       1.0000 0.92970  0.03430  0.09600  Biso   1.000  H
  H4       1.0000 0.07030  0.96570  0.90400  Biso   1.000  H
  C5       1.0000 0.74960  0.12600  0.04380  Biso   1.000  C
  C6       1.0000 0.25040  0.87400  0.95620  Biso   1.000  C
  H5       1.0000 0.73960  0.10260  0.94230  Biso   1.000  H
  H6       1.0000 0.26040  0.89740  0.05770  Biso   1.000  H
  C7       1.0000 0.65170  0.20500  0.10640  Biso   1.000  C
  C8       1.0000 0.34830  0.79500  0.89360  Biso   1.000  C
  C9       1.0000 0.67600  0.23750  0.25760  Biso   1.000  C
  C10      1.0000 0.32400  0.76250  0.74240  Biso   1.000  C
  H7       1.0000 0.61730  0.29620  0.30070  Biso   1.000  H
  H8       1.0000 0.38270  0.70380  0.69930  Biso   1.000  H
  C11      1.0000 0.52340  0.24910  0.01980  Biso   1.000  C
  C12      1.0000 0.47660  0.75090  0.98020  Biso   1.000  C
  C13      1.0000 0.30930  0.32190  0.95480  Biso   1.000  C
  C14      1.0000 0.69070  0.67810  0.04520  Biso   1.000  C
  C15      1.0000 0.16870  0.37080  0.95010  Biso   1.000  C
  C16      1.0000 0.83130  0.62920  0.04990  Biso   1.000  C
  H9       1.0000 0.12470  0.38940  0.03380  Biso   1.000  H
  H10      1.0000 0.87530  0.61060  0.96620  Biso   1.000  H
  C17      1.0000 0.09800  0.39030  0.81650  Biso   1.000  C
  C18      1.0000 0.90200  0.60970  0.18350  Biso   1.000  C
  H11      1.0000 0.00450  0.42310  0.80970  Biso   1.000  H
  H12      1.0000 0.99550  0.57690  0.19030  Biso   1.000  H
  C19      1.0000 0.16450  0.36170  0.69050  Biso   1.000  C
  C20      1.0000 0.83550  0.63830  0.30950  Biso   1.000  C
  H13      1.0000 0.11250  0.37510  0.60200  Biso   1.000  H
  H14      1.0000 0.88750  0.62490  0.39800  Biso   1.000  H
  C21      1.0000 0.30170  0.31530  0.69290  Biso   1.000  C
  C22      1.0000 0.69830  0.68470  0.30710  Biso   1.000  C
  H15      1.0000 0.34520  0.29730  0.60880  Biso   1.000  H
  H16      1.0000 0.65480  0.70270  0.39120  Biso   1.000  H
  C23      1.0000 0.37450  0.29580  0.82900  Biso   1.000  C
  C24      1.0000 0.62550  0.70420  0.17100  Biso   1.000  C
  C25      1.0000 0.72040  0.39740  0.61410  Biso   1.000  C
  C26      1.0000 0.27960  0.60260  0.38590  Biso   1.000  C
  C27      1.0000 0.72260  0.01890  0.63510  Biso   1.000  C
  C28      1.0000 0.27740  0.98110  0.36490  Biso   1.000  C
  N1       1.0000 0.77840  0.19030  0.34640  Biso   1.000  N
  N2       1.0000 0.22160  0.80970  0.65360  Biso   1.000  N
  N3       1.0000 0.51100  0.25040  0.87380  Biso   1.000  N
  N4       1.0000 0.48900  0.74960  0.12620  Biso   1.000  N
  N5       1.0000 0.40390  0.29050  0.07240  Biso   1.000  N
  N6       1.0000 0.59610  0.70950  0.92760  Biso   1.000  N
  N7       1.0000 0.70830  0.51530  0.65120  Biso   1.000  N
  N8       1.0000 0.29170  0.48470  0.34880  Biso   1.000  N
  N9       1.0000 0.71310  0.90570  0.67640  Biso   1.000  N
  N10      1.0000 0.28690  0.09430  0.32360  Biso   1.000  N
  H17      1.0000 0.57800  0.23700  0.82500  Biso   1.000  H
  H18      1.0000 0.42200  0.76300  0.17500  Biso   1.000  H
