data_image0
_cell_length_a       11.4797
_cell_length_b       22.8418
_cell_length_c       11.4225
_cell_angle_alpha    90
_cell_angle_beta     111.217
_cell_angle_gamma    90

_symmetry_space_group_name_H-M    "P 1"
_symmetry_int_tables_number       1

loop_
  _symmetry_equiv_pos_as_xyz
  'x, y, z'

loop_
  _atom_site_label
  _atom_site_occupancy
  _atom_site_fract_x
  _atom_site_fract_y
  _atom_site_fract_z
  _atom_site_thermal_displace_type
  _atom_site_B_iso_or_equiv
  _atom_site_type_symbol
  W1       1.0000 0.67180  0.52570  0.38219  Biso   1.000  W
  W2       1.0000 0.32820  0.02570  0.11781  Biso   1.000  W
  W3       1.0000 0.32820  0.47430  0.61781  Biso   1.000  W
  W4       1.0000 0.67180  0.97430  0.88219  Biso   1.000  W
  O1       1.0000 0.69680  0.48550  0.53460  Biso   1.000  O
  O2       1.0000 0.30320  0.98550  0.96540  Biso   1.000  O
  O3       1.0000 0.30320  0.51450  0.46540  Biso   1.000  O
  O4       1.0000 0.69680  0.01450  0.03460  Biso   1.000  O
  O5       1.0000 0.73590  0.59380  0.48110  Biso   1.000  O
  O6       1.0000 0.26410  0.09380  0.01890  Biso   1.000  O
  O7       1.0000 0.26410  0.40620  0.51890  Biso   1.000  O
  O8       1.0000 0.73590  0.90620  0.98110  Biso   1.000  O
  O9       1.0000 0.72100  0.56120  0.25740  Biso   1.000  O
  O10      1.0000 0.27900  0.06120  0.24260  Biso   1.000  O
  O11      1.0000 0.27900  0.43880  0.74260  Biso   1.000  O
  O12      1.0000 0.72100  0.93880  0.75740  Biso   1.000  O
  O13      1.0000 0.68330  0.45200  0.30990  Biso   1.000  O
  O14      1.0000 0.31670  0.95200  0.19010  Biso   1.000  O
  O15      1.0000 0.31670  0.54800  0.69010  Biso   1.000  O
  O16      1.0000 0.68330  0.04800  0.80990  Biso   1.000  O
  O17      1.0000 0.87840  0.47560  0.47570  Biso   1.000  O
  O18      1.0000 0.12160  0.97560  0.02430  Biso   1.000  O
  O19      1.0000 0.12160  0.52440  0.52430  Biso   1.000  O
  O20      1.0000 0.87840  0.02440  0.97570  Biso   1.000  O
  O21      1.0000 0.51800  0.53660  0.32630  Biso   1.000  O
  O22      1.0000 0.48200  0.03660  0.17370  Biso   1.000  O
  O23      1.0000 0.48200  0.46340  0.67370  Biso   1.000  O
  O24      1.0000 0.51800  0.96340  0.82630  Biso   1.000  O
  O25      1.0000 0.89290  0.54290  0.44250  Biso   1.000  O
  O26      1.0000 0.10710  0.04290  0.05750  Biso   1.000  O
  O27      1.0000 0.10710  0.45710  0.55750  Biso   1.000  O
  O28      1.0000 0.89290  0.95710  0.94250  Biso   1.000  O
  W5       1.0000 0.80831  0.43238  0.64558  Biso   1.000  W
  W6       1.0000 0.19169  0.93238  0.85442  Biso   1.000  W
  W7       1.0000 0.19169  0.56762  0.35442  Biso   1.000  W
  W8       1.0000 0.80831  0.06762  0.14558  Biso   1.000  W
  W9       1.0000 0.87430  0.63670  0.53760  Biso   1.000  W
  W10      1.0000 0.12570  0.13670  0.96240  Biso   1.000  W
  W11      1.0000 0.12570  0.36330  0.46240  Biso   1.000  W
  W12      1.0000 0.87430  0.86330  0.03760  Biso   1.000  W
  W13      1.0000 0.85830  0.59250  0.24420  Biso   1.000  W
  W14      1.0000 0.14170  0.09250  0.25580  Biso   1.000  W
  W15      1.0000 0.14170  0.40750  0.75580  Biso   1.000  W
  W16      1.0000 0.85830  0.90750  0.74420  Biso   1.000  W
  W17      1.0000 0.79051  0.38610  0.34153  Biso   1.000  W
  W18      1.0000 0.20949  0.88610  0.15847  Biso   1.000  W
  W19      1.0000 0.20949  0.61390  0.65847  Biso   1.000  W
  W20      1.0000 0.79051  0.11390  0.84153  Biso   1.000  W
  P1       1.0000 0.00000  0.50000  0.50000  Biso   1.000  P
  P2       1.0000 0.00000  0.00000  0.00000  Biso   1.000  P
  O29      1.0000 0.98980  0.47770  0.62780  Biso   1.000  O
  O30      1.0000 0.01020  0.97770  0.87220  Biso   1.000  O
  O31      1.0000 0.01020  0.52230  0.37220  Biso   1.000  O
  O32      1.0000 0.98980  0.02230  0.12780  Biso   1.000  O
  O33      1.0000 0.97600  0.44600  0.41360  Biso   1.000  O
  O34      1.0000 0.02400  0.94600  0.08640  Biso   1.000  O
  O35      1.0000 0.02400  0.55400  0.58640  Biso   1.000  O
  O36      1.0000 0.97600  0.05400  0.91360  Biso   1.000  O
  O37      1.0000 0.78310  0.38390  0.50410  Biso   1.000  O
  O38      1.0000 0.21690  0.88390  0.99590  Biso   1.000  O
  O39      1.0000 0.21690  0.61610  0.49590  Biso   1.000  O
  O40      1.0000 0.78310  0.11610  0.00410  Biso   1.000  O
  O41      1.0000 0.96400  0.39340  0.72170  Biso   1.000  O
  O42      1.0000 0.03600  0.89340  0.77830  Biso   1.000  O
  O43      1.0000 0.03600  0.60660  0.27830  Biso   1.000  O
  O44      1.0000 0.96400  0.10660  0.22170  Biso   1.000  O
  O45      1.0000 0.71970  0.39840  0.71240  Biso   1.000  O
  O46      1.0000 0.28030  0.89840  0.78760  Biso   1.000  O
  O47      1.0000 0.28030  0.60160  0.28760  Biso   1.000  O
  O48      1.0000 0.71970  0.10160  0.21240  Biso   1.000  O
  O49      1.0000 0.87980  0.49540  0.75540  Biso   1.000  O
  O50      1.0000 0.12020  0.99540  0.74460  Biso   1.000  O
  O51      1.0000 0.12020  0.50460  0.24460  Biso   1.000  O
  O52      1.0000 0.87980  0.00460  0.25540  Biso   1.000  O
  O53      1.0000 0.87450  0.64340  0.37510  Biso   1.000  O
  O54      1.0000 0.12550  0.14340  0.12490  Biso   1.000  O
  O55      1.0000 0.12550  0.35660  0.62490  Biso   1.000  O
  O56      1.0000 0.87450  0.85660  0.87510  Biso   1.000  O
  O57      1.0000 0.82570  0.70390  0.56230  Biso   1.000  O
  O58      1.0000 0.17430  0.20390  0.93770  Biso   1.000  O
  O59      1.0000 0.17430  0.29610  0.43770  Biso   1.000  O
  O60      1.0000 0.82570  0.79610  0.06230  Biso   1.000  O
  O61      1.0000 0.91550  0.60330  0.70050  Biso   1.000  O
  O62      1.0000 0.08450  0.10330  0.79950  Biso   1.000  O
  O63      1.0000 0.08450  0.39670  0.29950  Biso   1.000  O
  O64      1.0000 0.91550  0.89670  0.20050  Biso   1.000  O
  O65      1.0000 0.05510  0.65370  0.59440  Biso   1.000  O
  O66      1.0000 0.94490  0.15370  0.90560  Biso   1.000  O
  O67      1.0000 0.94490  0.34630  0.40560  Biso   1.000  O
  O68      1.0000 0.05510  0.84630  0.09440  Biso   1.000  O
  O69      1.0000 0.80350  0.64010  0.11790  Biso   1.000  O
  O70      1.0000 0.19650  0.14010  0.38210  Biso   1.000  O
  O71      1.0000 0.19650  0.35990  0.88210  Biso   1.000  O
  O72      1.0000 0.80350  0.85990  0.61790  Biso   1.000  O
  O73      1.0000 0.88060  0.52450  0.15810  Biso   1.000  O
  O74      1.0000 0.11940  0.02450  0.34190  Biso   1.000  O
  O75      1.0000 0.11940  0.47550  0.84190  Biso   1.000  O
  O76      1.0000 0.88060  0.97550  0.65810  Biso   1.000  O
  O77      1.0000 0.84280  0.41530  0.21320  Biso   1.000  O
  O78      1.0000 0.15720  0.91530  0.28680  Biso   1.000  O
  O79      1.0000 0.15720  0.58470  0.78680  Biso   1.000  O
  O80      1.0000 0.84280  0.08470  0.71320  Biso   1.000  O
  O81      1.0000 0.69290  0.33320  0.26680  Biso   1.000  O
  O82      1.0000 0.30710  0.83320  0.23320  Biso   1.000  O
  O83      1.0000 0.30710  0.66680  0.73320  Biso   1.000  O
  O84      1.0000 0.69290  0.16680  0.76680  Biso   1.000  O
  W21      1.0000 0.02490  0.54810  0.80370  Biso   1.000  W
  W22      1.0000 0.97510  0.04810  0.69630  Biso   1.000  W
  W23      1.0000 0.97510  0.45190  0.19630  Biso   1.000  W
  W24      1.0000 0.02490  0.95190  0.30370  Biso   1.000  W
  O85      1.0000 0.03010  0.56550  0.94850  Biso   1.000  O
  O86      1.0000 0.96990  0.06550  0.55150  Biso   1.000  O
  O87      1.0000 0.96990  0.43450  0.05150  Biso   1.000  O
  O88      1.0000 0.03010  0.93450  0.44850  Biso   1.000  O
  N1       1.0000 0.31190  0.34520  0.16550  Biso   1.000  N
  N2       1.0000 0.68810  0.84520  0.33450  Biso   1.000  N
  N3       1.0000 0.68810  0.65480  0.83450  Biso   1.000  N
  N4       1.0000 0.31190  0.15480  0.66550  Biso   1.000  N
  Cu1      1.0000 0.21688  0.26659  0.21392  Biso   1.000  Cu
  Cu2      1.0000 0.78312  0.76659  0.28608  Biso   1.000  Cu
  Cu3      1.0000 0.78312  0.73341  0.78608  Biso   1.000  Cu
  Cu4      1.0000 0.21688  0.23341  0.71392  Biso   1.000  Cu
  N5       1.0000 0.03970  0.27260  0.13010  Biso   1.000  N
  N6       1.0000 0.96030  0.77260  0.36990  Biso   1.000  N
  N7       1.0000 0.96030  0.72740  0.86990  Biso   1.000  N
  N8       1.0000 0.03970  0.22740  0.63010  Biso   1.000  N
  N9       1.0000 0.38390  0.25680  0.81480  Biso   1.000  N
  N10      1.0000 0.61610  0.75680  0.68520  Biso   1.000  N
  N11      1.0000 0.61610  0.74320  0.18520  Biso   1.000  N
  N12      1.0000 0.38390  0.24320  0.31480  Biso   1.000  N
  C1       1.0000 0.98490  0.29930  0.01970  Biso   1.000  C
  C2       1.0000 0.01510  0.79930  0.48030  Biso   1.000  C
  C3       1.0000 0.01510  0.70070  0.98030  Biso   1.000  C
  C4       1.0000 0.98490  0.20070  0.51970  Biso   1.000  C
  H1       1.0000 0.03550  0.31780  0.98330  Biso   1.000  H
  H2       1.0000 0.96450  0.81780  0.51670  Biso   1.000  H
  H3       1.0000 0.96450  0.68220  0.01670  Biso   1.000  H
  H4       1.0000 0.03550  0.18220  0.48330  Biso   1.000  H
  C5       1.0000 0.77970  0.27360  0.01050  Biso   1.000  C
  C6       1.0000 0.22030  0.77360  0.48950  Biso   1.000  C
  C7       1.0000 0.22030  0.72640  0.98950  Biso   1.000  C
  C8       1.0000 0.77970  0.22640  0.51050  Biso   1.000  C
  C9       1.0000 0.83760  0.24760  0.12550  Biso   1.000  C
  C10      1.0000 0.16240  0.74760  0.37450  Biso   1.000  C
  C11      1.0000 0.16240  0.75240  0.87450  Biso   1.000  C
  C12      1.0000 0.83760  0.25240  0.62550  Biso   1.000  C
  H5       1.0000 0.78940  0.22940  0.16500  Biso   1.000  H
  H6       1.0000 0.21060  0.72940  0.33500  Biso   1.000  H
  H7       1.0000 0.21060  0.77060  0.83500  Biso   1.000  H
  H8       1.0000 0.78940  0.27060  0.66500  Biso   1.000  H
  C13      1.0000 0.85860  0.30080  0.95760  Biso   1.000  C
  C14      1.0000 0.14140  0.80080  0.54240  Biso   1.000  C
  C15      1.0000 0.14140  0.69920  0.04240  Biso   1.000  C
  C16      1.0000 0.85860  0.19920  0.45760  Biso   1.000  C
  H9       1.0000 0.82500  0.31980  0.88060  Biso   1.000  H
  H10      1.0000 0.17500  0.81980  0.61940  Biso   1.000  H
  H11      1.0000 0.17500  0.68020  0.11940  Biso   1.000  H
  H12      1.0000 0.82500  0.18020  0.38060  Biso   1.000  H
  C17      1.0000 0.96500  0.24800  0.18300  Biso   1.000  C
  C18      1.0000 0.03500  0.74800  0.31700  Biso   1.000  C
  C19      1.0000 0.03500  0.75200  0.81700  Biso   1.000  C
  C20      1.0000 0.96500  0.25200  0.68300  Biso   1.000  C
  H13      1.0000 0.00080  0.23060  0.26160  Biso   1.000  H
  H14      1.0000 0.99920  0.73060  0.23840  Biso   1.000  H
  H15      1.0000 0.99920  0.76940  0.73840  Biso   1.000  H
  H16      1.0000 0.00080  0.26940  0.76160  Biso   1.000  H
  C21      1.0000 0.57560  0.30640  0.84480  Biso   1.000  C
  C22      1.0000 0.42440  0.80640  0.65520  Biso   1.000  C
  C23      1.0000 0.42440  0.69360  0.15520  Biso   1.000  C
  C24      1.0000 0.57560  0.19360  0.34480  Biso   1.000  C
  H17      1.0000 0.61650  0.33620  0.81940  Biso   1.000  H
  H18      1.0000 0.38350  0.83620  0.68060  Biso   1.000  H
  H19      1.0000 0.38350  0.66380  0.18060  Biso   1.000  H
  H20      1.0000 0.61650  0.16380  0.31940  Biso   1.000  H
  C25      1.0000 0.64230  0.26990  0.94620  Biso   1.000  C
  C26      1.0000 0.35770  0.76990  0.55380  Biso   1.000  C
  C27      1.0000 0.35770  0.73010  0.05380  Biso   1.000  C
  C28      1.0000 0.64230  0.23010  0.44620  Biso   1.000  C
  C29      1.0000 0.44980  0.29780  0.78370  Biso   1.000  C
  C30      1.0000 0.55020  0.79780  0.71630  Biso   1.000  C
  C31      1.0000 0.55020  0.70220  0.21630  Biso   1.000  C
  C32      1.0000 0.44980  0.20220  0.28370  Biso   1.000  C
  H21      1.0000 0.40800  0.32220  0.71630  Biso   1.000  H
  H22      1.0000 0.59200  0.82220  0.78370  Biso   1.000  H
  H23      1.0000 0.59200  0.67780  0.28370  Biso   1.000  H
  H24      1.0000 0.40800  0.17780  0.21630  Biso   1.000  H
  C33      1.0000 0.44700  0.22200  0.91090  Biso   1.000  C
  C34      1.0000 0.55300  0.72200  0.58910  Biso   1.000  C
  C35      1.0000 0.55300  0.77800  0.08910  Biso   1.000  C
  C36      1.0000 0.44700  0.27800  0.41090  Biso   1.000  C
  H25      1.0000 0.40350  0.19230  0.93300  Biso   1.000  H
  H26      1.0000 0.59650  0.69230  0.56700  Biso   1.000  H
  H27      1.0000 0.59650  0.80770  0.06700  Biso   1.000  H
  H28      1.0000 0.40350  0.30770  0.43300  Biso   1.000  H
  C37      1.0000 0.57400  0.22770  0.97940  Biso   1.000  C
  C38      1.0000 0.42600  0.72770  0.52060  Biso   1.000  C
  C39      1.0000 0.42600  0.77230  0.02060  Biso   1.000  C
  C40      1.0000 0.57400  0.27230  0.47940  Biso   1.000  C
  H29      1.0000 0.61280  0.20320  0.04740  Biso   1.000  H
  H30      1.0000 0.38720  0.70320  0.45260  Biso   1.000  H
  H31      1.0000 0.38720  0.79680  0.95260  Biso   1.000  H
  H32      1.0000 0.61280  0.29680  0.54740  Biso   1.000  H
  N13      1.0000 0.60410  0.55660  0.91110  Biso   1.000  N
  N14      1.0000 0.39590  0.05660  0.58890  Biso   1.000  N
  N15      1.0000 0.39590  0.44340  0.08890  Biso   1.000  N
  N16      1.0000 0.60410  0.94340  0.41110  Biso   1.000  N
  C41      1.0000 0.64900  0.49950  0.93020  Biso   1.000  C
  C42      1.0000 0.35100  0.99950  0.56980  Biso   1.000  C
  C43      1.0000 0.35100  0.50050  0.06980  Biso   1.000  C
  C44      1.0000 0.64900  0.00050  0.43020  Biso   1.000  C
  C45      1.0000 0.50470  0.57270  0.94630  Biso   1.000  C
  C46      1.0000 0.49530  0.07270  0.55370  Biso   1.000  C
  C47      1.0000 0.49530  0.42730  0.05370  Biso   1.000  C
  C48      1.0000 0.50470  0.92730  0.44630  Biso   1.000  C
  H33      1.0000 0.47470  0.61090  0.93350  Biso   1.000  H
  H34      1.0000 0.52530  0.11090  0.56650  Biso   1.000  H
  H35      1.0000 0.52530  0.38910  0.06650  Biso   1.000  H
  H36      1.0000 0.47470  0.88910  0.43350  Biso   1.000  H
  C49      1.0000 0.49510  0.47470  0.01980  Biso   1.000  C
  C50      1.0000 0.50490  0.97470  0.48020  Biso   1.000  C
  C51      1.0000 0.50490  0.52530  0.98020  Biso   1.000  C
  C52      1.0000 0.49510  0.02530  0.51980  Biso   1.000  C
  C53      1.0000 0.43220  0.42960  0.07490  Biso   1.000  C
  C54      1.0000 0.56780  0.92960  0.42510  Biso   1.000  C
  C55      1.0000 0.56780  0.57040  0.92510  Biso   1.000  C
  C56      1.0000 0.43220  0.07040  0.57490  Biso   1.000  C
  C57      1.0000 0.45020  0.53180  0.00060  Biso   1.000  C
  C58      1.0000 0.54980  0.03180  0.49940  Biso   1.000  C
  C59      1.0000 0.54980  0.46820  0.99940  Biso   1.000  C
  C60      1.0000 0.45020  0.96820  0.50060  Biso   1.000  C
  H37      1.0000 0.38370  0.54270  0.02420  Biso   1.000  H
  H38      1.0000 0.61630  0.04270  0.47580  Biso   1.000  H
  H39      1.0000 0.61630  0.45730  0.97580  Biso   1.000  H
  H40      1.0000 0.38370  0.95730  0.52420  Biso   1.000  H
  C61      1.0000 0.34720  0.44640  0.12960  Biso   1.000  C
  C62      1.0000 0.65280  0.94640  0.37040  Biso   1.000  C
  C63      1.0000 0.65280  0.55360  0.87040  Biso   1.000  C
  C64      1.0000 0.34720  0.05360  0.62960  Biso   1.000  C
  C65      1.0000 0.59440  0.45860  0.98460  Biso   1.000  C
  C66      1.0000 0.40560  0.95860  0.51540  Biso   1.000  C
  C67      1.0000 0.40560  0.54140  0.01540  Biso   1.000  C
  C68      1.0000 0.59440  0.04140  0.48460  Biso   1.000  C
  H41      1.0000 0.62440  0.42040  0.99740  Biso   1.000  H
  H42      1.0000 0.37560  0.92040  0.50260  Biso   1.000  H
  H43      1.0000 0.37560  0.57960  0.00260  Biso   1.000  H
  H44      1.0000 0.62440  0.07960  0.49740  Biso   1.000  H
  H45      1.0000 0.33060  0.48590  0.13590  Biso   1.000  H
  H46      1.0000 0.66940  0.98590  0.36410  Biso   1.000  H
  H47      1.0000 0.66940  0.51410  0.86410  Biso   1.000  H
  H48      1.0000 0.33060  0.01410  0.63590  Biso   1.000  H
  C69      1.0000 0.39690  0.32840  0.11080  Biso   1.000  C
  C70      1.0000 0.60310  0.82840  0.38920  Biso   1.000  C
  C71      1.0000 0.60310  0.67160  0.88920  Biso   1.000  C
  C72      1.0000 0.39690  0.17160  0.61080  Biso   1.000  C
  C73      1.0000 0.45710  0.37060  0.06550  Biso   1.000  C
  C74      1.0000 0.54290  0.87060  0.43450  Biso   1.000  C
  C75      1.0000 0.54290  0.62940  0.93450  Biso   1.000  C
  C76      1.0000 0.45710  0.12940  0.56550  Biso   1.000  C
  H49      1.0000 0.71550  0.48860  0.90660  Biso   1.000  H
  H50      1.0000 0.28450  0.98860  0.59340  Biso   1.000  H
  H51      1.0000 0.28450  0.51140  0.09340  Biso   1.000  H
  H52      1.0000 0.71550  0.01140  0.40660  Biso   1.000  H
  H53      1.0000 0.51400  0.35940  0.02890  Biso   1.000  H
  H54      1.0000 0.48600  0.85940  0.47110  Biso   1.000  H
  H55      1.0000 0.48600  0.64060  0.97110  Biso   1.000  H
  H56      1.0000 0.51400  0.14060  0.52890  Biso   1.000  H
  C77      1.0000 0.28700  0.40430  0.17490  Biso   1.000  C
  C78      1.0000 0.71300  0.90430  0.32510  Biso   1.000  C
  C79      1.0000 0.71300  0.59570  0.82510  Biso   1.000  C
  C80      1.0000 0.28700  0.09570  0.67490  Biso   1.000  C
  H57      1.0000 0.23020  0.41550  0.21150  Biso   1.000  H
  H58      1.0000 0.76980  0.91550  0.28850  Biso   1.000  H
  H59      1.0000 0.76980  0.58450  0.78850  Biso   1.000  H
  H60      1.0000 0.23020  0.08450  0.71150  Biso   1.000  H
  H61      1.0000 0.41350  0.28890  0.10450  Biso   1.000  H
  H62      1.0000 0.58650  0.78890  0.39550  Biso   1.000  H
  H63      1.0000 0.58650  0.71110  0.89550  Biso   1.000  H
  H64      1.0000 0.41350  0.21110  0.60450  Biso   1.000  H
  W25      1.0000 0.89780  0.64250  0.55660  Biso   1.000  W
  W26      1.0000 0.10220  0.14250  0.94340  Biso   1.000  W
  W27      1.0000 0.10220  0.35750  0.44340  Biso   1.000  W
  W28      1.0000 0.89780  0.85750  0.05660  Biso   1.000  W
  W29      1.0000 0.12540  0.40150  0.76840  Biso   1.000  W
  W30      1.0000 0.87460  0.90150  0.73160  Biso   1.000  W
  W31      1.0000 0.87460  0.59850  0.23160  Biso   1.000  W
  W32      1.0000 0.12540  0.09850  0.26840  Biso   1.000  W
  W33      1.0000 0.01400  0.53410  0.81440  Biso   1.000  W
  W34      1.0000 0.98600  0.03410  0.68560  Biso   1.000  W
  W35      1.0000 0.98600  0.46590  0.18560  Biso   1.000  W
  W36      1.0000 0.01400  0.96590  0.31440  Biso   1.000  W
