data_image0
_cell_length_a       7.3589
_cell_length_b       17.951
_cell_length_c       20.398
_cell_angle_alpha    90
_cell_angle_beta     90.705
_cell_angle_gamma    90

_symmetry_space_group_name_H-M    "P 1"
_symmetry_int_tables_number       1

loop_
  _symmetry_equiv_pos_as_xyz
  'x, y, z'

loop_
  _atom_site_label
  _atom_site_occupancy
  _atom_site_fract_x
  _atom_site_fract_y
  _atom_site_fract_z
  _atom_site_thermal_displace_type
  _atom_site_B_iso_or_equiv
  _atom_site_type_symbol
  C1       1.0000 0.38730  0.29530  0.06650  Biso   1.000  C
  C2       1.0000 0.38730  0.70470  0.56650  Biso   1.000  C
  C3       1.0000 0.88730  0.79530  0.06650  Biso   1.000  C
  C4       1.0000 0.88730  0.20470  0.56650  Biso   1.000  C
  H1       1.0000 0.40970  0.33870  0.09020  Biso   1.000  H
  H2       1.0000 0.40970  0.66130  0.59020  Biso   1.000  H
  H3       1.0000 0.90970  0.83870  0.09020  Biso   1.000  H
  H4       1.0000 0.90970  0.16130  0.59020  Biso   1.000  H
  C5       1.0000 0.34130  0.29950  0.00420  Biso   1.000  C
  C6       1.0000 0.34130  0.70050  0.50420  Biso   1.000  C
  C7       1.0000 0.84130  0.79950  0.00420  Biso   1.000  C
  C8       1.0000 0.84130  0.20050  0.50420  Biso   1.000  C
  H5       1.0000 0.34450  0.34620  0.98450  Biso   1.000  H
  H6       1.0000 0.34450  0.65380  0.48450  Biso   1.000  H
  H7       1.0000 0.84450  0.84620  0.98450  Biso   1.000  H
  H8       1.0000 0.84450  0.15380  0.48450  Biso   1.000  H
  C9       1.0000 0.28910  0.24070  0.96630  Biso   1.000  C
  C10      1.0000 0.28910  0.75930  0.46630  Biso   1.000  C
  C11      1.0000 0.78910  0.74070  0.96630  Biso   1.000  C
  C12      1.0000 0.78910  0.25930  0.46630  Biso   1.000  C
  C13      1.0000 0.29740  0.17100  0.99770  Biso   1.000  C
  C14      1.0000 0.29740  0.82900  0.49770  Biso   1.000  C
  C15      1.0000 0.79740  0.67100  0.99770  Biso   1.000  C
  C16      1.0000 0.79740  0.32900  0.49770  Biso   1.000  C
  H9       1.0000 0.26660  0.12750  0.97550  Biso   1.000  H
  H10      1.0000 0.26660  0.87250  0.47550  Biso   1.000  H
  H11      1.0000 0.76660  0.62750  0.97550  Biso   1.000  H
  H12      1.0000 0.76660  0.37250  0.47550  Biso   1.000  H
  C17      1.0000 0.35330  0.16910  0.06340  Biso   1.000  C
  C18      1.0000 0.35330  0.83090  0.56340  Biso   1.000  C
  C19      1.0000 0.85330  0.66910  0.06340  Biso   1.000  C
  C20      1.0000 0.85330  0.33090  0.56340  Biso   1.000  C
  H13      1.0000 0.35480  0.12310  0.08430  Biso   1.000  H
  H14      1.0000 0.35480  0.87690  0.58430  Biso   1.000  H
  H15      1.0000 0.85480  0.62310  0.08430  Biso   1.000  H
  H16      1.0000 0.85480  0.37690  0.58430  Biso   1.000  H
  C21      1.0000 0.22830  0.24500  0.89770  Biso   1.000  C
  C22      1.0000 0.22830  0.75500  0.39770  Biso   1.000  C
  C23      1.0000 0.72830  0.74500  0.89770  Biso   1.000  C
  C24      1.0000 0.72830  0.25500  0.39770  Biso   1.000  C
  C25      1.0000 0.24260  0.31450  0.86290  Biso   1.000  C
  C26      1.0000 0.24260  0.68550  0.36290  Biso   1.000  C
  C27      1.0000 0.74260  0.81450  0.86290  Biso   1.000  C
  C28      1.0000 0.74260  0.18550  0.36290  Biso   1.000  C
  H17      1.0000 0.29950  0.35470  0.88330  Biso   1.000  H
  H18      1.0000 0.29950  0.64530  0.38330  Biso   1.000  H
  H19      1.0000 0.79950  0.85470  0.88330  Biso   1.000  H
  H20      1.0000 0.79950  0.14530  0.38330  Biso   1.000  H
  C29      1.0000 0.17490  0.32270  0.80110  Biso   1.000  C
  C30      1.0000 0.17490  0.67730  0.30110  Biso   1.000  C
  C31      1.0000 0.67490  0.82270  0.80110  Biso   1.000  C
  C32      1.0000 0.67490  0.17730  0.30110  Biso   1.000  C
  H21      1.0000 0.18100  0.36910  0.78100  Biso   1.000  H
  H22      1.0000 0.18100  0.63090  0.28100  Biso   1.000  H
  H23      1.0000 0.68100  0.86910  0.78100  Biso   1.000  H
  H24      1.0000 0.68100  0.13090  0.28100  Biso   1.000  H
  C33      1.0000 0.08750  0.20020  0.79980  Biso   1.000  C
  C34      1.0000 0.08750  0.79980  0.29980  Biso   1.000  C
  C35      1.0000 0.58750  0.70020  0.79980  Biso   1.000  C
  C36      1.0000 0.58750  0.29980  0.29980  Biso   1.000  C
  H25      1.0000 0.02800  0.16090  0.77900  Biso   1.000  H
  H26      1.0000 0.02800  0.83910  0.27900  Biso   1.000  H
  H27      1.0000 0.52800  0.66090  0.77900  Biso   1.000  H
  H28      1.0000 0.52800  0.33910  0.27900  Biso   1.000  H
  C37      1.0000 0.15950  0.18770  0.86240  Biso   1.000  C
  C38      1.0000 0.15950  0.81230  0.36240  Biso   1.000  C
  C39      1.0000 0.65950  0.68770  0.86240  Biso   1.000  C
  C40      1.0000 0.65950  0.31230  0.36240  Biso   1.000  C
  H29      1.0000 0.16020  0.13990  0.87980  Biso   1.000  H
  H30      1.0000 0.16020  0.86010  0.37980  Biso   1.000  H
  H31      1.0000 0.66020  0.63990  0.87980  Biso   1.000  H
  H32      1.0000 0.66020  0.36010  0.37980  Biso   1.000  H
  C41      1.0000 0.26800  0.16450  0.41770  Biso   1.000  C
  C42      1.0000 0.26800  0.83550  0.91770  Biso   1.000  C
  C43      1.0000 0.76800  0.66450  0.41770  Biso   1.000  C
  C44      1.0000 0.76800  0.33550  0.91770  Biso   1.000  C
  H33      1.0000 0.26790  0.11680  0.39990  Biso   1.000  H
  H34      1.0000 0.26790  0.88320  0.89990  Biso   1.000  H
  H35      1.0000 0.76790  0.61680  0.39990  Biso   1.000  H
  H36      1.0000 0.76790  0.38320  0.89990  Biso   1.000  H
  C45      1.0000 0.31840  0.17300  0.48110  Biso   1.000  C
  C46      1.0000 0.31840  0.82700  0.98110  Biso   1.000  C
  C47      1.0000 0.81840  0.67300  0.48110  Biso   1.000  C
  C48      1.0000 0.81840  0.32700  0.98110  Biso   1.000  C
  H37      1.0000 0.34950  0.13100  0.50560  Biso   1.000  H
  H38      1.0000 0.34950  0.86900  0.00560  Biso   1.000  H
  H39      1.0000 0.84950  0.63100  0.50560  Biso   1.000  H
  H40      1.0000 0.84950  0.36900  0.00560  Biso   1.000  H
  C49      1.0000 0.32510  0.24300  0.51110  Biso   1.000  C
  C50      1.0000 0.32510  0.75700  0.01110  Biso   1.000  C
  C51      1.0000 0.82510  0.74300  0.51110  Biso   1.000  C
  C52      1.0000 0.82510  0.25700  0.01110  Biso   1.000  C
  C53      1.0000 0.26700  0.30280  0.46800  Biso   1.000  C
  C54      1.0000 0.26700  0.69720  0.96800  Biso   1.000  C
  C55      1.0000 0.76700  0.80280  0.46800  Biso   1.000  C
  C56      1.0000 0.76700  0.19720  0.96800  Biso   1.000  C
  H41      1.0000 0.26920  0.35170  0.48300  Biso   1.000  H
  H42      1.0000 0.26920  0.64830  0.98300  Biso   1.000  H
  H43      1.0000 0.76920  0.85170  0.48300  Biso   1.000  H
  H44      1.0000 0.76920  0.14830  0.98300  Biso   1.000  H
  C57      1.0000 0.20900  0.28760  0.40550  Biso   1.000  C
  C58      1.0000 0.20900  0.71240  0.90550  Biso   1.000  C
  C59      1.0000 0.70900  0.78760  0.40550  Biso   1.000  C
  C60      1.0000 0.70900  0.21240  0.90550  Biso   1.000  C
  H45      1.0000 0.16060  0.32650  0.38080  Biso   1.000  H
  H46      1.0000 0.16060  0.67350  0.88080  Biso   1.000  H
  H47      1.0000 0.66060  0.82650  0.38080  Biso   1.000  H
  H48      1.0000 0.66060  0.17350  0.88080  Biso   1.000  H
  C61      1.0000 0.39080  0.25750  0.57850  Biso   1.000  C
  C62      1.0000 0.39080  0.74250  0.07850  Biso   1.000  C
  C63      1.0000 0.89080  0.75750  0.57850  Biso   1.000  C
  C64      1.0000 0.89080  0.24250  0.07850  Biso   1.000  C
  C65      1.0000 0.43680  0.19720  0.61740  Biso   1.000  C
  C66      1.0000 0.43680  0.80280  0.11740  Biso   1.000  C
  C67      1.0000 0.93680  0.69720  0.61740  Biso   1.000  C
  C68      1.0000 0.93680  0.30280  0.11740  Biso   1.000  C
  H49      1.0000 0.42480  0.14900  0.60130  Biso   1.000  H
  H50      1.0000 0.42480  0.85100  0.10130  Biso   1.000  H
  H51      1.0000 0.92480  0.64900  0.60130  Biso   1.000  H
  H52      1.0000 0.92480  0.35100  0.10130  Biso   1.000  H
  C69      1.0000 0.50160  0.20930  0.68140  Biso   1.000  C
  C70      1.0000 0.50160  0.79070  0.18140  Biso   1.000  C
  C71      1.0000 0.00160  0.70930  0.68140  Biso   1.000  C
  C72      1.0000 0.00160  0.29070  0.18140  Biso   1.000  C
  H53      1.0000 0.52160  0.16860  0.70890  Biso   1.000  H
  H54      1.0000 0.52160  0.83140  0.20890  Biso   1.000  H
  H55      1.0000 0.02160  0.66860  0.70890  Biso   1.000  H
  H56      1.0000 0.02160  0.33140  0.20890  Biso   1.000  H
  C73      1.0000 0.48300  0.33310  0.66700  Biso   1.000  C
  C74      1.0000 0.48300  0.66690  0.16700  Biso   1.000  C
  C75      1.0000 0.98300  0.83310  0.66700  Biso   1.000  C
  C76      1.0000 0.98300  0.16690  0.16700  Biso   1.000  C
  H57      1.0000 0.49260  0.38090  0.68420  Biso   1.000  H
  H58      1.0000 0.49260  0.61910  0.18420  Biso   1.000  H
  H59      1.0000 0.99260  0.88090  0.68420  Biso   1.000  H
  H60      1.0000 0.99260  0.11910  0.18420  Biso   1.000  H
  C77      1.0000 0.41510  0.32600  0.60490  Biso   1.000  C
  C78      1.0000 0.41510  0.67400  0.10490  Biso   1.000  C
  C79      1.0000 0.91510  0.82600  0.60490  Biso   1.000  C
  C80      1.0000 0.91510  0.17400  0.10490  Biso   1.000  C
  H61      1.0000 0.38540  0.36830  0.58060  Biso   1.000  H
  H62      1.0000 0.38540  0.63170  0.08060  Biso   1.000  H
  H63      1.0000 0.88540  0.86830  0.58060  Biso   1.000  H
  H64      1.0000 0.88540  0.13170  0.08060  Biso   1.000  H
  C81      1.0000 0.35640  0.06190  0.24180  Biso   1.000  C
  C82      1.0000 0.35640  0.93810  0.74180  Biso   1.000  C
  C83      1.0000 0.85640  0.56190  0.24180  Biso   1.000  C
  C84      1.0000 0.85640  0.43810  0.74180  Biso   1.000  C
  C85      1.0000 0.39540  0.98180  0.25640  Biso   1.000  C
  C86      1.0000 0.39540  0.01820  0.75640  Biso   1.000  C
  C87      1.0000 0.89540  0.48180  0.25640  Biso   1.000  C
  C88      1.0000 0.89540  0.51820  0.75640  Biso   1.000  C
  H65      1.0000 0.43840  0.95680  0.21730  Biso   1.000  H
  H66      1.0000 0.43840  0.04320  0.71730  Biso   1.000  H
  H67      1.0000 0.93840  0.45680  0.21730  Biso   1.000  H
  H68      1.0000 0.93840  0.54320  0.71730  Biso   1.000  H
  H69      1.0000 0.28590  0.95690  0.27070  Biso   1.000  H
  H70      1.0000 0.28590  0.04310  0.77070  Biso   1.000  H
  H71      1.0000 0.78590  0.45690  0.27070  Biso   1.000  H
  H72      1.0000 0.78590  0.54310  0.77070  Biso   1.000  H
  C89      1.0000 0.54040  0.97900  0.31020  Biso   1.000  C
  C90      1.0000 0.54040  0.02100  0.81020  Biso   1.000  C
  C91      1.0000 0.04040  0.47900  0.31020  Biso   1.000  C
  C92      1.0000 0.04040  0.52100  0.81020  Biso   1.000  C
  C93      1.0000 0.48870  0.98270  0.37460  Biso   1.000  C
  C94      1.0000 0.48870  0.01730  0.87460  Biso   1.000  C
  C95      1.0000 0.98870  0.48270  0.37460  Biso   1.000  C
  C96      1.0000 0.98870  0.51730  0.87460  Biso   1.000  C
  H73      1.0000 0.36510  0.98250  0.38360  Biso   1.000  H
  H74      1.0000 0.36510  0.01750  0.88360  Biso   1.000  H
  H75      1.0000 0.86510  0.48250  0.38360  Biso   1.000  H
  H76      1.0000 0.86510  0.51750  0.88360  Biso   1.000  H
  C97      1.0000 0.60770  0.98670  0.42600  Biso   1.000  C
  C98      1.0000 0.60770  0.01330  0.92600  Biso   1.000  C
  C99      1.0000 0.10770  0.48670  0.42600  Biso   1.000  C
  C100     1.0000 0.10770  0.51330  0.92600  Biso   1.000  C
  H77      1.0000 0.56570  0.98850  0.46870  Biso   1.000  H
  H78      1.0000 0.56570  0.01150  0.96870  Biso   1.000  H
  H79      1.0000 0.06570  0.48850  0.46870  Biso   1.000  H
  H80      1.0000 0.06570  0.51150  0.96870  Biso   1.000  H
  C101     1.0000 0.80110  0.98810  0.41320  Biso   1.000  C
  C102     1.0000 0.80110  0.01190  0.91320  Biso   1.000  C
  C103     1.0000 0.30110  0.48810  0.41320  Biso   1.000  C
  C104     1.0000 0.30110  0.51190  0.91320  Biso   1.000  C
  C105     1.0000 0.84740  0.98260  0.34750  Biso   1.000  C
  C106     1.0000 0.84740  0.01740  0.84750  Biso   1.000  C
  C107     1.0000 0.34740  0.48260  0.34750  Biso   1.000  C
  C108     1.0000 0.34740  0.51740  0.84750  Biso   1.000  C
  H81      1.0000 0.96980  0.98090  0.33680  Biso   1.000  H
  H82      1.0000 0.96980  0.01910  0.83680  Biso   1.000  H
  H83      1.0000 0.46980  0.48090  0.33680  Biso   1.000  H
  H84      1.0000 0.46980  0.51910  0.83680  Biso   1.000  H
  C109     1.0000 0.72150  0.97950  0.29820  Biso   1.000  C
  C110     1.0000 0.72150  0.02050  0.79820  Biso   1.000  C
  C111     1.0000 0.22150  0.47950  0.29820  Biso   1.000  C
  C112     1.0000 0.22150  0.52050  0.79820  Biso   1.000  C
  H85      1.0000 0.76060  0.97770  0.25510  Biso   1.000  H
  H86      1.0000 0.76060  0.02230  0.75510  Biso   1.000  H
  H87      1.0000 0.26060  0.47770  0.25510  Biso   1.000  H
  H88      1.0000 0.26060  0.52230  0.75510  Biso   1.000  H
  C113     1.0000 0.93230  0.99110  0.46740  Biso   1.000  C
  C114     1.0000 0.93230  0.00890  0.96740  Biso   1.000  C
  C115     1.0000 0.43230  0.49110  0.46740  Biso   1.000  C
  C116     1.0000 0.43230  0.50890  0.96740  Biso   1.000  C
  Cu1      1.0000 0.48266  0.21434  0.18558  Biso   1.000  Cu
  Cu2      1.0000 0.48266  0.78566  0.68558  Biso   1.000  Cu
  Cu3      1.0000 0.98266  0.71434  0.18558  Biso   1.000  Cu
  Cu4      1.0000 0.98266  0.28566  0.68558  Biso   1.000  Cu
  Cu5      1.0000 0.15249  0.20333  0.28678  Biso   1.000  Cu
  Cu6      1.0000 0.15249  0.79667  0.78678  Biso   1.000  Cu
  Cu7      1.0000 0.65249  0.70333  0.28678  Biso   1.000  Cu
  Cu8      1.0000 0.65249  0.29667  0.78678  Biso   1.000  Cu
  N1       1.0000 0.40310  0.22670  0.09740  Biso   1.000  N
  N2       1.0000 0.40310  0.77330  0.59740  Biso   1.000  N
  N3       1.0000 0.90310  0.72670  0.09740  Biso   1.000  N
  N4       1.0000 0.90310  0.27330  0.59740  Biso   1.000  N
  N5       1.0000 0.09830  0.26460  0.76790  Biso   1.000  N
  N6       1.0000 0.09830  0.73540  0.26790  Biso   1.000  N
  N7       1.0000 0.59830  0.76460  0.76790  Biso   1.000  N
  N8       1.0000 0.59830  0.23540  0.26790  Biso   1.000  N
  N9       1.0000 0.21720  0.22250  0.37850  Biso   1.000  N
  N10      1.0000 0.21720  0.77750  0.87850  Biso   1.000  N
  N11      1.0000 0.71720  0.72250  0.37850  Biso   1.000  N
  N12      1.0000 0.71720  0.27750  0.87850  Biso   1.000  N
  N13      1.0000 0.53530  0.27790  0.70390  Biso   1.000  N
  N14      1.0000 0.53530  0.72210  0.20390  Biso   1.000  N
  N15      1.0000 0.03530  0.77790  0.70390  Biso   1.000  N
  N16      1.0000 0.03530  0.22210  0.20390  Biso   1.000  N
  O1       1.0000 0.44740  0.09260  0.19620  Biso   1.000  O
  O2       1.0000 0.44740  0.90740  0.69620  Biso   1.000  O
  O3       1.0000 0.94740  0.59260  0.19620  Biso   1.000  O
  O4       1.0000 0.94740  0.40740  0.69620  Biso   1.000  O
  O5       1.0000 0.24610  0.09250  0.27700  Biso   1.000  O
  O6       1.0000 0.24610  0.90750  0.77700  Biso   1.000  O
  O7       1.0000 0.74610  0.59250  0.27700  Biso   1.000  O
  O8       1.0000 0.74610  0.40750  0.77700  Biso   1.000  O
  O9       1.0000 0.09860  0.98760  0.45340  Biso   1.000  O
  O10      1.0000 0.09860  0.01240  0.95340  Biso   1.000  O
  O11      1.0000 0.59860  0.48760  0.45340  Biso   1.000  O
  O12      1.0000 0.59860  0.51240  0.95340  Biso   1.000  O
  O13      1.0000 0.87650  0.99200  0.52640  Biso   1.000  O
  O14      1.0000 0.87650  0.00800  0.02640  Biso   1.000  O
  O15      1.0000 0.37650  0.49200  0.52640  Biso   1.000  O
  O16      1.0000 0.37650  0.50800  0.02640  Biso   1.000  O
  O17      1.0000 0.61070  0.01070  0.60990  Biso   1.000  O
  O18      1.0000 0.61070  0.98930  0.10990  Biso   1.000  O
  O19      1.0000 0.11070  0.51070  0.60990  Biso   1.000  O
  O20      1.0000 0.11070  0.48930  0.10990  Biso   1.000  O
  H89      1.0000 0.59540  0.03040  0.57240  Biso   1.000  H
  H90      1.0000 0.59540  0.96960  0.07240  Biso   1.000  H
  H91      1.0000 0.09540  0.53040  0.57240  Biso   1.000  H
  H92      1.0000 0.09540  0.46960  0.07240  Biso   1.000  H
  H93      1.0000 0.51990  0.98330  0.61860  Biso   1.000  H
  H94      1.0000 0.51990  0.01670  0.11860  Biso   1.000  H
  H95      1.0000 0.01990  0.48330  0.61860  Biso   1.000  H
  H96      1.0000 0.01990  0.51670  0.11860  Biso   1.000  H
  O21      1.0000 0.23530  0.02560  0.58580  Biso   1.000  O
  O22      1.0000 0.23530  0.97440  0.08580  Biso   1.000  O
  O23      1.0000 0.73530  0.52560  0.58580  Biso   1.000  O
  O24      1.0000 0.73530  0.47440  0.08580  Biso   1.000  O
  H97      1.0000 0.17690  0.00890  0.61830  Biso   1.000  H
  H98      1.0000 0.17690  0.99110  0.11830  Biso   1.000  H
  H99      1.0000 0.67690  0.50890  0.61830  Biso   1.000  H
  H100     1.0000 0.67690  0.49110  0.11830  Biso   1.000  H
  H101     1.0000 0.20630  0.00100  0.55160  Biso   1.000  H
  H102     1.0000 0.20630  0.99900  0.05160  Biso   1.000  H
  H103     1.0000 0.70630  0.50100  0.55160  Biso   1.000  H
  H104     1.0000 0.70630  0.49900  0.05160  Biso   1.000  H
  O25      1.0000 0.98990  0.06130  0.66890  Biso   1.000  O
  O26      1.0000 0.98990  0.93870  0.16890  Biso   1.000  O
  O27      1.0000 0.48990  0.56130  0.66890  Biso   1.000  O
  O28      1.0000 0.48990  0.43870  0.16890  Biso   1.000  O
  H105     1.0000 0.88640  0.06200  0.64990  Biso   1.000  H
  H106     1.0000 0.88640  0.93800  0.14990  Biso   1.000  H
  H107     1.0000 0.38640  0.56200  0.64990  Biso   1.000  H
  H108     1.0000 0.38640  0.43800  0.14990  Biso   1.000  H
  H109     1.0000 0.01320  0.10410  0.68460  Biso   1.000  H
  H110     1.0000 0.01320  0.89590  0.18460  Biso   1.000  H
  H111     1.0000 0.51320  0.60410  0.68460  Biso   1.000  H
  H112     1.0000 0.51320  0.39590  0.18460  Biso   1.000  H
