data_image0
_cell_length_a       16.46
_cell_length_b       5.58
_cell_length_c       12.49
_cell_angle_alpha    90
_cell_angle_beta     93.63
_cell_angle_gamma    90

_symmetry_space_group_name_H-M    "P 1"
_symmetry_int_tables_number       1

loop_
  _symmetry_equiv_pos_as_xyz
  'x, y, z'

loop_
  _atom_site_label
  _atom_site_occupancy
  _atom_site_fract_x
  _atom_site_fract_y
  _atom_site_fract_z
  _atom_site_thermal_displace_type
  _atom_site_B_iso_or_equiv
  _atom_site_type_symbol
  I1       1.0000 0.44250  0.98360  0.16200  Biso   1.000  I
  I2       1.0000 0.05750  0.48360  0.83800  Biso   1.000  I
  I3       1.0000 0.55750  0.01640  0.83800  Biso   1.000  I
  I4       1.0000 0.94250  0.51640  0.16200  Biso   1.000  I
  Cu1      1.0000 0.49360  0.76490  0.98820  Biso   1.000  Cu
  Cu2      1.0000 0.00640  0.26490  0.01180  Biso   1.000  Cu
  Cu3      1.0000 0.50640  0.23510  0.01180  Biso   1.000  Cu
  Cu4      1.0000 0.99360  0.73510  0.98820  Biso   1.000  Cu
  S1       1.0000 0.60840  0.50550  0.05240  Biso   1.000  S
  S2       1.0000 0.89160  0.00550  0.94760  Biso   1.000  S
  S3       1.0000 0.39160  0.49450  0.94760  Biso   1.000  S
  S4       1.0000 0.10840  0.99450  0.05240  Biso   1.000  S
  S5       1.0000 0.69120  0.78960  0.23110  Biso   1.000  S
  S6       1.0000 0.80880  0.28960  0.76890  Biso   1.000  S
  S7       1.0000 0.30880  0.21040  0.76890  Biso   1.000  S
  S8       1.0000 0.19120  0.71040  0.23110  Biso   1.000  S
  N1       1.0000 0.58820  0.44450  0.25970  Biso   1.000  N
  N2       1.0000 0.91180  0.94450  0.74030  Biso   1.000  N
  N3       1.0000 0.41180  0.55550  0.74030  Biso   1.000  N
  N4       1.0000 0.08820  0.05550  0.25970  Biso   1.000  N
  C1       1.0000 0.62390  0.56320  0.18560  Biso   1.000  C
  C2       1.0000 0.87610  0.06320  0.81440  Biso   1.000  C
  C3       1.0000 0.37610  0.43680  0.81440  Biso   1.000  C
  C4       1.0000 0.12390  0.93680  0.18560  Biso   1.000  C
  C5       1.0000 0.72890  0.91060  0.11250  Biso   1.000  C
  C6       1.0000 0.77110  0.41060  0.88750  Biso   1.000  C
  C7       1.0000 0.27110  0.08940  0.88750  Biso   1.000  C
  C8       1.0000 0.22890  0.58940  0.11250  Biso   1.000  C
  C9       1.0000 0.60400  0.48180  0.37300  Biso   1.000  C
  C10      1.0000 0.89600  0.98180  0.62700  Biso   1.000  C
  C11      1.0000 0.39600  0.51820  0.62700  Biso   1.000  C
  C12      1.0000 0.10400  0.01820  0.37300  Biso   1.000  C
  C13      1.0000 0.64620  0.31030  0.43110  Biso   1.000  C
  C14      1.0000 0.85380  0.81030  0.56890  Biso   1.000  C
  C15      1.0000 0.35380  0.68970  0.56890  Biso   1.000  C
  C16      1.0000 0.14620  0.18970  0.43110  Biso   1.000  C
  C17      1.0000 0.65880  0.34250  0.53990  Biso   1.000  C
  C18      1.0000 0.84120  0.84250  0.46010  Biso   1.000  C
  C19      1.0000 0.34120  0.65750  0.46010  Biso   1.000  C
  C20      1.0000 0.15880  0.15750  0.53990  Biso   1.000  C
  C21      1.0000 0.63190  0.54350  0.59000  Biso   1.000  C
  C22      1.0000 0.86810  0.04350  0.41000  Biso   1.000  C
  C23      1.0000 0.36810  0.45650  0.41000  Biso   1.000  C
  C24      1.0000 0.13190  0.95650  0.59000  Biso   1.000  C
  C25      1.0000 0.58870  0.70520  0.53200  Biso   1.000  C
  C26      1.0000 0.91130  0.20520  0.46800  Biso   1.000  C
  C27      1.0000 0.41130  0.29480  0.46800  Biso   1.000  C
  C28      1.0000 0.08870  0.79480  0.53200  Biso   1.000  C
  C29      1.0000 0.57290  0.67520  0.42130  Biso   1.000  C
  C30      1.0000 0.92710  0.17520  0.57870  Biso   1.000  C
  C31      1.0000 0.42710  0.32480  0.57870  Biso   1.000  C
  C32      1.0000 0.07290  0.82480  0.42130  Biso   1.000  C
  H1       1.0000 0.55080  0.33410  0.23830  Biso   1.000  H
  H2       1.0000 0.94920  0.83410  0.76170  Biso   1.000  H
  H3       1.0000 0.44920  0.66590  0.76170  Biso   1.000  H
  H4       1.0000 0.05080  0.16590  0.23830  Biso   1.000  H
  H5       1.0000 0.76660  0.03750  0.13110  Biso   1.000  H
  H6       1.0000 0.73340  0.53750  0.86890  Biso   1.000  H
  H7       1.0000 0.23340  0.96250  0.86890  Biso   1.000  H
  H8       1.0000 0.26660  0.46250  0.13110  Biso   1.000  H
  H9       1.0000 0.68450  0.97250  0.06730  Biso   1.000  H
  H10      1.0000 0.81550  0.47250  0.93270  Biso   1.000  H
  H11      1.0000 0.31550  0.02750  0.93270  Biso   1.000  H
  H12      1.0000 0.18450  0.52750  0.06730  Biso   1.000  H
  H13      1.0000 0.75620  0.78710  0.07500  Biso   1.000  H
  H14      1.0000 0.74380  0.28710  0.92500  Biso   1.000  H
  H15      1.0000 0.24380  0.21290  0.92500  Biso   1.000  H
  H16      1.0000 0.25620  0.71290  0.07500  Biso   1.000  H
  H17      1.0000 0.66680  0.17090  0.39690  Biso   1.000  H
  H18      1.0000 0.83320  0.67090  0.60310  Biso   1.000  H
  H19      1.0000 0.33320  0.82910  0.60310  Biso   1.000  H
  H20      1.0000 0.16680  0.32910  0.39690  Biso   1.000  H
  H21      1.0000 0.68700  0.22080  0.58180  Biso   1.000  H
  H22      1.0000 0.81300  0.72080  0.41820  Biso   1.000  H
  H23      1.0000 0.31300  0.77920  0.41820  Biso   1.000  H
  H24      1.0000 0.18700  0.27920  0.58180  Biso   1.000  H
  H25      1.0000 0.64360  0.56730  0.66550  Biso   1.000  H
  H26      1.0000 0.85640  0.06730  0.33450  Biso   1.000  H
  H27      1.0000 0.35640  0.43270  0.33450  Biso   1.000  H
  H28      1.0000 0.14360  0.93270  0.66550  Biso   1.000  H
  H29      1.0000 0.56800  0.84420  0.56650  Biso   1.000  H
  H30      1.0000 0.93200  0.34420  0.43350  Biso   1.000  H
  H31      1.0000 0.43200  0.15580  0.43350  Biso   1.000  H
  H32      1.0000 0.06800  0.65580  0.56650  Biso   1.000  H
  H33      1.0000 0.54090  0.79080  0.38030  Biso   1.000  H
  H34      1.0000 0.95910  0.29080  0.61970  Biso   1.000  H
  H35      1.0000 0.45910  0.20920  0.61970  Biso   1.000  H
  H36      1.0000 0.04090  0.70920  0.38030  Biso   1.000  H
