data_image0
_cell_length_a       14.812
_cell_length_b       11.445
_cell_length_c       14.784
_cell_angle_alpha    90
_cell_angle_beta     126.78
_cell_angle_gamma    90

_symmetry_space_group_name_H-M    "P 1"
_symmetry_int_tables_number       1

loop_
  _symmetry_equiv_pos_as_xyz
  'x, y, z'

loop_
  _atom_site_label
  _atom_site_occupancy
  _atom_site_fract_x
  _atom_site_fract_y
  _atom_site_fract_z
  _atom_site_thermal_displace_type
  _atom_site_B_iso_or_equiv
  _atom_site_type_symbol
  Cu1      1.0000 1.00000  0.39511  0.75000  Biso   1.000  Cu
  Cu2      1.0000 0.50000  0.89511  0.75000  Biso   1.000  Cu
  Cu3      1.0000 0.00000  0.60489  0.25000  Biso   1.000  Cu
  Cu4      1.0000 0.50000  0.10489  0.25000  Biso   1.000  Cu
  Cu5      1.0000 0.29483  0.58173  0.11288  Biso   1.000  Cu
  Cu6      1.0000 0.70517  0.58173  0.38712  Biso   1.000  Cu
  Cu7      1.0000 0.79483  0.08173  0.11288  Biso   1.000  Cu
  Cu8      1.0000 0.20517  0.08173  0.38712  Biso   1.000  Cu
  Cu9      1.0000 0.70517  0.41827  0.88712  Biso   1.000  Cu
  Cu10     1.0000 0.29483  0.41827  0.61288  Biso   1.000  Cu
  Cu11     1.0000 0.20517  0.91827  0.88712  Biso   1.000  Cu
  Cu12     1.0000 0.79483  0.91827  0.61288  Biso   1.000  Cu
  C1       1.0000 0.12320  0.46170  0.88860  Biso   1.000  C
  C2       1.0000 0.87680  0.46170  0.61140  Biso   1.000  C
  C3       1.0000 0.62320  0.96170  0.88860  Biso   1.000  C
  C4       1.0000 0.37680  0.96170  0.61140  Biso   1.000  C
  C5       1.0000 0.87680  0.53830  0.11140  Biso   1.000  C
  C6       1.0000 0.12320  0.53830  0.38860  Biso   1.000  C
  C7       1.0000 0.37680  0.03830  0.11140  Biso   1.000  C
  C8       1.0000 0.62320  0.03830  0.38860  Biso   1.000  C
  C9       1.0000 0.19130  0.50310  0.97580  Biso   1.000  C
  C10      1.0000 0.80870  0.50310  0.52420  Biso   1.000  C
  C11      1.0000 0.69130  0.00310  0.97580  Biso   1.000  C
  C12      1.0000 0.30870  0.00310  0.52420  Biso   1.000  C
  C13      1.0000 0.80870  0.49690  0.02420  Biso   1.000  C
  C14      1.0000 0.19130  0.49690  0.47580  Biso   1.000  C
  C15      1.0000 0.30870  0.99690  0.02420  Biso   1.000  C
  C16      1.0000 0.69130  0.99690  0.47580  Biso   1.000  C
  C17      1.0000 0.45090  0.59610  0.21840  Biso   1.000  C
  C18      1.0000 0.54910  0.59610  0.28160  Biso   1.000  C
  C19      1.0000 0.95090  0.09610  0.21840  Biso   1.000  C
  C20      1.0000 0.04910  0.09610  0.28160  Biso   1.000  C
  C21      1.0000 0.54910  0.40390  0.78160  Biso   1.000  C
  C22      1.0000 0.45090  0.40390  0.71840  Biso   1.000  C
  C23      1.0000 0.04910  0.90390  0.78160  Biso   1.000  C
  C24      1.0000 0.95090  0.90390  0.71840  Biso   1.000  C
  N1       1.0000 0.07320  0.28370  0.69050  Biso   1.000  N
  N2       1.0000 0.92680  0.28370  0.80950  Biso   1.000  N
  N3       1.0000 0.57320  0.78370  0.69050  Biso   1.000  N
  N4       1.0000 0.42680  0.78370  0.80950  Biso   1.000  N
  N5       1.0000 0.92680  0.71630  0.30950  Biso   1.000  N
  N6       1.0000 0.07320  0.71630  0.19050  Biso   1.000  N
  N7       1.0000 0.42680  0.21630  0.30950  Biso   1.000  N
  N8       1.0000 0.57320  0.21630  0.19050  Biso   1.000  N
  N9       1.0000 0.20100  0.69850  0.13660  Biso   1.000  N
  N10      1.0000 0.79900  0.69850  0.36340  Biso   1.000  N
  N11      1.0000 0.70100  0.19850  0.13660  Biso   1.000  N
  N12      1.0000 0.29900  0.19850  0.36340  Biso   1.000  N
  N13      1.0000 0.79900  0.30150  0.86340  Biso   1.000  N
  N14      1.0000 0.20100  0.30150  0.63660  Biso   1.000  N
  N15      1.0000 0.29900  0.80150  0.86340  Biso   1.000  N
  N16      1.0000 0.70100  0.80150  0.63660  Biso   1.000  N
  N17      1.0000 0.20250  0.12430  0.73000  Biso   1.000  N
  N18      1.0000 0.79750  0.12430  0.77000  Biso   1.000  N
  N19      1.0000 0.70250  0.62430  0.73000  Biso   1.000  N
  N20      1.0000 0.29750  0.62430  0.77000  Biso   1.000  N
  N21      1.0000 0.79750  0.87570  0.27000  Biso   1.000  N
  N22      1.0000 0.20250  0.87570  0.23000  Biso   1.000  N
  N23      1.0000 0.29750  0.37570  0.27000  Biso   1.000  N
  N24      1.0000 0.70250  0.37570  0.23000  Biso   1.000  N
  N25      1.0000 0.04160  0.16560  0.53590  Biso   1.000  N
  N26      1.0000 0.95840  0.16560  0.96410  Biso   1.000  N
  N27      1.0000 0.54160  0.66560  0.53590  Biso   1.000  N
  N28      1.0000 0.45840  0.66560  0.96410  Biso   1.000  N
  N29      1.0000 0.95840  0.83440  0.46410  Biso   1.000  N
  N30      1.0000 0.04160  0.83440  0.03590  Biso   1.000  N
  N31      1.0000 0.45840  0.33440  0.46410  Biso   1.000  N
  N32      1.0000 0.54160  0.33440  0.03590  Biso   1.000  N
  C25      1.0000 0.14410  0.36250  0.67800  Biso   1.000  C
  C26      1.0000 0.85590  0.36250  0.82200  Biso   1.000  C
  C27      1.0000 0.64410  0.86250  0.67800  Biso   1.000  C
  C28      1.0000 0.35590  0.86250  0.82200  Biso   1.000  C
  C29      1.0000 0.85590  0.63750  0.32200  Biso   1.000  C
  C30      1.0000 0.14410  0.63750  0.17800  Biso   1.000  C
  C31      1.0000 0.35590  0.13750  0.32200  Biso   1.000  C
  C32      1.0000 0.64410  0.13750  0.17800  Biso   1.000  C
  C33      1.0000 0.14740  0.18950  0.76970  Biso   1.000  C
  C34      1.0000 0.85260  0.18950  0.73030  Biso   1.000  C
  C35      1.0000 0.64740  0.68950  0.76970  Biso   1.000  C
  C36      1.0000 0.35260  0.68950  0.73030  Biso   1.000  C
  C37      1.0000 0.85260  0.81050  0.23030  Biso   1.000  C
  C38      1.0000 0.14740  0.81050  0.26970  Biso   1.000  C
  C39      1.0000 0.35260  0.31050  0.23030  Biso   1.000  C
  C40      1.0000 0.64740  0.31050  0.26970  Biso   1.000  C
  C41      1.0000 0.98910  0.22900  0.57900  Biso   1.000  C
  C42      1.0000 0.01090  0.22900  0.92100  Biso   1.000  C
  C43      1.0000 0.48910  0.72900  0.57900  Biso   1.000  C
  C44      1.0000 0.51090  0.72900  0.92100  Biso   1.000  C
  C45      1.0000 0.01090  0.77100  0.42100  Biso   1.000  C
  C46      1.0000 0.98910  0.77100  0.07900  Biso   1.000  C
  C47      1.0000 0.51090  0.27100  0.42100  Biso   1.000  C
  C48      1.0000 0.48910  0.27100  0.07900  Biso   1.000  C
  C49      1.0000 0.27120  0.79370  0.21810  Biso   1.000  C
  C50      1.0000 0.72880  0.79370  0.28190  Biso   1.000  C
  C51      1.0000 0.77120  0.29370  0.21810  Biso   1.000  C
  C52      1.0000 0.22880  0.29370  0.28190  Biso   1.000  C
  C53      1.0000 0.72880  0.20630  0.78190  Biso   1.000  C
  C54      1.0000 0.27120  0.20630  0.71810  Biso   1.000  C
  C55      1.0000 0.22880  0.70630  0.78190  Biso   1.000  C
  C56      1.0000 0.77120  0.70630  0.71810  Biso   1.000  C
  C57      1.0000 0.11150  0.75370  0.02650  Biso   1.000  C
  C58      1.0000 0.88850  0.75370  0.47350  Biso   1.000  C
  C59      1.0000 0.61150  0.25370  0.02650  Biso   1.000  C
  C60      1.0000 0.38850  0.25370  0.47350  Biso   1.000  C
  C61      1.0000 0.88850  0.24630  0.97350  Biso   1.000  C
  C62      1.0000 0.11150  0.24630  0.52650  Biso   1.000  C
  C63      1.0000 0.38850  0.74630  0.97350  Biso   1.000  C
  C64      1.0000 0.61150  0.74630  0.52650  Biso   1.000  C
  C65      1.0000 0.11550  0.07500  0.61880  Biso   1.000  C
  C66      1.0000 0.88450  0.07500  0.88120  Biso   1.000  C
  C67      1.0000 0.61550  0.57500  0.61880  Biso   1.000  C
  C68      1.0000 0.38450  0.57500  0.88120  Biso   1.000  C
  C69      1.0000 0.88450  0.92500  0.38120  Biso   1.000  C
  C70      1.0000 0.11550  0.92500  0.11880  Biso   1.000  C
  C71      1.0000 0.38450  0.42500  0.38120  Biso   1.000  C
  C72      1.0000 0.61550  0.42500  0.11880  Biso   1.000  C
  H1       1.0000 0.09780  0.42260  0.62600  Biso   1.000  H
  H2       1.0000 0.90220  0.42260  0.87400  Biso   1.000  H
  H3       1.0000 0.59780  0.92260  0.62600  Biso   1.000  H
  H4       1.0000 0.40220  0.92260  0.87400  Biso   1.000  H
  H5       1.0000 0.90220  0.57740  0.37400  Biso   1.000  H
  H6       1.0000 0.09780  0.57740  0.12600  Biso   1.000  H
  H7       1.0000 0.40220  0.07740  0.37400  Biso   1.000  H
  H8       1.0000 0.59780  0.07740  0.12600  Biso   1.000  H
  H9       1.0000 0.20000  0.39630  0.74950  Biso   1.000  H
  H10      1.0000 0.80000  0.39630  0.75050  Biso   1.000  H
  H11      1.0000 0.70000  0.89630  0.74950  Biso   1.000  H
  H12      1.0000 0.30000  0.89630  0.75050  Biso   1.000  H
  H13      1.0000 0.80000  0.60370  0.25050  Biso   1.000  H
  H14      1.0000 0.20000  0.60370  0.24950  Biso   1.000  H
  H15      1.0000 0.30000  0.10370  0.25050  Biso   1.000  H
  H16      1.0000 0.70000  0.10370  0.24950  Biso   1.000  H
  H17      1.0000 0.20410  0.22360  0.84080  Biso   1.000  H
  H18      1.0000 0.79590  0.22360  0.65920  Biso   1.000  H
  H19      1.0000 0.70410  0.72360  0.84080  Biso   1.000  H
  H20      1.0000 0.29590  0.72360  0.65920  Biso   1.000  H
  H21      1.0000 0.79590  0.77640  0.15920  Biso   1.000  H
  H22      1.0000 0.20410  0.77640  0.34080  Biso   1.000  H
  H23      1.0000 0.29590  0.27640  0.15920  Biso   1.000  H
  H24      1.0000 0.70410  0.27640  0.34080  Biso   1.000  H
  H25      1.0000 0.10360  0.13690  0.77830  Biso   1.000  H
  H26      1.0000 0.89640  0.13690  0.72170  Biso   1.000  H
  H27      1.0000 0.60360  0.63690  0.77830  Biso   1.000  H
  H28      1.0000 0.39640  0.63690  0.72170  Biso   1.000  H
  H29      1.0000 0.89640  0.86310  0.22170  Biso   1.000  H
  H30      1.0000 0.10360  0.86310  0.27830  Biso   1.000  H
  H31      1.0000 0.39640  0.36310  0.22170  Biso   1.000  H
  H32      1.0000 0.60360  0.36310  0.27830  Biso   1.000  H
  H33      1.0000 0.94440  0.17610  0.58620  Biso   1.000  H
  H34      1.0000 0.05560  0.17610  0.91380  Biso   1.000  H
  H35      1.0000 0.44440  0.67610  0.58620  Biso   1.000  H
  H36      1.0000 0.55560  0.67610  0.91380  Biso   1.000  H
  H37      1.0000 0.05560  0.82390  0.41380  Biso   1.000  H
  H38      1.0000 0.94440  0.82390  0.08620  Biso   1.000  H
  H39      1.0000 0.55560  0.32390  0.41380  Biso   1.000  H
  H40      1.0000 0.44440  0.32390  0.08620  Biso   1.000  H
  H41      1.0000 0.94230  0.28860  0.52650  Biso   1.000  H
  H42      1.0000 0.05770  0.28860  0.97350  Biso   1.000  H
  H43      1.0000 0.44230  0.78860  0.52650  Biso   1.000  H
  H44      1.0000 0.55770  0.78860  0.97350  Biso   1.000  H
  H45      1.0000 0.05770  0.71140  0.47350  Biso   1.000  H
  H46      1.0000 0.94230  0.71140  0.02650  Biso   1.000  H
  H47      1.0000 0.55770  0.21140  0.47350  Biso   1.000  H
  H48      1.0000 0.44230  0.21140  0.02650  Biso   1.000  H
  H49      1.0000 0.30690  0.83510  0.19190  Biso   1.000  H
  H50      1.0000 0.69310  0.83510  0.30810  Biso   1.000  H
  H51      1.0000 0.80690  0.33510  0.19190  Biso   1.000  H
  H52      1.0000 0.19310  0.33510  0.30810  Biso   1.000  H
  H53      1.0000 0.69310  0.16490  0.80810  Biso   1.000  H
  H54      1.0000 0.30690  0.16490  0.69190  Biso   1.000  H
  H55      1.0000 0.19310  0.66490  0.80810  Biso   1.000  H
  H56      1.0000 0.80690  0.66490  0.69190  Biso   1.000  H
  H57      1.0000 0.32650  0.76010  0.28970  Biso   1.000  H
  H58      1.0000 0.67350  0.76010  0.21030  Biso   1.000  H
  H59      1.0000 0.82650  0.26010  0.28970  Biso   1.000  H
  H60      1.0000 0.17350  0.26010  0.21030  Biso   1.000  H
  H61      1.0000 0.67350  0.23990  0.71030  Biso   1.000  H
  H62      1.0000 0.32650  0.23990  0.78970  Biso   1.000  H
  H63      1.0000 0.17350  0.73990  0.71030  Biso   1.000  H
  H64      1.0000 0.82650  0.73990  0.78970  Biso   1.000  H
  H65      1.0000 0.06480  0.69390  0.97420  Biso   1.000  H
  H66      1.0000 0.93520  0.69390  0.52580  Biso   1.000  H
  H67      1.0000 0.56480  0.19390  0.97420  Biso   1.000  H
  H68      1.0000 0.43520  0.19390  0.52580  Biso   1.000  H
  H69      1.0000 0.93520  0.30610  0.02580  Biso   1.000  H
  H70      1.0000 0.06480  0.30610  0.47420  Biso   1.000  H
  H71      1.0000 0.43520  0.80610  0.02580  Biso   1.000  H
  H72      1.0000 0.56480  0.80610  0.47420  Biso   1.000  H
  H73      1.0000 0.14640  0.79530  0.99940  Biso   1.000  H
  H74      1.0000 0.85360  0.79530  0.50060  Biso   1.000  H
  H75      1.0000 0.64640  0.29530  0.99940  Biso   1.000  H
  H76      1.0000 0.35360  0.29530  0.50060  Biso   1.000  H
  H77      1.0000 0.85360  0.20470  0.00060  Biso   1.000  H
  H78      1.0000 0.14640  0.20470  0.49940  Biso   1.000  H
  H79      1.0000 0.35360  0.70470  0.00060  Biso   1.000  H
  H80      1.0000 0.64640  0.70470  0.49940  Biso   1.000  H
  H81      1.0000 0.15130  0.03420  0.59220  Biso   1.000  H
  H82      1.0000 0.84870  0.03420  0.90780  Biso   1.000  H
  H83      1.0000 0.65130  0.53420  0.59220  Biso   1.000  H
  H84      1.0000 0.34870  0.53420  0.90780  Biso   1.000  H
  H85      1.0000 0.84870  0.96580  0.40780  Biso   1.000  H
  H86      1.0000 0.15130  0.96580  0.09220  Biso   1.000  H
  H87      1.0000 0.34870  0.46580  0.40780  Biso   1.000  H
  H88      1.0000 0.65130  0.46580  0.09220  Biso   1.000  H
  H89      1.0000 0.07100  0.02210  0.62640  Biso   1.000  H
  H90      1.0000 0.92900  0.02210  0.87360  Biso   1.000  H
  H91      1.0000 0.57100  0.52210  0.62640  Biso   1.000  H
  H92      1.0000 0.42900  0.52210  0.87360  Biso   1.000  H
  H93      1.0000 0.92900  0.97790  0.37360  Biso   1.000  H
  H94      1.0000 0.07100  0.97790  0.12640  Biso   1.000  H
  H95      1.0000 0.42900  0.47790  0.37360  Biso   1.000  H
  H96      1.0000 0.57100  0.47790  0.12640  Biso   1.000  H
