data_image0
_cell_length_a       14.1457
_cell_length_b       14.1457
_cell_length_c       7.6098
_cell_angle_alpha    90
_cell_angle_beta     90
_cell_angle_gamma    120

_symmetry_space_group_name_H-M    "P 1"
_symmetry_int_tables_number       1

loop_
  _symmetry_equiv_pos_as_xyz
  'x, y, z'

loop_
  _atom_site_label
  _atom_site_occupancy
  _atom_site_fract_x
  _atom_site_fract_y
  _atom_site_fract_z
  _atom_site_thermal_displace_type
  _atom_site_B_iso_or_equiv
  _atom_site_type_symbol
  Cu1      1.0000 0.33330  0.66670  0.20180  Biso   1.000  Cu
  Cu2      1.0000 0.66670  0.33330  0.70180  Biso   1.000  Cu
  I1       1.0000 0.33330  0.66670  0.54703  Biso   1.000  I
  I2       1.0000 0.66670  0.33330  0.04703  Biso   1.000  I
  O1       1.0000 0.06650  0.28010  0.56470  Biso   1.000  O
  O2       1.0000 0.71990  0.78640  0.56470  Biso   1.000  O
  O3       1.0000 0.21360  0.93350  0.56470  Biso   1.000  O
  O4       1.0000 0.93350  0.71990  0.06470  Biso   1.000  O
  O5       1.0000 0.28010  0.21360  0.06470  Biso   1.000  O
  O6       1.0000 0.78640  0.06650  0.06470  Biso   1.000  O
  N1       1.0000 0.18630  0.53430  0.12640  Biso   1.000  N
  N2       1.0000 0.46570  0.65200  0.12640  Biso   1.000  N
  N3       1.0000 0.34800  0.81370  0.12640  Biso   1.000  N
  N4       1.0000 0.81370  0.46570  0.62640  Biso   1.000  N
  N5       1.0000 0.53430  0.34800  0.62640  Biso   1.000  N
  N6       1.0000 0.65200  0.18630  0.62640  Biso   1.000  N
  N7       1.0000 0.92910  0.21040  0.37800  Biso   1.000  N
  N8       1.0000 0.78960  0.71870  0.37800  Biso   1.000  N
  N9       1.0000 0.28130  0.07090  0.37800  Biso   1.000  N
  N10      1.0000 0.07090  0.78960  0.87800  Biso   1.000  N
  N11      1.0000 0.21040  0.28130  0.87800  Biso   1.000  N
  N12      1.0000 0.71870  0.92910  0.87800  Biso   1.000  N
  H1       1.0000 0.87710  0.14940  0.33210  Biso   1.000  H
  H2       1.0000 0.85060  0.72770  0.33210  Biso   1.000  H
  H3       1.0000 0.27230  0.12290  0.33210  Biso   1.000  H
  H4       1.0000 0.12290  0.85060  0.83210  Biso   1.000  H
  H5       1.0000 0.14940  0.27230  0.83210  Biso   1.000  H
  H6       1.0000 0.72770  0.87710  0.83210  Biso   1.000  H
  C1       1.0000 0.16160  0.50850  0.95670  Biso   1.000  C
  C2       1.0000 0.49150  0.65310  0.95670  Biso   1.000  C
  C3       1.0000 0.34690  0.83840  0.95670  Biso   1.000  C
  C4       1.0000 0.83840  0.49150  0.45670  Biso   1.000  C
  C5       1.0000 0.50850  0.34690  0.45670  Biso   1.000  C
  C6       1.0000 0.65310  0.16160  0.45670  Biso   1.000  C
  H7       1.0000 0.21530  0.55060  0.87120  Biso   1.000  H
  H8       1.0000 0.44940  0.66470  0.87120  Biso   1.000  H
  H9       1.0000 0.33530  0.78470  0.87120  Biso   1.000  H
  H10      1.0000 0.78470  0.44940  0.37120  Biso   1.000  H
  H11      1.0000 0.55060  0.33530  0.37120  Biso   1.000  H
  H12      1.0000 0.66470  0.21530  0.37120  Biso   1.000  H
  C7       1.0000 0.06340  0.42480  0.89970  Biso   1.000  C
  C8       1.0000 0.57520  0.63860  0.89970  Biso   1.000  C
  C9       1.0000 0.36140  0.93660  0.89970  Biso   1.000  C
  C10      1.0000 0.93660  0.57520  0.39970  Biso   1.000  C
  C11      1.0000 0.42480  0.36140  0.39970  Biso   1.000  C
  C12      1.0000 0.63860  0.06340  0.39970  Biso   1.000  C
  H13      1.0000 0.05120  0.40970  0.77750  Biso   1.000  H
  H14      1.0000 0.59030  0.64150  0.77750  Biso   1.000  H
  H15      1.0000 0.35850  0.94880  0.77750  Biso   1.000  H
  H16      1.0000 0.94880  0.59030  0.27750  Biso   1.000  H
  H17      1.0000 0.40970  0.35850  0.27750  Biso   1.000  H
  H18      1.0000 0.64150  0.05120  0.27750  Biso   1.000  H
  C13      1.0000 0.98490  0.36450  0.01410  Biso   1.000  C
  C14      1.0000 0.63550  0.62040  0.01410  Biso   1.000  C
  C15      1.0000 0.37960  0.01510  0.01410  Biso   1.000  C
  C16      1.0000 0.01510  0.63550  0.51410  Biso   1.000  C
  C17      1.0000 0.36450  0.37960  0.51410  Biso   1.000  C
  C18      1.0000 0.62040  0.98490  0.51410  Biso   1.000  C
  H19      1.0000 0.91570  0.30790  0.97550  Biso   1.000  H
  H20      1.0000 0.69210  0.60780  0.97550  Biso   1.000  H
  H21      1.0000 0.39220  0.08430  0.97550  Biso   1.000  H
  H22      1.0000 0.08430  0.69210  0.47550  Biso   1.000  H
  H23      1.0000 0.30790  0.39220  0.47550  Biso   1.000  H
  H24      1.0000 0.60780  0.91570  0.47550  Biso   1.000  H
  C19      1.0000 0.00740  0.38700  0.19110  Biso   1.000  C
  C20      1.0000 0.61300  0.62040  0.19110  Biso   1.000  C
  C21      1.0000 0.37960  0.99260  0.19110  Biso   1.000  C
  C22      1.0000 0.99260  0.61300  0.69110  Biso   1.000  C
  C23      1.0000 0.38700  0.37960  0.69110  Biso   1.000  C
  C24      1.0000 0.62040  0.00740  0.69110  Biso   1.000  C
  C25      1.0000 0.11080  0.47310  0.24170  Biso   1.000  C
  C26      1.0000 0.52690  0.63770  0.24170  Biso   1.000  C
  C27      1.0000 0.36230  0.88920  0.24170  Biso   1.000  C
  C28      1.0000 0.88920  0.52690  0.74170  Biso   1.000  C
  C29      1.0000 0.47310  0.36230  0.74170  Biso   1.000  C
  C30      1.0000 0.63770  0.11080  0.74170  Biso   1.000  C
  H25      1.0000 0.12650  0.48750  0.36330  Biso   1.000  H
  H26      1.0000 0.51250  0.63900  0.36330  Biso   1.000  H
  H27      1.0000 0.36100  0.87350  0.36330  Biso   1.000  H
  H28      1.0000 0.87350  0.51250  0.86330  Biso   1.000  H
  H29      1.0000 0.48750  0.36100  0.86330  Biso   1.000  H
  H30      1.0000 0.63900  0.12650  0.86330  Biso   1.000  H
  C31      1.0000 0.92880  0.31490  0.33540  Biso   1.000  C
  C32      1.0000 0.68510  0.61390  0.33540  Biso   1.000  C
  C33      1.0000 0.38610  0.07120  0.33540  Biso   1.000  C
  C34      1.0000 0.07120  0.68510  0.83540  Biso   1.000  C
  C35      1.0000 0.31490  0.38610  0.83540  Biso   1.000  C
  C36      1.0000 0.61390  0.92880  0.83540  Biso   1.000  C
  H31      1.0000 0.94620  0.35890  0.44430  Biso   1.000  H
  H32      1.0000 0.64110  0.58730  0.44430  Biso   1.000  H
  H33      1.0000 0.41270  0.05380  0.44430  Biso   1.000  H
  H34      1.0000 0.05380  0.64110  0.94430  Biso   1.000  H
  H35      1.0000 0.35890  0.41270  0.94430  Biso   1.000  H
  H36      1.0000 0.58730  0.94620  0.94430  Biso   1.000  H
  H37      1.0000 0.85380  0.29540  0.30020  Biso   1.000  H
  H38      1.0000 0.70460  0.55840  0.30020  Biso   1.000  H
  H39      1.0000 0.44160  0.14620  0.30020  Biso   1.000  H
  H40      1.0000 0.14620  0.70460  0.80020  Biso   1.000  H
  H41      1.0000 0.29540  0.44160  0.80020  Biso   1.000  H
  H42      1.0000 0.55840  0.85380  0.80020  Biso   1.000  H
  C37      1.0000 0.99830  0.20440  0.47410  Biso   1.000  C
  C38      1.0000 0.79560  0.79390  0.47410  Biso   1.000  C
  C39      1.0000 0.20610  0.00170  0.47410  Biso   1.000  C
  C40      1.0000 0.00170  0.79560  0.97410  Biso   1.000  C
  C41      1.0000 0.20440  0.20610  0.97410  Biso   1.000  C
  C42      1.0000 0.79390  0.99830  0.97410  Biso   1.000  C
  C43      1.0000 0.99870  0.09720  0.46820  Biso   1.000  C
  C44      1.0000 0.90280  0.90150  0.46820  Biso   1.000  C
  C45      1.0000 0.09850  0.00130  0.46820  Biso   1.000  C
  C46      1.0000 0.00130  0.90280  0.96820  Biso   1.000  C
  C47      1.0000 0.09720  0.09850  0.96820  Biso   1.000  C
  C48      1.0000 0.90150  0.99870  0.96820  Biso   1.000  C
  C49      1.0000 0.09690  0.09890  0.47010  Biso   1.000  C
  C50      1.0000 0.90110  0.99800  0.47010  Biso   1.000  C
  C51      1.0000 0.00200  0.90310  0.47010  Biso   1.000  C
  C52      1.0000 0.90310  0.90110  0.97010  Biso   1.000  C
  C53      1.0000 0.09890  0.00200  0.97010  Biso   1.000  C
  C54      1.0000 0.99800  0.09690  0.97010  Biso   1.000  C
  H43      1.0000 0.16350  0.16660  0.47280  Biso   1.000  H
  H44      1.0000 0.83340  0.99690  0.47280  Biso   1.000  H
  H45      1.0000 0.00310  0.83650  0.47280  Biso   1.000  H
  H46      1.0000 0.83650  0.83340  0.97280  Biso   1.000  H
  H47      1.0000 0.16660  0.00310  0.97280  Biso   1.000  H
  H48      1.0000 0.99690  0.16350  0.97280  Biso   1.000  H
