data_image0
_cell_length_a       9.5
_cell_length_b       22.79
_cell_length_c       7.889
_cell_angle_alpha    90
_cell_angle_beta     111.06
_cell_angle_gamma    90

_symmetry_space_group_name_H-M    "P 1"
_symmetry_int_tables_number       1

loop_
  _symmetry_equiv_pos_as_xyz
  'x, y, z'

loop_
  _atom_site_label
  _atom_site_occupancy
  _atom_site_fract_x
  _atom_site_fract_y
  _atom_site_fract_z
  _atom_site_thermal_displace_type
  _atom_site_B_iso_or_equiv
  _atom_site_type_symbol
  Cu1      1.0000 0.13237  0.48463  0.03420  Biso   1.000  Cu
  Cu2      1.0000 0.86763  0.98463  0.46580  Biso   1.000  Cu
  Cu3      1.0000 0.86763  0.51537  0.96580  Biso   1.000  Cu
  Cu4      1.0000 0.13237  0.01537  0.53420  Biso   1.000  Cu
  S1       1.0000 0.46380  0.52850  0.26620  Biso   1.000  S
  S2       1.0000 0.53620  0.02850  0.23380  Biso   1.000  S
  S3       1.0000 0.53620  0.47150  0.73380  Biso   1.000  S
  S4       1.0000 0.46380  0.97150  0.76620  Biso   1.000  S
  N1       1.0000 0.38000  0.63390  0.22750  Biso   1.000  N
  N2       1.0000 0.62000  0.13390  0.27250  Biso   1.000  N
  N3       1.0000 0.62000  0.36610  0.77250  Biso   1.000  N
  N4       1.0000 0.38000  0.86610  0.72750  Biso   1.000  N
  N5       1.0000 0.18040  0.56450  0.10160  Biso   1.000  N
  N6       1.0000 0.81960  0.06450  0.39840  Biso   1.000  N
  N7       1.0000 0.81960  0.43550  0.89840  Biso   1.000  N
  N8       1.0000 0.18040  0.93550  0.60160  Biso   1.000  N
  N9       1.0000 0.06700  0.40510  0.01570  Biso   1.000  N
  N10      1.0000 0.93300  0.90510  0.48430  Biso   1.000  N
  N11      1.0000 0.93300  0.59490  0.98430  Biso   1.000  N
  N12      1.0000 0.06700  0.09490  0.51570  Biso   1.000  N
  N13      1.0000 0.13430  0.30480  0.03280  Biso   1.000  N
  N14      1.0000 0.86570  0.80480  0.46720  Biso   1.000  N
  N15      1.0000 0.86570  0.69520  0.96720  Biso   1.000  N
  N16      1.0000 0.13430  0.19520  0.53280  Biso   1.000  N
  C1       1.0000 0.32510  0.58010  0.18710  Biso   1.000  C
  C2       1.0000 0.67490  0.08010  0.31290  Biso   1.000  C
  C3       1.0000 0.67490  0.41990  0.81290  Biso   1.000  C
  C4       1.0000 0.32510  0.91990  0.68710  Biso   1.000  C
  C5       1.0000 0.53640  0.63550  0.32530  Biso   1.000  C
  C6       1.0000 0.46360  0.13550  0.17470  Biso   1.000  C
  C7       1.0000 0.46360  0.36450  0.67470  Biso   1.000  C
  C8       1.0000 0.53640  0.86450  0.82530  Biso   1.000  C
  C9       1.0000 0.59750  0.58200  0.36040  Biso   1.000  C
  C10      1.0000 0.40250  0.08200  0.13960  Biso   1.000  C
  C11      1.0000 0.40250  0.41800  0.63960  Biso   1.000  C
  C12      1.0000 0.59750  0.91800  0.86040  Biso   1.000  C
  C13      1.0000 0.28410  0.68600  0.16670  Biso   1.000  C
  C14      1.0000 0.71590  0.18600  0.33330  Biso   1.000  C
  C15      1.0000 0.71590  0.31400  0.83330  Biso   1.000  C
  C16      1.0000 0.28410  0.81400  0.66670  Biso   1.000  C
  C17      1.0000 0.12300  0.66850  0.08680  Biso   1.000  C
  C18      1.0000 0.87700  0.16850  0.41320  Biso   1.000  C
  C19      1.0000 0.87700  0.33150  0.91320  Biso   1.000  C
  C20      1.0000 0.12300  0.83150  0.58680  Biso   1.000  C
  C21      1.0000 0.07920  0.61000  0.05560  Biso   1.000  C
  C22      1.0000 0.92080  0.11000  0.44440  Biso   1.000  C
  C23      1.0000 0.92080  0.39000  0.94440  Biso   1.000  C
  C24      1.0000 0.07920  0.89000  0.55560  Biso   1.000  C
  C25      1.0000 0.16980  0.36050  0.05900  Biso   1.000  C
  C26      1.0000 0.83020  0.86050  0.44100  Biso   1.000  C
  C27      1.0000 0.83020  0.63950  0.94100  Biso   1.000  C
  C28      1.0000 0.16980  0.13950  0.55900  Biso   1.000  C
  C29      1.0000 0.01330  0.70880  0.03940  Biso   1.000  C
  C30      1.0000 0.98670  0.20880  0.46060  Biso   1.000  C
  C31      1.0000 0.98670  0.29120  0.96060  Biso   1.000  C
  C32      1.0000 0.01330  0.79120  0.53940  Biso   1.000  C
  C33      1.0000 0.33330  0.37650  0.13460  Biso   1.000  C
  C34      1.0000 0.66670  0.87650  0.36540  Biso   1.000  C
  C35      1.0000 0.66670  0.62350  0.86540  Biso   1.000  C
  C36      1.0000 0.33330  0.12350  0.63460  Biso   1.000  C
  C37      1.0000 0.60860  0.69320  0.38280  Biso   1.000  C
  C38      1.0000 0.39140  0.19320  0.11720  Biso   1.000  C
  C39      1.0000 0.39140  0.30680  0.61720  Biso   1.000  C
  C40      1.0000 0.60860  0.80680  0.88280  Biso   1.000  C
  C41      1.0000 0.75990  0.56410  0.46390  Biso   1.000  C
  C42      1.0000 0.24010  0.06410  0.03610  Biso   1.000  C
  C43      1.0000 0.24010  0.43590  0.53610  Biso   1.000  C
  C44      1.0000 0.75990  0.93590  0.96390  Biso   1.000  C
  C45      1.0000 0.85010  0.55690  0.34570  Biso   1.000  C
  C46      1.0000 0.14990  0.05690  0.15430  Biso   1.000  C
  C47      1.0000 0.14990  0.44310  0.65430  Biso   1.000  C
  C48      1.0000 0.85010  0.94310  0.84570  Biso   1.000  C
  O1       1.0000 0.78210  0.51790  0.19880  Biso   1.000  O
  O2       1.0000 0.21790  0.01790  0.30120  Biso   1.000  O
  O3       1.0000 0.21790  0.48210  0.80120  Biso   1.000  O
  O4       1.0000 0.78210  0.98210  0.69880  Biso   1.000  O
  Cl1      1.0000 0.76330  0.36552  0.35950  Biso   1.000  Cl
  Cl2      1.0000 0.23670  0.86552  0.14050  Biso   1.000  Cl
  Cl3      1.0000 0.23670  0.63448  0.64050  Biso   1.000  Cl
  Cl4      1.0000 0.76330  0.13448  0.85950  Biso   1.000  Cl
  O5       1.0000 0.91390  0.35540  0.37490  Biso   1.000  O
  O6       1.0000 0.08610  0.85540  0.12510  Biso   1.000  O
  O7       1.0000 0.08610  0.64460  0.62510  Biso   1.000  O
  O8       1.0000 0.91390  0.14460  0.87490  Biso   1.000  O
  O9       1.0000 0.68880  0.32290  0.41710  Biso   1.000  O
  O10      1.0000 0.31120  0.82290  0.08290  Biso   1.000  O
  O11      1.0000 0.31120  0.67710  0.58290  Biso   1.000  O
  O12      1.0000 0.68880  0.17710  0.91710  Biso   1.000  O
  O13      1.0000 0.68370  0.38870  0.18610  Biso   1.000  O
  O14      1.0000 0.31630  0.88870  0.31390  Biso   1.000  O
  O15      1.0000 0.31630  0.61130  0.81390  Biso   1.000  O
  O16      1.0000 0.68370  0.11130  0.68610  Biso   1.000  O
  O17      1.0000 0.76290  0.41400  0.46420  Biso   1.000  O
  O18      1.0000 0.23710  0.91400  0.03580  Biso   1.000  O
  O19      1.0000 0.23710  0.58600  0.53580  Biso   1.000  O
  O20      1.0000 0.76290  0.08600  0.96420  Biso   1.000  O
  O21      1.0000 0.86240  0.34250  0.52680  Biso   1.000  O
  O22      1.0000 0.13760  0.84250  0.97320  Biso   1.000  O
  O23      1.0000 0.13760  0.65750  0.47320  Biso   1.000  O
  O24      1.0000 0.86240  0.15750  0.02680  Biso   1.000  O
  O25      1.0000 0.85320  0.39190  0.28220  Biso   1.000  O
  O26      1.0000 0.14680  0.89190  0.21780  Biso   1.000  O
  O27      1.0000 0.14680  0.60810  0.71780  Biso   1.000  O
  O28      1.0000 0.85320  0.10810  0.78220  Biso   1.000  O
  O29      1.0000 0.68220  0.32660  0.23620  Biso   1.000  O
  O30      1.0000 0.31780  0.82660  0.26380  Biso   1.000  O
  O31      1.0000 0.31780  0.67340  0.76380  Biso   1.000  O
  O32      1.0000 0.68220  0.17340  0.73620  Biso   1.000  O
  O33      1.0000 0.67850  0.41380  0.39010  Biso   1.000  O
  O34      1.0000 0.32150  0.91380  0.10990  Biso   1.000  O
  O35      1.0000 0.32150  0.58620  0.60990  Biso   1.000  O
  O36      1.0000 0.67850  0.08620  0.89010  Biso   1.000  O
  H1       1.0000 0.29400  0.70400  0.27800  Biso   1.000  H
  H2       1.0000 0.70600  0.20400  0.22200  Biso   1.000  H
  H3       1.0000 0.70600  0.29600  0.72200  Biso   1.000  H
  H4       1.0000 0.29400  0.79600  0.77800  Biso   1.000  H
  H5       1.0000 0.31400  0.70200  0.08700  Biso   1.000  H
  H6       1.0000 0.68600  0.20200  0.41300  Biso   1.000  H
  H7       1.0000 0.68600  0.29800  0.91300  Biso   1.000  H
  H8       1.0000 0.31400  0.79800  0.58700  Biso   1.000  H
  H9       1.0000 0.04400  0.74200  0.09700  Biso   1.000  H
  H10      1.0000 0.95600  0.24200  0.40300  Biso   1.000  H
  H11      1.0000 0.95600  0.25800  0.90300  Biso   1.000  H
  H12      1.0000 0.04400  0.75800  0.59700  Biso   1.000  H
  H13      1.0000 0.34900  0.40400  0.27300  Biso   1.000  H
  H14      1.0000 0.65100  0.90400  0.22700  Biso   1.000  H
  H15      1.0000 0.65100  0.59600  0.72700  Biso   1.000  H
  H16      1.0000 0.34900  0.09600  0.77300  Biso   1.000  H
  H17      1.0000 0.41800  0.33800  0.13800  Biso   1.000  H
  H18      1.0000 0.58200  0.83800  0.36200  Biso   1.000  H
  H19      1.0000 0.58200  0.66200  0.86200  Biso   1.000  H
  H20      1.0000 0.41800  0.16200  0.63800  Biso   1.000  H
  H21      1.0000 0.36700  0.40500  0.02800  Biso   1.000  H
  H22      1.0000 0.63300  0.90500  0.47200  Biso   1.000  H
  H23      1.0000 0.63300  0.59500  0.97200  Biso   1.000  H
  H24      1.0000 0.36700  0.09500  0.52800  Biso   1.000  H
  H25      1.0000 0.55400  0.72600  0.40300  Biso   1.000  H
  H26      1.0000 0.44600  0.22600  0.09700  Biso   1.000  H
  H27      1.0000 0.44600  0.27400  0.59700  Biso   1.000  H
  H28      1.0000 0.55400  0.77400  0.90300  Biso   1.000  H
  H29      1.0000 0.72500  0.69100  0.46200  Biso   1.000  H
  H30      1.0000 0.27500  0.19100  0.03800  Biso   1.000  H
  H31      1.0000 0.27500  0.30900  0.53800  Biso   1.000  H
  H32      1.0000 0.72500  0.80900  0.96200  Biso   1.000  H
  H33      1.0000 0.61900  0.71600  0.31400  Biso   1.000  H
  H34      1.0000 0.38100  0.21600  0.18600  Biso   1.000  H
  H35      1.0000 0.38100  0.28400  0.68600  Biso   1.000  H
  H36      1.0000 0.61900  0.78400  0.81400  Biso   1.000  H
  H37      1.0000 0.80000  0.59600  0.54300  Biso   1.000  H
  H38      1.0000 0.20000  0.09600  0.95700  Biso   1.000  H
  H39      1.0000 0.20000  0.40400  0.45700  Biso   1.000  H
  H40      1.0000 0.80000  0.90400  0.04300  Biso   1.000  H
  H41      1.0000 0.76400  0.52200  0.54300  Biso   1.000  H
  H42      1.0000 0.23600  0.02200  0.95700  Biso   1.000  H
  H43      1.0000 0.23600  0.47800  0.45700  Biso   1.000  H
  H44      1.0000 0.76400  0.97800  0.04300  Biso   1.000  H
  H45      1.0000 0.96200  0.54300  0.41600  Biso   1.000  H
  H46      1.0000 0.03800  0.04300  0.08400  Biso   1.000  H
  H47      1.0000 0.03800  0.45700  0.58400  Biso   1.000  H
  H48      1.0000 0.96200  0.95700  0.91600  Biso   1.000  H
  H49      1.0000 0.85900  0.60100  0.29900  Biso   1.000  H
  H50      1.0000 0.14100  0.10100  0.20100  Biso   1.000  H
  H51      1.0000 0.14100  0.39900  0.70100  Biso   1.000  H
  H52      1.0000 0.85900  0.89900  0.79900  Biso   1.000  H
  H53      1.0000 0.77900  0.49800  0.22700  Biso   1.000  H
  H54      1.0000 0.22100  0.99800  0.27300  Biso   1.000  H
  H55      1.0000 0.22100  0.50200  0.77300  Biso   1.000  H
  H56      1.0000 0.77900  0.00200  0.72700  Biso   1.000  H
