data_image0
_cell_length_a       17.502
_cell_length_b       12.047
_cell_length_c       13.664
_cell_angle_alpha    90
_cell_angle_beta     129.52
_cell_angle_gamma    90

_symmetry_space_group_name_H-M    "P 1"
_symmetry_int_tables_number       1

loop_
  _symmetry_equiv_pos_as_xyz
  'x, y, z'

loop_
  _atom_site_label
  _atom_site_occupancy
  _atom_site_fract_x
  _atom_site_fract_y
  _atom_site_fract_z
  _atom_site_thermal_displace_type
  _atom_site_B_iso_or_equiv
  _atom_site_type_symbol
  Cu1      1.0000 0.39530  0.99211  0.59335  Biso   1.000  Cu
  Cu2      1.0000 0.89530  0.49211  0.59335  Biso   1.000  Cu
  Cu3      1.0000 0.60470  0.99211  0.90665  Biso   1.000  Cu
  Cu4      1.0000 0.10470  0.49211  0.90665  Biso   1.000  Cu
  Cu5      1.0000 0.60470  0.00789  0.40665  Biso   1.000  Cu
  Cu6      1.0000 0.10470  0.50789  0.40665  Biso   1.000  Cu
  Cu7      1.0000 0.39530  0.00789  0.09335  Biso   1.000  Cu
  Cu8      1.0000 0.89530  0.50789  0.09335  Biso   1.000  Cu
  Br1      1.0000 0.41669  0.99265  0.79367  Biso   1.000  Br
  Br2      1.0000 0.91669  0.49265  0.79367  Biso   1.000  Br
  Br3      1.0000 0.58331  0.99265  0.70633  Biso   1.000  Br
  Br4      1.0000 0.08331  0.49265  0.70633  Biso   1.000  Br
  Br5      1.0000 0.58331  0.00735  0.20633  Biso   1.000  Br
  Br6      1.0000 0.08331  0.50735  0.20633  Biso   1.000  Br
  Br7      1.0000 0.41669  0.00735  0.29367  Biso   1.000  Br
  Br8      1.0000 0.91669  0.50735  0.29367  Biso   1.000  Br
  N1       1.0000 0.40340  0.41060  0.54330  Biso   1.000  N
  N2       1.0000 0.90340  0.91060  0.54330  Biso   1.000  N
  N3       1.0000 0.59660  0.41060  0.95670  Biso   1.000  N
  N4       1.0000 0.09660  0.91060  0.95670  Biso   1.000  N
  N5       1.0000 0.59660  0.58940  0.45670  Biso   1.000  N
  N6       1.0000 0.09660  0.08940  0.45670  Biso   1.000  N
  N7       1.0000 0.40340  0.58940  0.04330  Biso   1.000  N
  N8       1.0000 0.90340  0.08940  0.04330  Biso   1.000  N
  N9       1.0000 0.36500  0.45820  0.35970  Biso   1.000  N
  N10      1.0000 0.86500  0.95820  0.35970  Biso   1.000  N
  N11      1.0000 0.63500  0.45820  0.14030  Biso   1.000  N
  N12      1.0000 0.13500  0.95820  0.14030  Biso   1.000  N
  N13      1.0000 0.63500  0.54180  0.64030  Biso   1.000  N
  N14      1.0000 0.13500  0.04180  0.64030  Biso   1.000  N
  N15      1.0000 0.36500  0.54180  0.85970  Biso   1.000  N
  N16      1.0000 0.86500  0.04180  0.85970  Biso   1.000  N
  N17      1.0000 0.38350  0.35080  0.37430  Biso   1.000  N
  N18      1.0000 0.88350  0.85080  0.37430  Biso   1.000  N
  N19      1.0000 0.61650  0.35080  0.12570  Biso   1.000  N
  N20      1.0000 0.11650  0.85080  0.12570  Biso   1.000  N
  N21      1.0000 0.61650  0.64920  0.62570  Biso   1.000  N
  N22      1.0000 0.11650  0.14920  0.62570  Biso   1.000  N
  N23      1.0000 0.38350  0.64920  0.87430  Biso   1.000  N
  N24      1.0000 0.88350  0.14920  0.87430  Biso   1.000  N
  N25      1.0000 0.40550  0.32500  0.48330  Biso   1.000  N
  N26      1.0000 0.90550  0.82500  0.48330  Biso   1.000  N
  N27      1.0000 0.59450  0.32500  0.01670  Biso   1.000  N
  N28      1.0000 0.09450  0.82500  0.01670  Biso   1.000  N
  N29      1.0000 0.59450  0.67500  0.51670  Biso   1.000  N
  N30      1.0000 0.09450  0.17500  0.51670  Biso   1.000  N
  N31      1.0000 0.40550  0.67500  0.98330  Biso   1.000  N
  N32      1.0000 0.90550  0.17500  0.98330  Biso   1.000  N
  N33      1.0000 0.36450  0.83170  0.53860  Biso   1.000  N
  N34      1.0000 0.86450  0.33170  0.53860  Biso   1.000  N
  N35      1.0000 0.63550  0.83170  0.96140  Biso   1.000  N
  N36      1.0000 0.13550  0.33170  0.96140  Biso   1.000  N
  N37      1.0000 0.63550  0.16830  0.46140  Biso   1.000  N
  N38      1.0000 0.13550  0.66830  0.46140  Biso   1.000  N
  N39      1.0000 0.36450  0.16830  0.03860  Biso   1.000  N
  N40      1.0000 0.86450  0.66830  0.03860  Biso   1.000  N
  C1       1.0000 0.29050  0.08490  0.43670  Biso   1.000  C
  C2       1.0000 0.79050  0.58490  0.43670  Biso   1.000  C
  C3       1.0000 0.70950  0.08490  0.06330  Biso   1.000  C
  C4       1.0000 0.20950  0.58490  0.06330  Biso   1.000  C
  C5       1.0000 0.70950  0.91510  0.56330  Biso   1.000  C
  C6       1.0000 0.20950  0.41510  0.56330  Biso   1.000  C
  C7       1.0000 0.29050  0.91510  0.93670  Biso   1.000  C
  C8       1.0000 0.79050  0.41510  0.93670  Biso   1.000  C
  H1       1.0000 0.29090  0.08070  0.36610  Biso   1.000  H
  H2       1.0000 0.79090  0.58070  0.36610  Biso   1.000  H
  H3       1.0000 0.70910  0.08070  0.13390  Biso   1.000  H
  H4       1.0000 0.20910  0.58070  0.13390  Biso   1.000  H
  H5       1.0000 0.70910  0.91930  0.63390  Biso   1.000  H
  H6       1.0000 0.20910  0.41930  0.63390  Biso   1.000  H
  H7       1.0000 0.29090  0.91930  0.86610  Biso   1.000  H
  H8       1.0000 0.79090  0.41930  0.86610  Biso   1.000  H
  H9       1.0000 0.22430  0.08360  0.41050  Biso   1.000  H
  H10      1.0000 0.72430  0.58360  0.41050  Biso   1.000  H
  H11      1.0000 0.77570  0.08360  0.08950  Biso   1.000  H
  H12      1.0000 0.27570  0.58360  0.08950  Biso   1.000  H
  H13      1.0000 0.77570  0.91640  0.58950  Biso   1.000  H
  H14      1.0000 0.27570  0.41640  0.58950  Biso   1.000  H
  H15      1.0000 0.22430  0.91640  0.91050  Biso   1.000  H
  H16      1.0000 0.72430  0.41640  0.91050  Biso   1.000  H
  C9       1.0000 0.35480  0.15740  0.52990  Biso   1.000  C
  C10      1.0000 0.85480  0.65740  0.52990  Biso   1.000  C
  C11      1.0000 0.64520  0.15740  0.97010  Biso   1.000  C
  C12      1.0000 0.14520  0.65740  0.97010  Biso   1.000  C
  C13      1.0000 0.64520  0.84260  0.47010  Biso   1.000  C
  C14      1.0000 0.14520  0.34260  0.47010  Biso   1.000  C
  C15      1.0000 0.35480  0.84260  0.02990  Biso   1.000  C
  C16      1.0000 0.85480  0.34260  0.02990  Biso   1.000  C
  H17      1.0000 0.32950  0.20010  0.56480  Biso   1.000  H
  H18      1.0000 0.82950  0.70010  0.56480  Biso   1.000  H
  H19      1.0000 0.67050  0.20010  0.93520  Biso   1.000  H
  H20      1.0000 0.17050  0.70010  0.93520  Biso   1.000  H
  H21      1.0000 0.67050  0.79990  0.43520  Biso   1.000  H
  H22      1.0000 0.17050  0.29990  0.43520  Biso   1.000  H
  H23      1.0000 0.32950  0.79990  0.06480  Biso   1.000  H
  H24      1.0000 0.82950  0.29990  0.06480  Biso   1.000  H
  C17      1.0000 0.43500  0.21200  0.53680  Biso   1.000  C
  C18      1.0000 0.93500  0.71200  0.53680  Biso   1.000  C
  C19      1.0000 0.56500  0.21200  0.96320  Biso   1.000  C
  C20      1.0000 0.06500  0.71200  0.96320  Biso   1.000  C
  C21      1.0000 0.56500  0.78800  0.46320  Biso   1.000  C
  C22      1.0000 0.06500  0.28800  0.46320  Biso   1.000  C
  C23      1.0000 0.43500  0.78800  0.03680  Biso   1.000  C
  C24      1.0000 0.93500  0.28800  0.03680  Biso   1.000  C
  H25      1.0000 0.49500  0.21570  0.62460  Biso   1.000  H
  H26      1.0000 0.99500  0.71570  0.62460  Biso   1.000  H
  H27      1.0000 0.50500  0.21570  0.87540  Biso   1.000  H
  H28      1.0000 0.00500  0.71570  0.87540  Biso   1.000  H
  H29      1.0000 0.50500  0.78430  0.37540  Biso   1.000  H
  H30      1.0000 0.00500  0.28430  0.37540  Biso   1.000  H
  H31      1.0000 0.49500  0.78430  0.12460  Biso   1.000  H
  H32      1.0000 0.99500  0.28430  0.12460  Biso   1.000  H
  H33      1.0000 0.44880  0.16810  0.49020  Biso   1.000  H
  H34      1.0000 0.94880  0.66810  0.49020  Biso   1.000  H
  H35      1.0000 0.55120  0.16810  0.00980  Biso   1.000  H
  H36      1.0000 0.05120  0.66810  0.00980  Biso   1.000  H
  H37      1.0000 0.55120  0.83190  0.50980  Biso   1.000  H
  H38      1.0000 0.05120  0.33190  0.50980  Biso   1.000  H
  H39      1.0000 0.44880  0.83190  0.99020  Biso   1.000  H
  H40      1.0000 0.94880  0.33190  0.99020  Biso   1.000  H
  C25      1.0000 0.34560  0.69200  0.40130  Biso   1.000  C
  C26      1.0000 0.84560  0.19200  0.40130  Biso   1.000  C
  C27      1.0000 0.65440  0.69200  0.09870  Biso   1.000  C
  C28      1.0000 0.15440  0.19200  0.09870  Biso   1.000  C
  C29      1.0000 0.65440  0.30800  0.59870  Biso   1.000  C
  C30      1.0000 0.15440  0.80800  0.59870  Biso   1.000  C
  C31      1.0000 0.34560  0.30800  0.90130  Biso   1.000  C
  C32      1.0000 0.84560  0.80800  0.90130  Biso   1.000  C
  H41      1.0000 0.33170  0.67420  0.32510  Biso   1.000  H
  H42      1.0000 0.83170  0.17420  0.32510  Biso   1.000  H
  H43      1.0000 0.66830  0.67420  0.17490  Biso   1.000  H
  H44      1.0000 0.16830  0.17420  0.17490  Biso   1.000  H
  H45      1.0000 0.66830  0.32580  0.67490  Biso   1.000  H
  H46      1.0000 0.16830  0.82580  0.67490  Biso   1.000  H
  H47      1.0000 0.33170  0.32580  0.82510  Biso   1.000  H
  H48      1.0000 0.83170  0.82580  0.82510  Biso   1.000  H
  C33      1.0000 0.36730  0.60900  0.48590  Biso   1.000  C
  C34      1.0000 0.86730  0.10900  0.48590  Biso   1.000  C
  C35      1.0000 0.63270  0.60900  0.01410  Biso   1.000  C
  C36      1.0000 0.13270  0.10900  0.01410  Biso   1.000  C
  C37      1.0000 0.63270  0.39100  0.51410  Biso   1.000  C
  C38      1.0000 0.13270  0.89100  0.51410  Biso   1.000  C
  C39      1.0000 0.36730  0.39100  0.98590  Biso   1.000  C
  C40      1.0000 0.86730  0.89100  0.98590  Biso   1.000  C
  C41      1.0000 0.38070  0.75130  0.61680  Biso   1.000  C
  C42      1.0000 0.88070  0.25130  0.61680  Biso   1.000  C
  C43      1.0000 0.61930  0.75130  0.88320  Biso   1.000  C
  C44      1.0000 0.11930  0.25130  0.88320  Biso   1.000  C
  C45      1.0000 0.61930  0.24870  0.38320  Biso   1.000  C
  C46      1.0000 0.11930  0.74870  0.38320  Biso   1.000  C
  C47      1.0000 0.38070  0.24870  0.11680  Biso   1.000  C
  C48      1.0000 0.88070  0.74870  0.11680  Biso   1.000  C
  H49      1.0000 0.39090  0.77110  0.69010  Biso   1.000  H
  H50      1.0000 0.89090  0.27110  0.69010  Biso   1.000  H
  H51      1.0000 0.60910  0.77110  0.80990  Biso   1.000  H
  H52      1.0000 0.10910  0.27110  0.80990  Biso   1.000  H
  H53      1.0000 0.60910  0.22890  0.30990  Biso   1.000  H
  H54      1.0000 0.10910  0.72890  0.30990  Biso   1.000  H
  H55      1.0000 0.39090  0.22890  0.19010  Biso   1.000  H
  H56      1.0000 0.89090  0.72890  0.19010  Biso   1.000  H
  C49      1.0000 0.34510  0.80070  0.43100  Biso   1.000  C
  C50      1.0000 0.84510  0.30070  0.43100  Biso   1.000  C
  C51      1.0000 0.65490  0.80070  0.06900  Biso   1.000  C
  C52      1.0000 0.15490  0.30070  0.06900  Biso   1.000  C
  C53      1.0000 0.65490  0.19930  0.56900  Biso   1.000  C
  C54      1.0000 0.15490  0.69930  0.56900  Biso   1.000  C
  C55      1.0000 0.34510  0.19930  0.93100  Biso   1.000  C
  C56      1.0000 0.84510  0.69930  0.93100  Biso   1.000  C
  H57      1.0000 0.33040  0.85540  0.37320  Biso   1.000  H
  H58      1.0000 0.83040  0.35540  0.37320  Biso   1.000  H
  H59      1.0000 0.66960  0.85540  0.12680  Biso   1.000  H
  H60      1.0000 0.16960  0.35540  0.12680  Biso   1.000  H
  H61      1.0000 0.66960  0.14460  0.62680  Biso   1.000  H
  H62      1.0000 0.16960  0.64460  0.62680  Biso   1.000  H
  H63      1.0000 0.33040  0.14460  0.87320  Biso   1.000  H
  H64      1.0000 0.83040  0.64460  0.87320  Biso   1.000  H
  C57      1.0000 0.38300  0.64030  0.59450  Biso   1.000  C
  C58      1.0000 0.88300  0.14030  0.59450  Biso   1.000  C
  C59      1.0000 0.61700  0.64030  0.90550  Biso   1.000  C
  C60      1.0000 0.11700  0.14030  0.90550  Biso   1.000  C
  C61      1.0000 0.61700  0.35970  0.40550  Biso   1.000  C
  C62      1.0000 0.11700  0.85970  0.40550  Biso   1.000  C
  C63      1.0000 0.38300  0.35970  0.09450  Biso   1.000  C
  C64      1.0000 0.88300  0.85970  0.09450  Biso   1.000  C
  H65      1.0000 0.39510  0.58710  0.65220  Biso   1.000  H
  H66      1.0000 0.89510  0.08710  0.65220  Biso   1.000  H
  H67      1.0000 0.60490  0.58710  0.84780  Biso   1.000  H
  H68      1.0000 0.10490  0.08710  0.84780  Biso   1.000  H
  H69      1.0000 0.60490  0.41290  0.34780  Biso   1.000  H
  H70      1.0000 0.10490  0.91290  0.34780  Biso   1.000  H
  H71      1.0000 0.39510  0.41290  0.15220  Biso   1.000  H
  H72      1.0000 0.89510  0.91290  0.15220  Biso   1.000  H
  C65      1.0000 0.37690  0.49260  0.46190  Biso   1.000  C
  C66      1.0000 0.87690  0.99260  0.46190  Biso   1.000  C
  C67      1.0000 0.62310  0.49260  0.03810  Biso   1.000  C
  C68      1.0000 0.12310  0.99260  0.03810  Biso   1.000  C
  C69      1.0000 0.62310  0.50740  0.53810  Biso   1.000  C
  C70      1.0000 0.12310  0.00740  0.53810  Biso   1.000  C
  C71      1.0000 0.37690  0.50740  0.96190  Biso   1.000  C
  C72      1.0000 0.87690  0.00740  0.96190  Biso   1.000  C
