data_image0
_cell_length_a       7.3005
_cell_length_b       7.656
_cell_length_c       9.981
_cell_angle_alpha    80.51
_cell_angle_beta     77
_cell_angle_gamma    84.68

_symmetry_space_group_name_H-M    "P 1"
_symmetry_int_tables_number       1

loop_
  _symmetry_equiv_pos_as_xyz
  'x, y, z'

loop_
  _atom_site_label
  _atom_site_occupancy
  _atom_site_fract_x
  _atom_site_fract_y
  _atom_site_fract_z
  _atom_site_thermal_displace_type
  _atom_site_B_iso_or_equiv
  _atom_site_type_symbol
  Cu1      1.0000 0.15988  0.83757  0.38989  Biso   1.000  Cu
  Cu2      1.0000 0.84012  0.16243  0.61011  Biso   1.000  Cu
  Cl1      1.0000 0.84852  0.88709  0.40805  Biso   1.000  Cl
  Cl2      1.0000 0.15148  0.11291  0.59195  Biso   1.000  Cl
  N1       1.0000 0.29050  0.00830  0.23190  Biso   1.000  N
  N2       1.0000 0.70950  0.99170  0.76810  Biso   1.000  N
  N3       1.0000 0.08880  0.49240  0.77320  Biso   1.000  N
  N4       1.0000 0.91120  0.50760  0.22680  Biso   1.000  N
  N5       1.0000 0.24030  0.44020  0.82620  Biso   1.000  N
  N6       1.0000 0.75970  0.55980  0.17380  Biso   1.000  N
  N7       1.0000 0.99230  0.28630  0.93490  Biso   1.000  N
  N8       1.0000 0.00770  0.71370  0.06510  Biso   1.000  N
  N9       1.0000 0.93800  0.40300  0.83600  Biso   1.000  N
  N10      1.0000 0.06200  0.59700  0.16400  Biso   1.000  N
  C1       1.0000 0.46770  0.05010  0.22530  Biso   1.000  C
  C2       1.0000 0.53230  0.94990  0.77470  Biso   1.000  C
  H1       1.0000 0.53060  0.99450  0.29740  Biso   1.000  H
  H2       1.0000 0.46940  0.00550  0.70260  Biso   1.000  H
  C3       1.0000 0.56200  0.17110  0.11940  Biso   1.000  C
  C4       1.0000 0.43800  0.82890  0.88060  Biso   1.000  C
  H3       1.0000 0.68940  0.19570  0.11690  Biso   1.000  H
  H4       1.0000 0.31060  0.80430  0.88310  Biso   1.000  H
  C5       1.0000 0.46970  0.25650  0.01820  Biso   1.000  C
  C6       1.0000 0.53030  0.74350  0.98180  Biso   1.000  C
  H5       1.0000 0.53270  0.33990  0.94320  Biso   1.000  H
  H6       1.0000 0.46730  0.66010  0.05680  Biso   1.000  H
  C7       1.0000 0.20310  0.09040  0.13230  Biso   1.000  C
  C8       1.0000 0.79690  0.90960  0.86770  Biso   1.000  C
  H7       1.0000 0.07790  0.05910  0.13490  Biso   1.000  H
  H8       1.0000 0.92210  0.94090  0.86510  Biso   1.000  H
  C9       1.0000 0.28580  0.21740  0.02560  Biso   1.000  C
  C10      1.0000 0.71420  0.78260  0.97440  Biso   1.000  C
  C11      1.0000 0.08020  0.64390  0.66350  Biso   1.000  C
  C12      1.0000 0.91980  0.35610  0.33650  Biso   1.000  C
  H9       1.0000 0.12220  0.74580  0.69000  Biso   1.000  H
  H10      1.0000 0.87780  0.25420  0.31000  Biso   1.000  H
  H11      1.0000 0.95170  0.66960  0.65500  Biso   1.000  H
  H12      1.0000 0.04830  0.33040  0.34500  Biso   1.000  H
  C13      1.0000 0.17450  0.31200  0.92660  Biso   1.000  C
  C14      1.0000 0.82550  0.68800  0.07340  Biso   1.000  C
  C15      1.0000 0.19900  0.61280  0.52490  Biso   1.000  C
  C16      1.0000 0.80100  0.38720  0.47510  Biso   1.000  C
  H13      1.0000 0.18380  0.50280  0.49550  Biso   1.000  H
  H14      1.0000 0.81620  0.49720  0.50450  Biso   1.000  H
  C17      1.0000 0.36660  0.68780  0.46750  Biso   1.000  C
  C18      1.0000 0.63340  0.31220  0.53250  Biso   1.000  C
  H15      1.0000 0.42170  0.73930  0.52950  Biso   1.000  H
  H16      1.0000 0.57830  0.26070  0.47050  Biso   1.000  H
  H17      1.0000 0.45670  0.62480  0.40400  Biso   1.000  H
  H18      1.0000 0.54330  0.37520  0.59600  Biso   1.000  H
