data_image0
_cell_length_a       14.112
_cell_length_b       12.395
_cell_length_c       14.379
_cell_angle_alpha    90
_cell_angle_beta     107.46
_cell_angle_gamma    90

_symmetry_space_group_name_H-M    "P 1"
_symmetry_int_tables_number       1

loop_
  _symmetry_equiv_pos_as_xyz
  'x, y, z'

loop_
  _atom_site_label
  _atom_site_occupancy
  _atom_site_fract_x
  _atom_site_fract_y
  _atom_site_fract_z
  _atom_site_thermal_displace_type
  _atom_site_B_iso_or_equiv
  _atom_site_type_symbol
  Cu1      1.0000 0.84490  0.13170  0.82480  Biso   1.000  Cu
  Cu2      1.0000 0.15510  0.63170  0.67520  Biso   1.000  Cu
  Cu3      1.0000 0.15510  0.86830  0.17520  Biso   1.000  Cu
  Cu4      1.0000 0.84490  0.36830  0.32480  Biso   1.000  Cu
  Cu5      1.0000 0.70230  0.05020  0.92390  Biso   1.000  Cu
  Cu6      1.0000 0.29770  0.55020  0.57610  Biso   1.000  Cu
  Cu7      1.0000 0.29770  0.94980  0.07610  Biso   1.000  Cu
  Cu8      1.0000 0.70230  0.44980  0.42390  Biso   1.000  Cu
  N1       1.0000 0.75730  0.01250  0.74820  Biso   1.000  N
  N2       1.0000 0.24270  0.51250  0.75180  Biso   1.000  N
  N3       1.0000 0.24270  0.98750  0.25180  Biso   1.000  N
  N4       1.0000 0.75730  0.48750  0.24820  Biso   1.000  N
  N5       1.0000 0.69130  0.98210  0.79250  Biso   1.000  N
  N6       1.0000 0.30870  0.48210  0.70750  Biso   1.000  N
  N7       1.0000 0.30870  0.01790  0.20750  Biso   1.000  N
  N8       1.0000 0.69130  0.51790  0.29250  Biso   1.000  N
  N9       1.0000 0.58270  0.01770  0.96860  Biso   1.000  N
  N10      1.0000 0.41730  0.51770  0.53140  Biso   1.000  N
  N11      1.0000 0.41730  0.98230  0.03140  Biso   1.000  N
  N12      1.0000 0.58270  0.48230  0.46860  Biso   1.000  N
  N13      1.0000 0.98430  0.08920  0.88010  Biso   1.000  N
  N14      1.0000 0.01570  0.58920  0.61990  Biso   1.000  N
  N15      1.0000 0.01570  0.91080  0.11990  Biso   1.000  N
  N16      1.0000 0.98430  0.41080  0.38010  Biso   1.000  N
  N17      1.0000 0.71130  0.21630  0.91290  Biso   1.000  N
  N18      1.0000 0.28870  0.71630  0.58710  Biso   1.000  N
  N19      1.0000 0.28870  0.78370  0.08710  Biso   1.000  N
  N20      1.0000 0.71130  0.28370  0.41290  Biso   1.000  N
  N21      1.0000 0.76320  0.24530  0.85350  Biso   1.000  N
  N22      1.0000 0.23680  0.74530  0.64650  Biso   1.000  N
  N23      1.0000 0.23680  0.75470  0.14650  Biso   1.000  N
  N24      1.0000 0.76320  0.25470  0.35350  Biso   1.000  N
  N25      1.0000 0.82880  0.98870  0.01920  Biso   1.000  N
  N26      1.0000 0.17120  0.48870  0.48080  Biso   1.000  N
  N27      1.0000 0.17120  0.01130  0.98080  Biso   1.000  N
  N28      1.0000 0.82880  0.51130  0.51920  Biso   1.000  N
  C1       1.0000 0.75950  0.97100  0.66600  Biso   1.000  C
  C2       1.0000 0.24050  0.47100  0.83400  Biso   1.000  C
  C3       1.0000 0.24050  0.02900  0.33400  Biso   1.000  C
  C4       1.0000 0.75950  0.52900  0.16600  Biso   1.000  C
  C5       1.0000 0.69100  0.89200  0.62100  Biso   1.000  C
  C6       1.0000 0.30900  0.39200  0.87900  Biso   1.000  C
  C7       1.0000 0.30900  0.10800  0.37900  Biso   1.000  C
  C8       1.0000 0.69100  0.60800  0.12100  Biso   1.000  C
  C9       1.0000 0.62500  0.85600  0.66400  Biso   1.000  C
  C10      1.0000 0.37500  0.35600  0.83600  Biso   1.000  C
  C11      1.0000 0.37500  0.14400  0.33600  Biso   1.000  C
  C12      1.0000 0.62500  0.64400  0.16400  Biso   1.000  C
  C13      1.0000 0.62700  0.90600  0.75200  Biso   1.000  C
  C14      1.0000 0.37300  0.40600  0.74800  Biso   1.000  C
  C15      1.0000 0.37300  0.09400  0.24800  Biso   1.000  C
  C16      1.0000 0.62700  0.59400  0.25200  Biso   1.000  C
  C17      1.0000 0.83800  0.00800  0.62500  Biso   1.000  C
  C18      1.0000 0.16200  0.50800  0.87500  Biso   1.000  C
  C19      1.0000 0.16200  0.99200  0.37500  Biso   1.000  C
  C20      1.0000 0.83800  0.49200  0.12500  Biso   1.000  C
  C21      1.0000 0.75500  0.34600  0.81800  Biso   1.000  C
  C22      1.0000 0.24500  0.84600  0.68200  Biso   1.000  C
  C23      1.0000 0.24500  0.65400  0.18200  Biso   1.000  C
  C24      1.0000 0.75500  0.15400  0.31800  Biso   1.000  C
  C25      1.0000 0.69400  0.42200  0.84500  Biso   1.000  C
  C26      1.0000 0.30600  0.92200  0.65500  Biso   1.000  C
  C27      1.0000 0.30600  0.57800  0.15500  Biso   1.000  C
  C28      1.0000 0.69400  0.07800  0.34500  Biso   1.000  C
  C29      1.0000 0.64500  0.39200  0.90700  Biso   1.000  C
  C30      1.0000 0.35500  0.89200  0.59300  Biso   1.000  C
  C31      1.0000 0.35500  0.60800  0.09300  Biso   1.000  C
  C32      1.0000 0.64500  0.10800  0.40700  Biso   1.000  C
  C33      1.0000 0.65440  0.28500  0.93860  Biso   1.000  C
  C34      1.0000 0.34560  0.78500  0.56140  Biso   1.000  C
  C35      1.0000 0.34560  0.71500  0.06140  Biso   1.000  C
  C36      1.0000 0.65440  0.21500  0.43860  Biso   1.000  C
  C37      1.0000 0.81200  0.37000  0.74800  Biso   1.000  C
  C38      1.0000 0.18800  0.87000  0.75200  Biso   1.000  C
  C39      1.0000 0.18800  0.63000  0.25200  Biso   1.000  C
  C40      1.0000 0.81200  0.13000  0.24800  Biso   1.000  C
  C41      1.0000 0.00760  0.98530  0.88010  Biso   1.000  C
  C42      1.0000 0.99240  0.48530  0.61990  Biso   1.000  C
  C43      1.0000 0.99240  0.01470  0.11990  Biso   1.000  C
  C44      1.0000 0.00760  0.51470  0.38010  Biso   1.000  C
  C45      1.0000 0.05750  0.15660  0.92610  Biso   1.000  C
  C46      1.0000 0.94250  0.65660  0.57390  Biso   1.000  C
  C47      1.0000 0.94250  0.84340  0.07390  Biso   1.000  C
  C48      1.0000 0.05750  0.34340  0.42610  Biso   1.000  C
  C49      1.0000 0.90110  0.05210  0.06980  Biso   1.000  C
  C50      1.0000 0.09890  0.55210  0.43020  Biso   1.000  C
  C51      1.0000 0.09890  0.94790  0.93020  Biso   1.000  C
  C52      1.0000 0.90110  0.44790  0.56980  Biso   1.000  C
  C53      1.0000 0.85060  0.88600  0.02320  Biso   1.000  C
  C54      1.0000 0.14940  0.38600  0.47680  Biso   1.000  C
  C55      1.0000 0.14940  0.11400  0.97680  Biso   1.000  C
  C56      1.0000 0.85060  0.61400  0.52320  Biso   1.000  C
  C57      1.0000 0.49110  0.04700  0.91580  Biso   1.000  C
  C58      1.0000 0.50890  0.54700  0.58420  Biso   1.000  C
  C59      1.0000 0.50890  0.95300  0.08420  Biso   1.000  C
  C60      1.0000 0.49110  0.45300  0.41580  Biso   1.000  C
  C61      1.0000 0.58860  0.97150  0.05260  Biso   1.000  C
  C62      1.0000 0.41140  0.47150  0.44740  Biso   1.000  C
  C63      1.0000 0.41140  0.02850  0.94740  Biso   1.000  C
  C64      1.0000 0.58860  0.52850  0.55260  Biso   1.000  C
  H1       1.0000 0.48710  0.07750  0.84630  Biso   1.000  H
  H2       1.0000 0.51290  0.57750  0.65370  Biso   1.000  H
  H3       1.0000 0.51290  0.92250  0.15370  Biso   1.000  H
  H4       1.0000 0.48710  0.42250  0.34630  Biso   1.000  H
  H5       1.0000 0.65210  0.94370  0.08100  Biso   1.000  H
  H6       1.0000 0.34790  0.44370  0.41900  Biso   1.000  H
  H7       1.0000 0.34790  0.05630  0.91900  Biso   1.000  H
  H8       1.0000 0.65210  0.55630  0.58100  Biso   1.000  H
  H9       1.0000 0.03740  0.24490  0.93360  Biso   1.000  H
  H10      1.0000 0.96260  0.74490  0.56640  Biso   1.000  H
  H11      1.0000 0.96260  0.75510  0.06640  Biso   1.000  H
  H12      1.0000 0.03740  0.25510  0.43360  Biso   1.000  H
  H13      1.0000 0.88500  0.12950  0.07670  Biso   1.000  H
  H14      1.0000 0.11500  0.62950  0.42330  Biso   1.000  H
  H15      1.0000 0.11500  0.87050  0.92330  Biso   1.000  H
  H16      1.0000 0.88500  0.37050  0.57670  Biso   1.000  H
  H17      1.0000 0.95480  0.93470  0.87610  Biso   1.000  H
  H18      1.0000 0.04520  0.43470  0.62390  Biso   1.000  H
  H19      1.0000 0.04520  0.06530  0.12390  Biso   1.000  H
  H20      1.0000 0.95480  0.56530  0.37610  Biso   1.000  H
  H21      1.0000 0.57250  0.79520  0.63390  Biso   1.000  H
  H22      1.0000 0.42750  0.29520  0.86610  Biso   1.000  H
  H23      1.0000 0.42750  0.20480  0.36610  Biso   1.000  H
  H24      1.0000 0.57250  0.70480  0.13390  Biso   1.000  H
  H25      1.0000 0.69170  0.87270  0.55030  Biso   1.000  H
  H26      1.0000 0.30830  0.37270  0.94970  Biso   1.000  H
  H27      1.0000 0.30830  0.12730  0.44970  Biso   1.000  H
  H28      1.0000 0.69170  0.62730  0.05030  Biso   1.000  H
  H29      1.0000 0.61890  0.24390  0.98890  Biso   1.000  H
  H30      1.0000 0.38110  0.74390  0.51110  Biso   1.000  H
  H31      1.0000 0.38110  0.75610  0.01110  Biso   1.000  H
  H32      1.0000 0.61890  0.25610  0.48890  Biso   1.000  H
  H33      1.0000 0.66810  0.49560  0.79440  Biso   1.000  H
  H34      1.0000 0.33190  0.99560  0.70560  Biso   1.000  H
  H35      1.0000 0.33190  0.50440  0.20560  Biso   1.000  H
  H36      1.0000 0.66810  0.00440  0.29440  Biso   1.000  H
  H37      1.0000 0.82080  0.07200  0.60680  Biso   1.000  H
  H38      1.0000 0.17920  0.57200  0.89320  Biso   1.000  H
  H39      1.0000 0.17920  0.92800  0.39320  Biso   1.000  H
  H40      1.0000 0.82080  0.42800  0.10680  Biso   1.000  H
  H41      1.0000 0.90590  0.98200  0.66770  Biso   1.000  H
  H42      1.0000 0.09410  0.48200  0.83230  Biso   1.000  H
  H43      1.0000 0.09410  0.01800  0.33230  Biso   1.000  H
  H44      1.0000 0.90590  0.51800  0.16770  Biso   1.000  H
  H45      1.0000 0.82540  0.98580  0.54690  Biso   1.000  H
  H46      1.0000 0.17460  0.48580  0.95310  Biso   1.000  H
  H47      1.0000 0.17460  0.01420  0.45310  Biso   1.000  H
  H48      1.0000 0.82540  0.51420  0.04690  Biso   1.000  H
  H49      1.0000 0.88070  0.35730  0.77960  Biso   1.000  H
  H50      1.0000 0.11930  0.85730  0.72040  Biso   1.000  H
  H51      1.0000 0.11930  0.64270  0.22040  Biso   1.000  H
  H52      1.0000 0.88070  0.14270  0.27960  Biso   1.000  H
  H53      1.0000 0.79000  0.32300  0.69330  Biso   1.000  H
  H54      1.0000 0.21000  0.82300  0.80670  Biso   1.000  H
  H55      1.0000 0.21000  0.67700  0.30670  Biso   1.000  H
  H56      1.0000 0.79000  0.17700  0.19330  Biso   1.000  H
  H57      1.0000 0.80190  0.44230  0.72750  Biso   1.000  H
  H58      1.0000 0.19810  0.94230  0.77250  Biso   1.000  H
  H59      1.0000 0.19810  0.55770  0.27250  Biso   1.000  H
  H60      1.0000 0.80190  0.05770  0.22750  Biso   1.000  H
  H61      1.0000 0.58010  0.88270  0.78360  Biso   1.000  H
  H62      1.0000 0.41990  0.38270  0.71640  Biso   1.000  H
  H63      1.0000 0.41990  0.11730  0.21640  Biso   1.000  H
  H64      1.0000 0.58010  0.61730  0.28360  Biso   1.000  H
  H65      1.0000 0.60460  0.44190  0.92880  Biso   1.000  H
  H66      1.0000 0.39540  0.94190  0.57120  Biso   1.000  H
  H67      1.0000 0.39540  0.55810  0.07120  Biso   1.000  H
  H68      1.0000 0.60460  0.05810  0.42880  Biso   1.000  H
  H69      1.0000 0.80490  0.83620  0.97870  Biso   1.000  H
  H70      1.0000 0.19510  0.33620  0.52130  Biso   1.000  H
  H71      1.0000 0.19510  0.16380  0.02130  Biso   1.000  H
  H72      1.0000 0.80490  0.66380  0.47870  Biso   1.000  H
  Cl1      1.0000 0.50120  0.19680  0.63150  Biso   1.000  Cl
  Cl2      1.0000 0.49880  0.69680  0.86850  Biso   1.000  Cl
  Cl3      1.0000 0.49880  0.80320  0.36850  Biso   1.000  Cl
  Cl4      1.0000 0.50120  0.30320  0.13150  Biso   1.000  Cl
  O1       1.0000 0.52500  0.10700  0.58510  Biso   1.000  O
  O2       1.0000 0.47500  0.60700  0.91490  Biso   1.000  O
  O3       1.0000 0.47500  0.89300  0.41490  Biso   1.000  O
  O4       1.0000 0.52500  0.39300  0.08510  Biso   1.000  O
  O5       1.0000 0.50000  0.18300  0.72100  Biso   1.000  O
  O6       1.0000 0.50000  0.68300  0.77900  Biso   1.000  O
  O7       1.0000 0.50000  0.81700  0.27900  Biso   1.000  O
  O8       1.0000 0.50000  0.31700  0.22100  Biso   1.000  O
  O9       1.0000 0.41900  0.24500  0.57500  Biso   1.000  O
  O10      1.0000 0.58100  0.74500  0.92500  Biso   1.000  O
  O11      1.0000 0.58100  0.75500  0.42500  Biso   1.000  O
  O12      1.0000 0.41900  0.25500  0.07500  Biso   1.000  O
  O13      1.0000 0.56500  0.27500  0.63400  Biso   1.000  O
  O14      1.0000 0.43500  0.77500  0.86600  Biso   1.000  O
  O15      1.0000 0.43500  0.72500  0.36600  Biso   1.000  O
  O16      1.0000 0.56500  0.22500  0.13400  Biso   1.000  O
  Cl5      1.0000 0.11770  0.18620  0.68810  Biso   1.000  Cl
  Cl6      1.0000 0.88230  0.68620  0.81190  Biso   1.000  Cl
  Cl7      1.0000 0.88230  0.81380  0.31190  Biso   1.000  Cl
  Cl8      1.0000 0.11770  0.31380  0.18810  Biso   1.000  Cl
  O17      1.0000 0.17400  0.13100  0.76700  Biso   1.000  O
  O18      1.0000 0.82600  0.63100  0.73300  Biso   1.000  O
  O19      1.0000 0.82600  0.86900  0.23300  Biso   1.000  O
  O20      1.0000 0.17400  0.36900  0.26700  Biso   1.000  O
  O21      1.0000 0.09000  0.12000  0.61900  Biso   1.000  O
  O22      1.0000 0.91000  0.62000  0.88100  Biso   1.000  O
  O23      1.0000 0.91000  0.88000  0.38100  Biso   1.000  O
  O24      1.0000 0.09000  0.38000  0.11900  Biso   1.000  O
  O25      1.0000 0.15500  0.27300  0.66700  Biso   1.000  O
  O26      1.0000 0.84500  0.77300  0.83300  Biso   1.000  O
  O27      1.0000 0.84500  0.72700  0.33300  Biso   1.000  O
  O28      1.0000 0.15500  0.22700  0.16700  Biso   1.000  O
  O29      1.0000 0.03500  0.23100  0.69400  Biso   1.000  O
  O30      1.0000 0.96500  0.73100  0.80600  Biso   1.000  O
  O31      1.0000 0.96500  0.76900  0.30600  Biso   1.000  O
  O32      1.0000 0.03500  0.26900  0.19400  Biso   1.000  O
