data_image0
_cell_length_a       22.088
_cell_length_b       14.414
_cell_length_c       8.807
_cell_angle_alpha    90
_cell_angle_beta     90
_cell_angle_gamma    90

_symmetry_space_group_name_H-M    "P 1"
_symmetry_int_tables_number       1

loop_
  _symmetry_equiv_pos_as_xyz
  'x, y, z'

loop_
  _atom_site_label
  _atom_site_occupancy
  _atom_site_fract_x
  _atom_site_fract_y
  _atom_site_fract_z
  _atom_site_thermal_displace_type
  _atom_site_B_iso_or_equiv
  _atom_site_type_symbol
  Cu1      1.0000 0.46460  0.20790  0.50620  Biso   1.000  Cu
  Cu2      1.0000 0.03540  0.79210  0.00620  Biso   1.000  Cu
  Cu3      1.0000 0.96460  0.29210  0.49380  Biso   1.000  Cu
  Cu4      1.0000 0.53540  0.70790  0.99380  Biso   1.000  Cu
  I1       1.0000 0.54300  0.19450  0.29920  Biso   1.000  I
  I2       1.0000 0.95700  0.80550  0.79920  Biso   1.000  I
  I3       1.0000 0.04300  0.30550  0.70080  Biso   1.000  I
  I4       1.0000 0.45700  0.69450  0.20080  Biso   1.000  I
  S1       1.0000 0.37200  0.14700  0.48510  Biso   1.000  S
  S2       1.0000 0.12800  0.85300  0.98510  Biso   1.000  S
  S3       1.0000 0.87200  0.35300  0.51490  Biso   1.000  S
  S4       1.0000 0.62800  0.64700  0.01490  Biso   1.000  S
  S5       1.0000 0.35220  0.15490  0.86380  Biso   1.000  S
  S6       1.0000 0.14780  0.84510  0.36380  Biso   1.000  S
  S7       1.0000 0.85220  0.34510  0.13620  Biso   1.000  S
  S8       1.0000 0.64780  0.65490  0.63620  Biso   1.000  S
  S9       1.0000 0.26320  0.11300  0.84040  Biso   1.000  S
  S10      1.0000 0.23680  0.88700  0.34040  Biso   1.000  S
  S11      1.0000 0.76320  0.38700  0.15960  Biso   1.000  S
  S12      1.0000 0.73680  0.61300  0.65960  Biso   1.000  S
  S13      1.0000 0.48270  0.29150  0.71780  Biso   1.000  S
  S14      1.0000 0.01730  0.70850  0.21780  Biso   1.000  S
  S15      1.0000 0.98270  0.20850  0.28220  Biso   1.000  S
  S16      1.0000 0.51730  0.79150  0.78220  Biso   1.000  S
  S17      1.0000 0.28560  0.89380  0.93130  Biso   1.000  S
  S18      1.0000 0.21440  0.10620  0.43130  Biso   1.000  S
  S19      1.0000 0.78560  0.60620  0.06870  Biso   1.000  S
  S20      1.0000 0.71440  0.39380  0.56870  Biso   1.000  S
  S21      1.0000 0.26530  0.98220  0.75110  Biso   1.000  S
  S22      1.0000 0.23470  0.01780  0.25110  Biso   1.000  S
  S23      1.0000 0.76530  0.51780  0.24890  Biso   1.000  S
  S24      1.0000 0.73470  0.48220  0.74890  Biso   1.000  S
  N1       1.0000 0.39640  0.03360  0.24870  Biso   1.000  N
  N2       1.0000 0.10360  0.96640  0.74870  Biso   1.000  N
  N3       1.0000 0.89640  0.46640  0.75130  Biso   1.000  N
  N4       1.0000 0.60360  0.53360  0.25130  Biso   1.000  N
  N5       1.0000 0.35930  0.16710  0.17820  Biso   1.000  N
  N6       1.0000 0.14070  0.83290  0.67820  Biso   1.000  N
  N7       1.0000 0.85930  0.33290  0.82180  Biso   1.000  N
  N8       1.0000 0.64070  0.66710  0.32180  Biso   1.000  N
  N9       1.0000 0.53970  0.42460  0.54660  Biso   1.000  N
  N10      1.0000 0.96030  0.57540  0.04660  Biso   1.000  N
  N11      1.0000 0.03970  0.07540  0.45340  Biso   1.000  N
  N12      1.0000 0.46030  0.92460  0.95340  Biso   1.000  N
  N13      1.0000 0.60220  0.33210  0.65830  Biso   1.000  N
  N14      1.0000 0.89780  0.66790  0.15830  Biso   1.000  N
  N15      1.0000 0.10220  0.16790  0.34170  Biso   1.000  N
  N16      1.0000 0.39780  0.83210  0.84170  Biso   1.000  N
  C1       1.0000 0.37590  0.11520  0.29920  Biso   1.000  C
  C2       1.0000 0.12410  0.88480  0.79920  Biso   1.000  C
  C3       1.0000 0.87590  0.38480  0.70080  Biso   1.000  C
  C4       1.0000 0.62410  0.61520  0.20080  Biso   1.000  C
  C5       1.0000 0.36740  0.11390  0.04750  Biso   1.000  C
  C6       1.0000 0.13260  0.88610  0.54750  Biso   1.000  C
  C7       1.0000 0.86740  0.38610  0.95250  Biso   1.000  C
  C8       1.0000 0.63260  0.61390  0.45250  Biso   1.000  C
  C9       1.0000 0.39190  0.03410  0.08910  Biso   1.000  C
  C10      1.0000 0.10810  0.96590  0.58910  Biso   1.000  C
  C11      1.0000 0.89190  0.46590  0.91090  Biso   1.000  C
  C12      1.0000 0.60810  0.53410  0.41090  Biso   1.000  C
  C13      1.0000 0.40420  0.94940  0.34160  Biso   1.000  C
  C14      1.0000 0.09580  0.05060  0.84160  Biso   1.000  C
  C15      1.0000 0.90420  0.55060  0.65840  Biso   1.000  C
  C16      1.0000 0.59580  0.44940  0.15840  Biso   1.000  C
  C17      1.0000 0.47180  0.95150  0.40410  Biso   1.000  C
  C18      1.0000 0.02820  0.04850  0.90410  Biso   1.000  C
  C19      1.0000 0.97180  0.54850  0.59590  Biso   1.000  C
  C20      1.0000 0.52820  0.45150  0.09590  Biso   1.000  C
  C21      1.0000 0.33500  0.26090  0.19080  Biso   1.000  C
  C22      1.0000 0.16500  0.73910  0.69080  Biso   1.000  C
  C23      1.0000 0.83500  0.23910  0.80920  Biso   1.000  C
  C24      1.0000 0.66500  0.76090  0.30920  Biso   1.000  C
  C25      1.0000 0.38410  0.33380  0.16370  Biso   1.000  C
  C26      1.0000 0.11590  0.66620  0.66370  Biso   1.000  C
  C27      1.0000 0.88410  0.16620  0.83630  Biso   1.000  C
  C28      1.0000 0.61590  0.83380  0.33630  Biso   1.000  C
  C29      1.0000 0.54250  0.35090  0.63620  Biso   1.000  C
  C30      1.0000 0.95750  0.64910  0.13620  Biso   1.000  C
  C31      1.0000 0.04250  0.14910  0.36380  Biso   1.000  C
  C32      1.0000 0.45750  0.85090  0.86380  Biso   1.000  C
  C33      1.0000 0.36660  0.89250  0.92110  Biso   1.000  C
  C34      1.0000 0.13340  0.10750  0.42110  Biso   1.000  C
  C35      1.0000 0.86660  0.60750  0.07890  Biso   1.000  C
  C36      1.0000 0.63340  0.39250  0.57890  Biso   1.000  C
  C37      1.0000 0.40410  0.95130  0.99440  Biso   1.000  C
  C38      1.0000 0.09590  0.04870  0.49440  Biso   1.000  C
  C39      1.0000 0.90410  0.54870  0.00560  Biso   1.000  C
  C40      1.0000 0.59590  0.45130  0.50560  Biso   1.000  C
  C41      1.0000 0.48170  0.47130  0.50620  Biso   1.000  C
  C42      1.0000 0.01830  0.52870  0.00620  Biso   1.000  C
  C43      1.0000 0.98170  0.02870  0.49380  Biso   1.000  C
  C44      1.0000 0.51830  0.97130  0.99380  Biso   1.000  C
  C45      1.0000 0.46440  0.54290  0.62730  Biso   1.000  C
  C46      1.0000 0.03560  0.45710  0.12730  Biso   1.000  C
  C47      1.0000 0.96440  0.95710  0.37270  Biso   1.000  C
  C48      1.0000 0.53560  0.04290  0.87270  Biso   1.000  C
  C49      1.0000 0.62720  0.23920  0.72640  Biso   1.000  C
  C50      1.0000 0.87280  0.76080  0.22640  Biso   1.000  C
  C51      1.0000 0.12720  0.26080  0.27360  Biso   1.000  C
  C52      1.0000 0.37280  0.73920  0.77360  Biso   1.000  C
  C53      1.0000 0.64020  0.26050  0.88610  Biso   1.000  C
  C54      1.0000 0.85980  0.73950  0.38610  Biso   1.000  C
  C55      1.0000 0.14020  0.23950  0.11390  Biso   1.000  C
  C56      1.0000 0.35980  0.76050  0.61390  Biso   1.000  C
  O1       1.0000 0.17600  0.57910  0.25200  Biso   1.000  O
  O2       1.0000 0.32400  0.42090  0.75200  Biso   1.000  O
  O3       1.0000 0.67600  0.92090  0.74800  Biso   1.000  O
  O4       1.0000 0.82400  0.07910  0.24800  Biso   1.000  O
  C57      1.0000 0.23750  0.45670  0.18060  Biso   1.000  C
  C58      1.0000 0.26250  0.54330  0.68060  Biso   1.000  C
  C59      1.0000 0.73750  0.04330  0.81940  Biso   1.000  C
  C60      1.0000 0.76250  0.95670  0.31940  Biso   1.000  C
  C61      1.0000 0.22910  0.55480  0.21600  Biso   1.000  C
  C62      1.0000 0.27090  0.44520  0.71600  Biso   1.000  C
  C63      1.0000 0.72910  0.94520  0.78400  Biso   1.000  C
  C64      1.0000 0.77090  0.05480  0.28400  Biso   1.000  C
  C65      1.0000 0.26570  0.62250  0.13400  Biso   1.000  C
  C66      1.0000 0.23430  0.37750  0.63400  Biso   1.000  C
  C67      1.0000 0.76570  0.87750  0.86600  Biso   1.000  C
  C68      1.0000 0.73430  0.12250  0.36600  Biso   1.000  C
  H1       1.0000 0.37220  0.94950  0.43430  Biso   1.000  H
  H2       1.0000 0.12780  0.05050  0.93430  Biso   1.000  H
  H3       1.0000 0.87220  0.55050  0.56570  Biso   1.000  H
  H4       1.0000 0.62780  0.44950  0.06570  Biso   1.000  H
  H5       1.0000 0.39760  0.88800  0.27340  Biso   1.000  H
  H6       1.0000 0.10240  0.11200  0.77340  Biso   1.000  H
  H7       1.0000 0.89760  0.61200  0.72660  Biso   1.000  H
  H8       1.0000 0.60240  0.38800  0.22660  Biso   1.000  H
  H9       1.0000 0.48060  0.89160  0.47420  Biso   1.000  H
  H10      1.0000 0.01940  0.10840  0.97420  Biso   1.000  H
  H11      1.0000 0.98060  0.60840  0.52580  Biso   1.000  H
  H12      1.0000 0.51940  0.39160  0.02580  Biso   1.000  H
  H13      1.0000 0.47750  0.01380  0.47060  Biso   1.000  H
  H14      1.0000 0.02250  0.98620  0.97060  Biso   1.000  H
  H15      1.0000 0.97750  0.48620  0.52940  Biso   1.000  H
  H16      1.0000 0.52250  0.51380  0.02940  Biso   1.000  H
  H17      1.0000 0.50290  0.95230  0.30960  Biso   1.000  H
  H18      1.0000 0.99710  0.04770  0.80960  Biso   1.000  H
  H19      1.0000 0.00290  0.54770  0.69040  Biso   1.000  H
  H20      1.0000 0.49710  0.45230  0.19040  Biso   1.000  H
  H21      1.0000 0.30050  0.27010  0.10530  Biso   1.000  H
  H22      1.0000 0.19950  0.72990  0.60530  Biso   1.000  H
  H23      1.0000 0.80050  0.22990  0.89470  Biso   1.000  H
  H24      1.0000 0.69950  0.77010  0.39470  Biso   1.000  H
  H25      1.0000 0.31540  0.27080  0.30200  Biso   1.000  H
  H26      1.0000 0.18460  0.72920  0.80200  Biso   1.000  H
  H27      1.0000 0.81540  0.22920  0.69800  Biso   1.000  H
  H28      1.0000 0.68460  0.77080  0.19800  Biso   1.000  H
  H29      1.0000 0.36690  0.40380  0.17140  Biso   1.000  H
  H30      1.0000 0.13310  0.59620  0.67140  Biso   1.000  H
  H31      1.0000 0.86690  0.09620  0.82860  Biso   1.000  H
  H32      1.0000 0.63310  0.90380  0.32860  Biso   1.000  H
  H33      1.0000 0.40350  0.32280  0.05260  Biso   1.000  H
  H34      1.0000 0.09650  0.67720  0.55260  Biso   1.000  H
  H35      1.0000 0.90350  0.17720  0.94740  Biso   1.000  H
  H36      1.0000 0.59650  0.82280  0.44740  Biso   1.000  H
  H37      1.0000 0.41840  0.32340  0.24930  Biso   1.000  H
  H38      1.0000 0.08160  0.67660  0.74930  Biso   1.000  H
  H39      1.0000 0.91840  0.17660  0.75070  Biso   1.000  H
  H40      1.0000 0.58160  0.82340  0.25070  Biso   1.000  H
  H41      1.0000 0.48700  0.50650  0.39880  Biso   1.000  H
  H42      1.0000 0.01300  0.49350  0.89880  Biso   1.000  H
  H43      1.0000 0.98700  0.99350  0.60120  Biso   1.000  H
  H44      1.0000 0.51300  0.00650  0.10120  Biso   1.000  H
  H45      1.0000 0.44630  0.41990  0.49670  Biso   1.000  H
  H46      1.0000 0.05370  0.58010  0.99670  Biso   1.000  H
  H47      1.0000 0.94630  0.08010  0.50330  Biso   1.000  H
  H48      1.0000 0.55370  0.91990  0.00330  Biso   1.000  H
  H49      1.0000 0.42240  0.57680  0.59780  Biso   1.000  H
  H50      1.0000 0.07760  0.42320  0.09780  Biso   1.000  H
  H51      1.0000 0.92240  0.92320  0.40220  Biso   1.000  H
  H52      1.0000 0.57760  0.07680  0.90220  Biso   1.000  H
  H53      1.0000 0.49990  0.59410  0.63660  Biso   1.000  H
  H54      1.0000 0.00010  0.40590  0.13660  Biso   1.000  H
  H55      1.0000 0.99990  0.90590  0.36340  Biso   1.000  H
  H56      1.0000 0.50010  0.09410  0.86340  Biso   1.000  H
  H57      1.0000 0.45920  0.50740  0.73450  Biso   1.000  H
  H58      1.0000 0.04080  0.49260  0.23450  Biso   1.000  H
  H59      1.0000 0.95920  0.99260  0.26550  Biso   1.000  H
  H60      1.0000 0.54080  0.00740  0.76550  Biso   1.000  H
  H61      1.0000 0.66860  0.22040  0.66860  Biso   1.000  H
  H62      1.0000 0.83140  0.77960  0.16860  Biso   1.000  H
  H63      1.0000 0.16860  0.27960  0.33140  Biso   1.000  H
  H64      1.0000 0.33140  0.72040  0.83140  Biso   1.000  H
  H65      1.0000 0.59440  0.18410  0.71370  Biso   1.000  H
  H66      1.0000 0.90560  0.81590  0.21370  Biso   1.000  H
  H67      1.0000 0.09440  0.31590  0.28630  Biso   1.000  H
  H68      1.0000 0.40560  0.68410  0.78630  Biso   1.000  H
  H69      1.0000 0.65820  0.19880  0.93900  Biso   1.000  H
  H70      1.0000 0.84180  0.80120  0.43900  Biso   1.000  H
  H71      1.0000 0.15820  0.30120  0.06100  Biso   1.000  H
  H72      1.0000 0.34180  0.69880  0.56100  Biso   1.000  H
  H73      1.0000 0.59850  0.28000  0.94150  Biso   1.000  H
  H74      1.0000 0.90150  0.72000  0.44150  Biso   1.000  H
  H75      1.0000 0.09850  0.22000  0.05850  Biso   1.000  H
  H76      1.0000 0.40150  0.78000  0.55850  Biso   1.000  H
  H77      1.0000 0.67260  0.31630  0.89640  Biso   1.000  H
  H78      1.0000 0.82740  0.68370  0.39640  Biso   1.000  H
  H79      1.0000 0.17260  0.18370  0.10360  Biso   1.000  H
  H80      1.0000 0.32740  0.81630  0.60360  Biso   1.000  H
