data_image0
_cell_length_a       19.792
_cell_length_b       14.167
_cell_length_c       8.537
_cell_angle_alpha    90
_cell_angle_beta     90
_cell_angle_gamma    90

_symmetry_space_group_name_H-M    "P 1"
_symmetry_int_tables_number       1

loop_
  _symmetry_equiv_pos_as_xyz
  'x, y, z'

loop_
  _atom_site_label
  _atom_site_occupancy
  _atom_site_fract_x
  _atom_site_fract_y
  _atom_site_fract_z
  _atom_site_thermal_displace_type
  _atom_site_B_iso_or_equiv
  _atom_site_type_symbol
  Cu1      1.0000 0.07480  0.48120  0.00240  Biso   1.000  Cu
  Cu2      1.0000 0.57480  0.01880  0.99760  Biso   1.000  Cu
  Cu3      1.0000 0.92520  0.98120  0.49760  Biso   1.000  Cu
  Cu4      1.0000 0.42520  0.51880  0.50240  Biso   1.000  Cu
  I1       1.0000 0.04580  0.50060  0.28530  Biso   1.000  I
  I2       1.0000 0.54580  0.99940  0.71470  Biso   1.000  I
  I3       1.0000 0.95420  0.00060  0.21470  Biso   1.000  I
  I4       1.0000 0.45420  0.49940  0.78530  Biso   1.000  I
  S1       1.0000 0.15360  0.37720  0.92770  Biso   1.000  S
  S2       1.0000 0.65360  0.12280  0.07230  Biso   1.000  S
  S3       1.0000 0.84640  0.87720  0.57230  Biso   1.000  S
  S4       1.0000 0.34640  0.62280  0.42770  Biso   1.000  S
  S5       1.0000 0.23840  0.32080  0.53110  Biso   1.000  S
  S6       1.0000 0.73840  0.17920  0.46890  Biso   1.000  S
  S7       1.0000 0.76160  0.82080  0.96890  Biso   1.000  S
  S8       1.0000 0.26160  0.67920  0.03110  Biso   1.000  S
  S9       1.0000 0.32200  0.23480  0.50820  Biso   1.000  S
  S10      1.0000 0.82200  0.26520  0.49180  Biso   1.000  S
  S11      1.0000 0.67800  0.73480  0.99180  Biso   1.000  S
  S12      1.0000 0.17800  0.76520  0.00820  Biso   1.000  S
  S13      1.0000 0.98160  0.06000  0.68170  Biso   1.000  S
  S14      1.0000 0.48160  0.44000  0.31830  Biso   1.000  S
  S15      1.0000 0.01840  0.56000  0.81830  Biso   1.000  S
  S16      1.0000 0.51840  0.94000  0.18170  Biso   1.000  S
  S17      1.0000 0.23470  0.04520  0.42530  Biso   1.000  S
  S18      1.0000 0.73470  0.45480  0.57470  Biso   1.000  S
  S19      1.0000 0.76530  0.54520  0.07470  Biso   1.000  S
  S20      1.0000 0.26530  0.95480  0.92530  Biso   1.000  S
  S21      1.0000 0.29300  0.10900  0.59710  Biso   1.000  S
  S22      1.0000 0.79300  0.39100  0.40290  Biso   1.000  S
  S23      1.0000 0.70700  0.60900  0.90290  Biso   1.000  S
  S24      1.0000 0.20700  0.89100  0.09710  Biso   1.000  S
  N1       1.0000 0.12840  0.25660  0.16850  Biso   1.000  N
  N2       1.0000 0.62840  0.24340  0.83150  Biso   1.000  N
  N3       1.0000 0.87160  0.75660  0.33150  Biso   1.000  N
  N4       1.0000 0.37160  0.74340  0.66850  Biso   1.000  N
  N5       1.0000 0.20630  0.35820  0.22070  Biso   1.000  N
  N6       1.0000 0.70630  0.14180  0.77930  Biso   1.000  N
  N7       1.0000 0.79370  0.85820  0.27930  Biso   1.000  N
  N8       1.0000 0.29370  0.64180  0.72070  Biso   1.000  N
  N9       1.0000 0.05920  0.16460  0.48220  Biso   1.000  N
  N10      1.0000 0.55920  0.33540  0.51780  Biso   1.000  N
  N11      1.0000 0.94080  0.66460  0.01780  Biso   1.000  N
  N12      1.0000 0.44080  0.83540  0.98220  Biso   1.000  N
  N13      1.0000 0.10880  0.03770  0.56310  Biso   1.000  N
  N14      1.0000 0.60880  0.46230  0.43690  Biso   1.000  N
  N15      1.0000 0.89120  0.53770  0.93690  Biso   1.000  N
  N16      1.0000 0.39120  0.96230  0.06310  Biso   1.000  N
  C1       1.0000 0.16340  0.33040  0.10900  Biso   1.000  C
  C2       1.0000 0.66340  0.16960  0.89100  Biso   1.000  C
  C3       1.0000 0.83660  0.83040  0.39100  Biso   1.000  C
  C4       1.0000 0.33660  0.66960  0.60900  Biso   1.000  C
  C5       1.0000 0.19820  0.30340  0.35400  Biso   1.000  C
  C6       1.0000 0.69820  0.19660  0.64600  Biso   1.000  C
  C7       1.0000 0.80180  0.80340  0.14600  Biso   1.000  C
  C8       1.0000 0.30180  0.69660  0.85400  Biso   1.000  C
  C9       1.0000 0.14980  0.23930  0.31990  Biso   1.000  C
  C10      1.0000 0.64980  0.26070  0.68010  Biso   1.000  C
  C11      1.0000 0.85020  0.73930  0.18010  Biso   1.000  C
  C12      1.0000 0.35020  0.76070  0.81990  Biso   1.000  C
  C13      1.0000 0.07990  0.19770  0.07990  Biso   1.000  C
  C14      1.0000 0.57990  0.30230  0.92010  Biso   1.000  C
  C15      1.0000 0.92010  0.69770  0.42010  Biso   1.000  C
  C16      1.0000 0.42010  0.80230  0.57990  Biso   1.000  C
  C17      1.0000 0.11730  0.12550  0.98180  Biso   1.000  C
  C18      1.0000 0.61730  0.37450  0.01820  Biso   1.000  C
  C19      1.0000 0.88270  0.62550  0.51820  Biso   1.000  C
  C20      1.0000 0.38270  0.87450  0.48180  Biso   1.000  C
  C21      1.0000 0.25050  0.44040  0.20700  Biso   1.000  C
  C22      1.0000 0.75050  0.05960  0.79300  Biso   1.000  C
  C23      1.0000 0.74950  0.94040  0.29300  Biso   1.000  C
  C24      1.0000 0.24950  0.55960  0.70700  Biso   1.000  C
  C25      1.0000 0.31680  0.41440  0.12860  Biso   1.000  C
  C26      1.0000 0.81680  0.08560  0.87140  Biso   1.000  C
  C27      1.0000 0.68320  0.91440  0.37140  Biso   1.000  C
  C28      1.0000 0.18320  0.58560  0.62860  Biso   1.000  C
  C29      1.0000 0.05080  0.08720  0.57440  Biso   1.000  C
  C30      1.0000 0.55080  0.41280  0.42560  Biso   1.000  C
  C31      1.0000 0.94920  0.58720  0.92560  Biso   1.000  C
  C32      1.0000 0.44920  0.91280  0.07440  Biso   1.000  C
  C33      1.0000 0.15470  0.08560  0.46770  Biso   1.000  C
  C34      1.0000 0.65470  0.41440  0.53230  Biso   1.000  C
  C35      1.0000 0.84530  0.58560  0.03230  Biso   1.000  C
  C36      1.0000 0.34530  0.91440  0.96770  Biso   1.000  C
  C37      1.0000 0.12390  0.16230  0.41770  Biso   1.000  C
  C38      1.0000 0.62390  0.33770  0.58230  Biso   1.000  C
  C39      1.0000 0.87610  0.66230  0.08230  Biso   1.000  C
  C40      1.0000 0.37610  0.83770  0.91770  Biso   1.000  C
  C41      1.0000 0.00890  0.24060  0.46810  Biso   1.000  C
  C42      1.0000 0.50890  0.25940  0.53190  Biso   1.000  C
  C43      1.0000 0.99110  0.74060  0.03190  Biso   1.000  C
  C44      1.0000 0.49110  0.75940  0.96810  Biso   1.000  C
  C45      1.0000 0.01240  0.30730  0.60940  Biso   1.000  C
  C46      1.0000 0.51240  0.19270  0.39060  Biso   1.000  C
  C47      1.0000 0.98760  0.80730  0.89060  Biso   1.000  C
  C48      1.0000 0.48760  0.69270  0.10940  Biso   1.000  C
  C49      1.0000 0.11870  0.94440  0.63580  Biso   1.000  C
  C50      1.0000 0.61870  0.55560  0.36420  Biso   1.000  C
  C51      1.0000 0.88130  0.44440  0.86420  Biso   1.000  C
  C52      1.0000 0.38130  0.05560  0.13580  Biso   1.000  C
  C53      1.0000 0.10200  0.86640  0.52390  Biso   1.000  C
  C54      1.0000 0.60200  0.63360  0.47610  Biso   1.000  C
  C55      1.0000 0.89800  0.36640  0.97610  Biso   1.000  C
  C56      1.0000 0.39800  0.13360  0.02390  Biso   1.000  C
  H1       1.0000 0.04620  0.16260  0.16060  Biso   1.000  H
  H2       1.0000 0.54620  0.33740  0.83940  Biso   1.000  H
  H3       1.0000 0.95380  0.66260  0.33940  Biso   1.000  H
  H4       1.0000 0.45380  0.83740  0.66060  Biso   1.000  H
  H5       1.0000 0.05100  0.24270  0.00280  Biso   1.000  H
  H6       1.0000 0.55100  0.25730  0.99720  Biso   1.000  H
  H7       1.0000 0.94900  0.74270  0.49720  Biso   1.000  H
  H8       1.0000 0.44900  0.75730  0.50280  Biso   1.000  H
  H9       1.0000 0.08140  0.08330  0.91700  Biso   1.000  H
  H10      1.0000 0.58140  0.41670  0.08300  Biso   1.000  H
  H11      1.0000 0.91860  0.58330  0.58300  Biso   1.000  H
  H12      1.0000 0.41860  0.91670  0.41700  Biso   1.000  H
  H13      1.0000 0.14620  0.08050  0.05890  Biso   1.000  H
  H14      1.0000 0.64620  0.41950  0.94110  Biso   1.000  H
  H15      1.0000 0.85380  0.58050  0.44110  Biso   1.000  H
  H16      1.0000 0.35380  0.91950  0.55890  Biso   1.000  H
  H17      1.0000 0.15090  0.16060  0.90110  Biso   1.000  H
  H18      1.0000 0.65090  0.33940  0.09890  Biso   1.000  H
  H19      1.0000 0.84910  0.66060  0.59890  Biso   1.000  H
  H20      1.0000 0.34910  0.83940  0.40110  Biso   1.000  H
  H21      1.0000 0.22570  0.49360  0.13700  Biso   1.000  H
  H22      1.0000 0.72570  0.00640  0.86300  Biso   1.000  H
  H23      1.0000 0.77430  0.99360  0.36300  Biso   1.000  H
  H24      1.0000 0.27430  0.50640  0.63700  Biso   1.000  H
  H25      1.0000 0.26090  0.46840  0.32210  Biso   1.000  H
  H26      1.0000 0.76090  0.03160  0.67790  Biso   1.000  H
  H27      1.0000 0.73910  0.96840  0.17790  Biso   1.000  H
  H28      1.0000 0.23910  0.53160  0.82210  Biso   1.000  H
  H29      1.0000 0.34910  0.47560  0.11850  Biso   1.000  H
  H30      1.0000 0.84910  0.02440  0.88150  Biso   1.000  H
  H31      1.0000 0.65090  0.97560  0.38150  Biso   1.000  H
  H32      1.0000 0.15090  0.52440  0.61850  Biso   1.000  H
  H33      1.0000 0.30650  0.38650  0.01330  Biso   1.000  H
  H34      1.0000 0.80650  0.11350  0.98670  Biso   1.000  H
  H35      1.0000 0.69350  0.88650  0.48670  Biso   1.000  H
  H36      1.0000 0.19350  0.61350  0.51330  Biso   1.000  H
  H37      1.0000 0.34170  0.36130  0.19840  Biso   1.000  H
  H38      1.0000 0.84170  0.13870  0.80160  Biso   1.000  H
  H39      1.0000 0.65830  0.86130  0.30160  Biso   1.000  H
  H40      1.0000 0.15830  0.63870  0.69840  Biso   1.000  H
  H41      1.0000 0.98090  0.27840  0.37960  Biso   1.000  H
  H42      1.0000 0.48090  0.22160  0.62040  Biso   1.000  H
  H43      1.0000 0.01910  0.77840  0.12040  Biso   1.000  H
  H44      1.0000 0.51910  0.72160  0.87960  Biso   1.000  H
  H45      1.0000 0.06020  0.23020  0.42880  Biso   1.000  H
  H46      1.0000 0.56020  0.26980  0.57120  Biso   1.000  H
  H47      1.0000 0.93980  0.73020  0.07120  Biso   1.000  H
  H48      1.0000 0.43980  0.76980  0.92880  Biso   1.000  H
  H49      1.0000 0.03660  0.37280  0.57680  Biso   1.000  H
  H50      1.0000 0.53660  0.12720  0.42320  Biso   1.000  H
  H51      1.0000 0.96340  0.87280  0.92320  Biso   1.000  H
  H52      1.0000 0.46340  0.62720  0.07680  Biso   1.000  H
  H53      1.0000 0.04130  0.27340  0.70070  Biso   1.000  H
  H54      1.0000 0.54130  0.22660  0.29930  Biso   1.000  H
  H55      1.0000 0.95870  0.77340  0.79930  Biso   1.000  H
  H56      1.0000 0.45870  0.72660  0.20070  Biso   1.000  H
  H57      1.0000 0.96200  0.32160  0.65150  Biso   1.000  H
  H58      1.0000 0.46200  0.17840  0.34850  Biso   1.000  H
  H59      1.0000 0.03800  0.82160  0.84850  Biso   1.000  H
  H60      1.0000 0.53800  0.67840  0.15150  Biso   1.000  H
  H61      1.0000 0.12770  0.92450  0.75610  Biso   1.000  H
  H62      1.0000 0.62770  0.57550  0.24390  Biso   1.000  H
  H63      1.0000 0.87230  0.42450  0.74390  Biso   1.000  H
  H64      1.0000 0.37230  0.07550  0.25610  Biso   1.000  H
  H65      1.0000 0.15540  0.99670  0.60050  Biso   1.000  H
  H66      1.0000 0.65540  0.50330  0.39950  Biso   1.000  H
  H67      1.0000 0.84460  0.49670  0.89950  Biso   1.000  H
  H68      1.0000 0.34460  0.00330  0.10050  Biso   1.000  H
  H69      1.0000 0.14540  0.82130  0.50770  Biso   1.000  H
  H70      1.0000 0.64540  0.67870  0.49230  Biso   1.000  H
  H71      1.0000 0.85460  0.32130  0.99230  Biso   1.000  H
  H72      1.0000 0.35460  0.17870  0.00770  Biso   1.000  H
  H73      1.0000 0.08800  0.89740  0.58700  Biso   1.000  H
  H74      1.0000 0.58800  0.60260  0.41300  Biso   1.000  H
  H75      1.0000 0.91200  0.39740  0.91300  Biso   1.000  H
  H76      1.0000 0.41200  0.10260  0.08700  Biso   1.000  H
  H77      1.0000 0.06030  0.82530  0.56860  Biso   1.000  H
  H78      1.0000 0.56030  0.67470  0.43140  Biso   1.000  H
  H79      1.0000 0.93970  0.32530  0.93140  Biso   1.000  H
  H80      1.0000 0.43970  0.17470  0.06860  Biso   1.000  H
