data_image0
_cell_length_a       11.58
_cell_length_b       11.594
_cell_length_c       15.753
_cell_angle_alpha    92.1
_cell_angle_beta     99.4
_cell_angle_gamma    111.79

_symmetry_space_group_name_H-M    "P 1"
_symmetry_int_tables_number       1

loop_
  _symmetry_equiv_pos_as_xyz
  'x, y, z'

loop_
  _atom_site_label
  _atom_site_occupancy
  _atom_site_fract_x
  _atom_site_fract_y
  _atom_site_fract_z
  _atom_site_thermal_displace_type
  _atom_site_B_iso_or_equiv
  _atom_site_type_symbol
  C1       1.0000 0.47020  0.04430  0.01160  Biso   1.000  C
  C2       1.0000 0.52980  0.95570  0.98840  Biso   1.000  C
  H1       1.0000 0.48390  0.05880  0.07540  Biso   1.000  H
  H2       1.0000 0.51610  0.94120  0.92460  Biso   1.000  H
  H3       1.0000 0.37770  0.00460  0.98970  Biso   1.000  H
  H4       1.0000 0.62230  0.99540  0.01030  Biso   1.000  H
  C3       1.0000 0.52070  0.16940  0.97600  Biso   1.000  C
  C4       1.0000 0.47930  0.83060  0.02400  Biso   1.000  C
  H5       1.0000 0.61440  0.20410  0.99110  Biso   1.000  H
  H6       1.0000 0.38560  0.79590  0.00890  Biso   1.000  H
  H7       1.0000 0.49070  0.22780  0.00420  Biso   1.000  H
  H8       1.0000 0.50930  0.77220  0.99580  Biso   1.000  H
  C5       1.0000 0.32360  0.17490  0.84300  Biso   1.000  C
  C6       1.0000 0.67640  0.82510  0.15700  Biso   1.000  C
  C7       1.0000 0.29100  0.24860  0.89750  Biso   1.000  C
  C8       1.0000 0.70900  0.75140  0.10250  Biso   1.000  C
  H9       1.0000 0.34740  0.29120  0.94980  Biso   1.000  H
  H10      1.0000 0.65260  0.70880  0.05020  Biso   1.000  H
  C9       1.0000 0.17320  0.26010  0.87500  Biso   1.000  C
  C10      1.0000 0.82680  0.73990  0.12500  Biso   1.000  C
  H11      1.0000 0.15200  0.31400  0.91080  Biso   1.000  H
  H12      1.0000 0.84800  0.68600  0.08920  Biso   1.000  H
  C11      1.0000 0.08900  0.19410  0.80180  Biso   1.000  C
  C12      1.0000 0.91100  0.80590  0.19820  Biso   1.000  C
  H13      1.0000 0.00710  0.19690  0.78940  Biso   1.000  H
  H14      1.0000 0.99290  0.80310  0.21060  Biso   1.000  H
  C13      1.0000 0.12380  0.12350  0.74630  Biso   1.000  C
  C14      1.0000 0.87620  0.87650  0.25370  Biso   1.000  C
  H15      1.0000 0.06720  0.08120  0.69410  Biso   1.000  H
  H16      1.0000 0.93280  0.91880  0.30590  Biso   1.000  H
  C15      1.0000 0.24030  0.11400  0.76620  Biso   1.000  C
  C16      1.0000 0.75970  0.88600  0.23380  Biso   1.000  C
  H17      1.0000 0.26370  0.06570  0.72740  Biso   1.000  H
  H18      1.0000 0.73630  0.93430  0.27260  Biso   1.000  H
  C17      1.0000 0.26740  0.50280  0.63320  Biso   1.000  C
  C18      1.0000 0.73260  0.49720  0.36680  Biso   1.000  C
  H19      1.0000 0.27450  0.58670  0.65520  Biso   1.000  H
  H20      1.0000 0.72550  0.41330  0.34480  Biso   1.000  H
  H21      1.0000 0.29630  0.46330  0.68250  Biso   1.000  H
  H22      1.0000 0.70370  0.53670  0.31750  Biso   1.000  H
  C19      1.0000 0.34920  0.51470  0.56630  Biso   1.000  C
  C20      1.0000 0.65080  0.48530  0.43370  Biso   1.000  C
  H23      1.0000 0.31790  0.55350  0.51750  Biso   1.000  H
  H24      1.0000 0.68210  0.44650  0.48250  Biso   1.000  H
  H25      1.0000 0.33810  0.42970  0.54370  Biso   1.000  H
  H26      1.0000 0.66190  0.57030  0.45630  Biso   1.000  H
  C21      1.0000 0.52300  0.75010  0.64430  Biso   1.000  C
  C22      1.0000 0.47700  0.24990  0.35570  Biso   1.000  C
  C23      1.0000 0.45470  0.81180  0.59860  Biso   1.000  C
  C24      1.0000 0.54530  0.18820  0.40140  Biso   1.000  C
  H27      1.0000 0.39630  0.77140  0.54660  Biso   1.000  H
  H28      1.0000 0.60370  0.22860  0.45340  Biso   1.000  H
  C25      1.0000 0.47090  0.93090  0.62800  Biso   1.000  C
  C26      1.0000 0.52910  0.06910  0.37200  Biso   1.000  C
  H29      1.0000 0.42610  0.97400  0.59560  Biso   1.000  H
  H30      1.0000 0.57390  0.02600  0.40440  Biso   1.000  H
  C27      1.0000 0.55280  0.98700  0.70480  Biso   1.000  C
  C28      1.0000 0.44720  0.01300  0.29520  Biso   1.000  C
  H31      1.0000 0.56190  0.06810  0.72650  Biso   1.000  H
  H32      1.0000 0.43810  0.93190  0.27350  Biso   1.000  H
  C29      1.0000 0.62200  0.92660  0.75100  Biso   1.000  C
  C30      1.0000 0.37800  0.07340  0.24900  Biso   1.000  C
  H33      1.0000 0.68030  0.96750  0.80290  Biso   1.000  H
  H34      1.0000 0.31970  0.03250  0.19710  Biso   1.000  H
  C31      1.0000 0.60610  0.80760  0.72160  Biso   1.000  C
  C32      1.0000 0.39390  0.19240  0.27840  Biso   1.000  C
  H35      1.0000 0.65140  0.76500  0.75390  Biso   1.000  H
  H36      1.0000 0.34860  0.23500  0.24610  Biso   1.000  H
  C33      1.0000 0.02710  0.94790  0.99740  Biso   1.000  C
  C34      1.0000 0.97290  0.05210  0.00260  Biso   1.000  C
  H37      1.0000 0.11210  0.98280  0.98210  Biso   1.000  H
  H38      1.0000 0.88790  0.01720  0.01790  Biso   1.000  H
  H39      1.0000 0.03530  0.91500  0.05420  Biso   1.000  H
  H40      1.0000 0.96470  0.08500  0.94580  Biso   1.000  H
  C35      1.0000 0.93690  0.84190  0.92820  Biso   1.000  C
  C36      1.0000 0.06310  0.15810  0.07180  Biso   1.000  C
  H41      1.0000 0.94830  0.86880  0.87010  Biso   1.000  H
  H42      1.0000 0.05170  0.13120  0.12990  Biso   1.000  H
  H43      1.0000 0.84830  0.82630  0.93320  Biso   1.000  H
  H44      1.0000 0.15170  0.17370  0.06680  Biso   1.000  H
  C37      1.0000 0.10050  0.71600  0.89380  Biso   1.000  C
  C38      1.0000 0.89950  0.28400  0.10620  Biso   1.000  C
  C39      1.0000 0.15710  0.81020  0.84660  Biso   1.000  C
  C40      1.0000 0.84290  0.18980  0.15340  Biso   1.000  C
  H45      1.0000 0.12740  0.87590  0.83850  Biso   1.000  H
  H46      1.0000 0.87260  0.12410  0.16150  Biso   1.000  H
  C41      1.0000 0.25840  0.80940  0.81060  Biso   1.000  C
  C42      1.0000 0.74160  0.19060  0.18940  Biso   1.000  C
  H47      1.0000 0.29740  0.87520  0.77780  Biso   1.000  H
  H48      1.0000 0.70260  0.12480  0.22220  Biso   1.000  H
  C43      1.0000 0.30320  0.71760  0.82090  Biso   1.000  C
  C44      1.0000 0.69680  0.28240  0.17910  Biso   1.000  C
  H49      1.0000 0.37290  0.71950  0.79580  Biso   1.000  H
  H50      1.0000 0.62710  0.28050  0.20420  Biso   1.000  H
  C45      1.0000 0.24630  0.61950  0.86890  Biso   1.000  C
  C46      1.0000 0.75370  0.38050  0.13110  Biso   1.000  C
  H51      1.0000 0.27660  0.55400  0.87590  Biso   1.000  H
  H52      1.0000 0.72340  0.44600  0.12410  Biso   1.000  H
  C47      1.0000 0.14460  0.61900  0.90610  Biso   1.000  C
  C48      1.0000 0.85540  0.38100  0.09390  Biso   1.000  C
  H53      1.0000 0.10580  0.55380  0.93940  Biso   1.000  H
  H54      1.0000 0.89420  0.44620  0.06060  Biso   1.000  H
  C49      1.0000 0.13070  0.42390  0.59320  Biso   1.000  C
  C50      1.0000 0.86930  0.57610  0.40680  Biso   1.000  C
  H55      1.0000 0.12180  0.33620  0.58190  Biso   1.000  H
  H56      1.0000 0.87820  0.66380  0.41810  Biso   1.000  H
  H57      1.0000 0.10880  0.45330  0.53680  Biso   1.000  H
  H58      1.0000 0.89120  0.54670  0.46320  Biso   1.000  H
  C51      1.0000 0.03720  0.42830  0.64990  Biso   1.000  C
  C52      1.0000 0.96280  0.57170  0.35010  Biso   1.000  C
  H59      1.0000 0.05980  0.51590  0.67340  Biso   1.000  H
  H60      1.0000 0.94020  0.48410  0.32660  Biso   1.000  H
  H61      1.0000 0.04420  0.37940  0.69930  Biso   1.000  H
  H62      1.0000 0.95580  0.62060  0.30070  Biso   1.000  H
  C53      1.0000 0.85700  0.21460  0.55520  Biso   1.000  C
  C54      1.0000 0.14300  0.78540  0.44480  Biso   1.000  C
  C55      1.0000 0.81290  0.11510  0.60300  Biso   1.000  C
  C56      1.0000 0.18710  0.88490  0.39700  Biso   1.000  C
  H63      1.0000 0.79210  0.12780  0.65750  Biso   1.000  H
  H64      1.0000 0.20790  0.87220  0.34250  Biso   1.000  H
  C57      1.0000 0.79930  0.99810  0.57160  Biso   1.000  C
  C58      1.0000 0.20070  0.00190  0.42840  Biso   1.000  C
  H65      1.0000 0.76960  0.92910  0.60410  Biso   1.000  H
  H66      1.0000 0.23040  0.07090  0.39590  Biso   1.000  H
  C59      1.0000 0.83040  0.98220  0.48960  Biso   1.000  C
  C60      1.0000 0.16960  0.01780  0.51040  Biso   1.000  C
  H67      1.0000 0.82030  0.90130  0.46680  Biso   1.000  H
  H68      1.0000 0.17970  0.09870  0.53320  Biso   1.000  H
  C61      1.0000 0.87320  0.07810  0.44450  Biso   1.000  C
  C62      1.0000 0.12680  0.92190  0.55550  Biso   1.000  C
  H69      1.0000 0.89680  0.06530  0.39100  Biso   1.000  H
  H70      1.0000 0.10320  0.93470  0.60900  Biso   1.000  H
  C63      1.0000 0.88440  0.19750  0.47340  Biso   1.000  C
  C64      1.0000 0.11560  0.80250  0.52660  Biso   1.000  C
  H71      1.0000 0.90970  0.26480  0.43890  Biso   1.000  H
  H72      1.0000 0.09030  0.73520  0.56110  Biso   1.000  H
  Cu1      1.0000 0.60231  0.33504  0.80706  Biso   1.000  Cu
  Cu2      1.0000 0.39769  0.66496  0.19294  Biso   1.000  Cu
  Cu3      1.0000 0.60618  0.51404  0.70627  Biso   1.000  Cu
  Cu4      1.0000 0.39382  0.48596  0.29373  Biso   1.000  Cu
  Cu5      1.0000 0.80444  0.55371  0.83318  Biso   1.000  Cu
  Cu6      1.0000 0.19556  0.44629  0.16682  Biso   1.000  Cu
  Cu7      1.0000 0.75807  0.38953  0.69009  Biso   1.000  Cu
  Cu8      1.0000 0.24193  0.61047  0.30991  Biso   1.000  Cu
  I1       1.0000 0.58274  0.53966  0.87137  Biso   1.000  I
  I2       1.0000 0.41726  0.46034  0.12863  Biso   1.000  I
  I3       1.0000 0.83205  0.33329  0.84648  Biso   1.000  I
  I4       1.0000 0.16795  0.66671  0.15352  Biso   1.000  I
  I5       1.0000 0.51100  0.28156  0.63498  Biso   1.000  I
  I6       1.0000 0.48900  0.71844  0.36502  Biso   1.000  I
  I7       1.0000 0.85058  0.64647  0.68553  Biso   1.000  I
  I8       1.0000 0.14942  0.35353  0.31447  Biso   1.000  I
  S1       1.0000 0.47273  0.16081  0.85917  Biso   1.000  S
  S2       1.0000 0.52727  0.83919  0.14083  Biso   1.000  S
  S3       1.0000 0.51700  0.60469  0.60267  Biso   1.000  S
  S4       1.0000 0.48300  0.39531  0.39733  Biso   1.000  S
  S5       1.0000 0.96308  0.69709  0.93762  Biso   1.000  S
  S6       1.0000 0.03692  0.30291  0.06238  Biso   1.000  S
  S7       1.0000 0.87570  0.36681  0.59162  Biso   1.000  S
  S8       1.0000 0.12430  0.63319  0.40838  Biso   1.000  S
