data_image0
_cell_length_a       6.962
_cell_length_b       13.757
_cell_length_c       15.871
_cell_angle_alpha    108.171
_cell_angle_beta     92.343
_cell_angle_gamma    98.838

_symmetry_space_group_name_H-M    "P 1"
_symmetry_int_tables_number       1

loop_
  _symmetry_equiv_pos_as_xyz
  'x, y, z'

loop_
  _atom_site_label
  _atom_site_occupancy
  _atom_site_fract_x
  _atom_site_fract_y
  _atom_site_fract_z
  _atom_site_thermal_displace_type
  _atom_site_B_iso_or_equiv
  _atom_site_type_symbol
  Sb1      1.0000 0.44078  0.04235  0.20775  Biso   1.000  Sb
  Sb2      1.0000 0.55922  0.95766  0.79225  Biso   1.000  Sb
  Sb3      1.0000 0.01695  0.51260  0.31556  Biso   1.000  Sb
  Sb4      1.0000 0.98305  0.48740  0.68444  Biso   1.000  Sb
  Cu1      1.0000 0.20729  0.78545  0.12440  Biso   1.000  Cu
  Cu2      1.0000 0.79271  0.21455  0.87560  Biso   1.000  Cu
  Cu3      1.0000 0.06642  0.25313  0.23478  Biso   1.000  Cu
  Cu4      1.0000 0.93358  0.74687  0.76522  Biso   1.000  Cu
  Cu5      1.0000 0.47310  0.28186  0.56922  Biso   1.000  Cu
  Cu6      1.0000 0.52690  0.71814  0.43078  Biso   1.000  Cu
  S1       1.0000 0.52620  0.75306  0.14173  Biso   1.000  S
  S2       1.0000 0.47380  0.24694  0.85827  Biso   1.000  S
  S3       1.0000 0.16627  0.92703  0.24121  Biso   1.000  S
  S4       1.0000 0.83373  0.07297  0.75879  Biso   1.000  S
  S5       1.0000 0.19271  0.11426  0.13854  Biso   1.000  S
  S6       1.0000 0.80729  0.88574  0.86146  Biso   1.000  S
  S7       1.0000 0.46014  0.18346  0.35130  Biso   1.000  S
  S8       1.0000 0.53986  0.81654  0.64870  Biso   1.000  S
  S9       1.0000 0.26560  0.76497  0.82230  Biso   1.000  S
  S10      1.0000 0.73440  0.23503  0.17770  Biso   1.000  S
  S11      1.0000 0.21548  0.40545  0.21154  Biso   1.000  S
  S12      1.0000 0.78452  0.59455  0.78846  Biso   1.000  S
  S13      1.0000 0.30484  0.56757  0.42787  Biso   1.000  S
  S14      1.0000 0.69516  0.43243  0.57213  Biso   1.000  S
  S15      1.0000 0.09984  0.66440  0.26413  Biso   1.000  S
  S16      1.0000 0.90016  0.33560  0.73587  Biso   1.000  S
  S17      1.0000 0.14065  0.29017  0.53876  Biso   1.000  S
  S18      1.0000 0.85935  0.70983  0.46124  Biso   1.000  S
  N1       1.0000 0.56920  0.73329  0.31184  Biso   1.000  N
  N2       1.0000 0.43080  0.26671  0.68816  Biso   1.000  N
  N3       1.0000 0.64340  0.03245  0.36372  Biso   1.000  N
  N4       1.0000 0.35660  0.96755  0.63628  Biso   1.000  N
  N5       1.0000 0.60270  0.16059  0.49935  Biso   1.000  N
  N6       1.0000 0.39730  0.83941  0.50065  Biso   1.000  N
  N7       1.0000 0.22320  0.80290  0.00419  Biso   1.000  N
  N8       1.0000 0.77680  0.19710  0.99581  Biso   1.000  N
  N9       1.0000 0.84230  0.51683  0.14867  Biso   1.000  N
  N10      1.0000 0.15770  0.48317  0.85133  Biso   1.000  N
  N11      1.0000 0.98630  0.65905  0.10249  Biso   1.000  N
  N12      1.0000 0.01370  0.34095  0.89751  Biso   1.000  N
  N13      1.0000 0.04150  0.27060  0.36060  Biso   1.000  N
  N14      1.0000 0.95850  0.72940  0.63940  Biso   1.000  N
  C1       1.0000 0.55280  0.74120  0.24207  Biso   1.000  C
  C2       1.0000 0.44720  0.25880  0.75793  Biso   1.000  C
  C3       1.0000 0.96230  0.98000  0.20670  Biso   1.000  C
  C4       1.0000 0.03770  0.02000  0.79330  Biso   1.000  C
  H1       1.0000 0.84320  0.92960  0.19780  Biso   1.000  H
  H2       1.0000 0.15680  0.07040  0.80220  Biso   1.000  H
  H3       1.0000 0.94700  0.04220  0.25400  Biso   1.000  H
  H4       1.0000 0.05300  0.95780  0.74600  Biso   1.000  H
  C5       1.0000 0.99080  0.00620  0.12259  Biso   1.000  C
  C6       1.0000 0.00920  0.99380  0.87741  Biso   1.000  C
  H5       1.0000 0.87170  0.02450  0.10290  Biso   1.000  H
  H6       1.0000 0.12830  0.97550  0.89710  Biso   1.000  H
  H7       1.0000 0.01680  0.94570  0.07640  Biso   1.000  H
  H8       1.0000 0.98320  0.05430  0.92360  Biso   1.000  H
  C7       1.0000 0.58290  0.11948  0.41084  Biso   1.000  C
  C8       1.0000 0.41710  0.88052  0.58916  Biso   1.000  C
  C9       1.0000 0.73510  0.98450  0.41000  Biso   1.000  C
  C10      1.0000 0.26490  0.01550  0.59000  Biso   1.000  C
  H9       1.0000 0.78040  0.92420  0.37950  Biso   1.000  H
  H10      1.0000 0.21960  0.07580  0.62050  Biso   1.000  H
  C11      1.0000 0.76490  0.02110  0.50120  Biso   1.000  C
  C12      1.0000 0.23510  0.97890  0.49880  Biso   1.000  C
  H11      1.0000 0.82860  0.98680  0.53280  Biso   1.000  H
  H12      1.0000 0.17140  0.01320  0.46720  Biso   1.000  H
  C13      1.0000 0.69670  0.11050  0.54392  Biso   1.000  C
  C14      1.0000 0.30330  0.88950  0.45608  Biso   1.000  C
  H13      1.0000 0.71610  0.13730  0.60570  Biso   1.000  H
  H14      1.0000 0.28390  0.86270  0.39430  Biso   1.000  H
  C15      1.0000 0.24160  0.78840  0.92990  Biso   1.000  C
  C16      1.0000 0.75840  0.21160  0.07010  Biso   1.000  C
  C17      1.0000 0.45420  0.45360  0.27570  Biso   1.000  C
  C18      1.0000 0.54580  0.54640  0.72430  Biso   1.000  C
  H15      1.0000 0.54140  0.40530  0.25170  Biso   1.000  H
  H16      1.0000 0.45860  0.59470  0.74830  Biso   1.000  H
  H17      1.0000 0.50860  0.51990  0.26910  Biso   1.000  H
  H18      1.0000 0.49140  0.48010  0.73090  Biso   1.000  H
  C19      1.0000 0.44400  0.46720  0.37330  Biso   1.000  C
  C20      1.0000 0.55600  0.53280  0.62670  Biso   1.000  C
  H19      1.0000 0.57550  0.48530  0.40270  Biso   1.000  H
  H20      1.0000 0.42450  0.51470  0.59730  Biso   1.000  H
  H21      1.0000 0.38410  0.40170  0.37970  Biso   1.000  H
  H22      1.0000 0.61590  0.59830  0.62030  Biso   1.000  H
  C21      1.0000 0.96000  0.60730  0.16199  Biso   1.000  C
  C22      1.0000 0.04000  0.39270  0.83801  Biso   1.000  C
  C23      1.0000 0.73860  0.47410  0.06874  Biso   1.000  C
  C24      1.0000 0.26140  0.52590  0.93126  Biso   1.000  C
  H23      1.0000 0.65610  0.41040  0.05650  Biso   1.000  H
  H24      1.0000 0.34390  0.58960  0.94350  Biso   1.000  H
  C25      1.0000 0.75160  0.52230  0.00439  Biso   1.000  C
  C26      1.0000 0.24840  0.47770  0.99561  Biso   1.000  C
  H25      1.0000 0.67760  0.49290  0.94960  Biso   1.000  H
  H26      1.0000 0.32240  0.50710  0.05040  Biso   1.000  H
  C27      1.0000 0.87680  0.61430  0.02407  Biso   1.000  C
  C28      1.0000 0.12320  0.38570  0.97593  Biso   1.000  C
  H27      1.0000 0.88710  0.64780  0.98140  Biso   1.000  H
  H28      1.0000 0.11290  0.35220  0.01860  Biso   1.000  H
  C29      1.0000 0.08080  0.28020  0.43417  Biso   1.000  C
  C30      1.0000 0.91920  0.71980  0.56583  Biso   1.000  C
