data_image0
_cell_length_a       43.256
_cell_length_b       6.9566
_cell_length_c       10.6961
_cell_angle_alpha    90
_cell_angle_beta     90
_cell_angle_gamma    90

_symmetry_space_group_name_H-M    "P 1"
_symmetry_int_tables_number       1

loop_
  _symmetry_equiv_pos_as_xyz
  'x, y, z'

loop_
  _atom_site_label
  _atom_site_occupancy
  _atom_site_fract_x
  _atom_site_fract_y
  _atom_site_fract_z
  _atom_site_thermal_displace_type
  _atom_site_B_iso_or_equiv
  _atom_site_type_symbol
  Sb1      1.0000 0.84531  0.96108  0.09070  Biso   1.000  Sb
  Sb2      1.0000 0.15469  0.03892  0.09070  Biso   1.000  Sb
  Sb3      1.0000 0.34531  0.53892  0.09070  Biso   1.000  Sb
  Sb4      1.0000 0.65469  0.46108  0.09070  Biso   1.000  Sb
  Sb5      1.0000 0.34531  0.46108  0.59070  Biso   1.000  Sb
  Sb6      1.0000 0.65469  0.53892  0.59070  Biso   1.000  Sb
  Sb7      1.0000 0.84531  0.03892  0.59070  Biso   1.000  Sb
  Sb8      1.0000 0.15469  0.96108  0.59070  Biso   1.000  Sb
  Cu1      1.0000 0.97136  0.89629  0.00375  Biso   1.000  Cu
  Cu2      1.0000 0.02864  0.10371  0.00375  Biso   1.000  Cu
  Cu3      1.0000 0.47136  0.60371  0.00375  Biso   1.000  Cu
  Cu4      1.0000 0.52864  0.39629  0.00375  Biso   1.000  Cu
  Cu5      1.0000 0.47136  0.39629  0.50375  Biso   1.000  Cu
  Cu6      1.0000 0.52864  0.60371  0.50375  Biso   1.000  Cu
  Cu7      1.0000 0.97136  0.10371  0.50375  Biso   1.000  Cu
  Cu8      1.0000 0.02864  0.89629  0.50375  Biso   1.000  Cu
  Cu9      1.0000 0.77709  0.14510  0.90955  Biso   1.000  Cu
  Cu10     1.0000 0.22291  0.85490  0.90955  Biso   1.000  Cu
  Cu11     1.0000 0.27709  0.35490  0.90955  Biso   1.000  Cu
  Cu12     1.0000 0.72291  0.64510  0.90955  Biso   1.000  Cu
  Cu13     1.0000 0.27709  0.64510  0.40955  Biso   1.000  Cu
  Cu14     1.0000 0.72291  0.35490  0.40955  Biso   1.000  Cu
  Cu15     1.0000 0.77709  0.85490  0.40955  Biso   1.000  Cu
  Cu16     1.0000 0.22291  0.14510  0.40955  Biso   1.000  Cu
  S1       1.0000 0.97653  0.22650  0.06901  Biso   1.000  S
  S2       1.0000 0.02347  0.77350  0.06901  Biso   1.000  S
  S3       1.0000 0.47653  0.27350  0.06901  Biso   1.000  S
  S4       1.0000 0.52347  0.72650  0.06901  Biso   1.000  S
  S5       1.0000 0.47653  0.72650  0.56901  Biso   1.000  S
  S6       1.0000 0.52347  0.27350  0.56901  Biso   1.000  S
  S7       1.0000 0.97653  0.77350  0.56901  Biso   1.000  S
  S8       1.0000 0.02347  0.22650  0.56901  Biso   1.000  S
  S9       1.0000 0.89940  0.01030  0.02189  Biso   1.000  S
  S10      1.0000 0.10060  0.98970  0.02189  Biso   1.000  S
  S11      1.0000 0.39940  0.48970  0.02189  Biso   1.000  S
  S12      1.0000 0.60060  0.51030  0.02189  Biso   1.000  S
  S13      1.0000 0.39940  0.51030  0.52189  Biso   1.000  S
  S14      1.0000 0.60060  0.48970  0.52189  Biso   1.000  S
  S15      1.0000 0.89940  0.98970  0.52189  Biso   1.000  S
  S16      1.0000 0.10060  0.01030  0.52189  Biso   1.000  S
  S17      1.0000 0.84544  0.17170  0.27176  Biso   1.000  S
  S18      1.0000 0.15456  0.82830  0.27176  Biso   1.000  S
  S19      1.0000 0.34544  0.32830  0.27176  Biso   1.000  S
  S20      1.0000 0.65456  0.67170  0.27176  Biso   1.000  S
  S21      1.0000 0.34544  0.67170  0.77176  Biso   1.000  S
  S22      1.0000 0.65456  0.32830  0.77176  Biso   1.000  S
  S23      1.0000 0.84544  0.82830  0.77176  Biso   1.000  S
  S24      1.0000 0.15456  0.17170  0.77176  Biso   1.000  S
  S25      1.0000 0.82572  0.24140  0.96780  Biso   1.000  S
  S26      1.0000 0.17428  0.75860  0.96780  Biso   1.000  S
  S27      1.0000 0.32572  0.25860  0.96780  Biso   1.000  S
  S28      1.0000 0.67428  0.74140  0.96780  Biso   1.000  S
  S29      1.0000 0.32572  0.74140  0.46780  Biso   1.000  S
  S30      1.0000 0.67428  0.25860  0.46780  Biso   1.000  S
  S31      1.0000 0.82572  0.75860  0.46780  Biso   1.000  S
  S32      1.0000 0.17428  0.24140  0.46780  Biso   1.000  S
  S33      1.0000 0.76650  0.82390  0.96789  Biso   1.000  S
  S34      1.0000 0.23350  0.17610  0.96789  Biso   1.000  S
  S35      1.0000 0.26650  0.67610  0.96789  Biso   1.000  S
  S36      1.0000 0.73350  0.32390  0.96789  Biso   1.000  S
  S37      1.0000 0.26650  0.32390  0.46789  Biso   1.000  S
  S38      1.0000 0.73350  0.67610  0.46789  Biso   1.000  S
  S39      1.0000 0.76650  0.17610  0.46789  Biso   1.000  S
  S40      1.0000 0.23350  0.82390  0.46789  Biso   1.000  S
  N1       1.0000 0.97042  0.15640  0.32640  Biso   1.000  N
  N2       1.0000 0.02958  0.84360  0.32640  Biso   1.000  N
  N3       1.0000 0.47042  0.34360  0.32640  Biso   1.000  N
  N4       1.0000 0.52958  0.65640  0.32640  Biso   1.000  N
  N5       1.0000 0.47042  0.65640  0.82640  Biso   1.000  N
  N6       1.0000 0.52958  0.34360  0.82640  Biso   1.000  N
  N7       1.0000 0.97042  0.84360  0.82640  Biso   1.000  N
  N8       1.0000 0.02958  0.15640  0.82640  Biso   1.000  N
  N9       1.0000 0.94104  0.78320  0.13020  Biso   1.000  N
  N10      1.0000 0.05896  0.21680  0.13020  Biso   1.000  N
  N11      1.0000 0.44104  0.71680  0.13020  Biso   1.000  N
  N12      1.0000 0.55896  0.28320  0.13020  Biso   1.000  N
  N13      1.0000 0.44104  0.28320  0.63020  Biso   1.000  N
  N14      1.0000 0.55896  0.71680  0.63020  Biso   1.000  N
  N15      1.0000 0.94104  0.21680  0.63020  Biso   1.000  N
  N16      1.0000 0.05896  0.78320  0.63020  Biso   1.000  N
  N17      1.0000 0.88991  0.77750  0.21100  Biso   1.000  N
  N18      1.0000 0.11009  0.22250  0.21100  Biso   1.000  N
  N19      1.0000 0.38991  0.72250  0.21100  Biso   1.000  N
  N20      1.0000 0.61009  0.27750  0.21100  Biso   1.000  N
  N21      1.0000 0.38991  0.27750  0.71100  Biso   1.000  N
  N22      1.0000 0.61009  0.72250  0.71100  Biso   1.000  N
  N23      1.0000 0.88991  0.22250  0.71100  Biso   1.000  N
  N24      1.0000 0.11009  0.77750  0.71100  Biso   1.000  N
  N25      1.0000 0.77159  0.84750  0.22730  Biso   1.000  N
  N26      1.0000 0.22841  0.15250  0.22730  Biso   1.000  N
  N27      1.0000 0.27159  0.65250  0.22730  Biso   1.000  N
  N28      1.0000 0.72841  0.34750  0.22730  Biso   1.000  N
  N29      1.0000 0.27159  0.34750  0.72730  Biso   1.000  N
  N30      1.0000 0.72841  0.65250  0.72730  Biso   1.000  N
  N31      1.0000 0.77159  0.15250  0.72730  Biso   1.000  N
  N32      1.0000 0.22841  0.84750  0.72730  Biso   1.000  N
  C1       1.0000 0.97310  0.18320  0.22040  Biso   1.000  C
  C2       1.0000 0.02690  0.81680  0.22040  Biso   1.000  C
  C3       1.0000 0.47310  0.31680  0.22040  Biso   1.000  C
  C4       1.0000 0.52690  0.68320  0.22040  Biso   1.000  C
  C5       1.0000 0.47310  0.68320  0.72040  Biso   1.000  C
  C6       1.0000 0.52690  0.31680  0.72040  Biso   1.000  C
  C7       1.0000 0.97310  0.81680  0.72040  Biso   1.000  C
  C8       1.0000 0.02690  0.18320  0.72040  Biso   1.000  C
  C9       1.0000 0.91171  0.84180  0.13160  Biso   1.000  C
  C10      1.0000 0.08829  0.15820  0.13160  Biso   1.000  C
  C11      1.0000 0.41171  0.65820  0.13160  Biso   1.000  C
  C12      1.0000 0.58829  0.34180  0.13160  Biso   1.000  C
  C13      1.0000 0.41171  0.34180  0.63160  Biso   1.000  C
  C14      1.0000 0.58829  0.65820  0.63160  Biso   1.000  C
  C15      1.0000 0.91171  0.15820  0.63160  Biso   1.000  C
  C16      1.0000 0.08829  0.84180  0.63160  Biso   1.000  C
  C17      1.0000 0.94908  0.65470  0.21780  Biso   1.000  C
  C18      1.0000 0.05092  0.34530  0.21780  Biso   1.000  C
  C19      1.0000 0.44908  0.84530  0.21780  Biso   1.000  C
  C20      1.0000 0.55092  0.15470  0.21780  Biso   1.000  C
  C21      1.0000 0.44908  0.15470  0.71780  Biso   1.000  C
  C22      1.0000 0.55092  0.84530  0.71780  Biso   1.000  C
  C23      1.0000 0.94908  0.34530  0.71780  Biso   1.000  C
  C24      1.0000 0.05092  0.65470  0.71780  Biso   1.000  C
  H1       1.0000 0.96950  0.61290  0.22130  Biso   1.000  H
  H2       1.0000 0.03050  0.38710  0.22130  Biso   1.000  H
  H3       1.0000 0.46950  0.88710  0.22130  Biso   1.000  H
  H4       1.0000 0.53050  0.11290  0.22130  Biso   1.000  H
  H5       1.0000 0.46950  0.11290  0.72130  Biso   1.000  H
  H6       1.0000 0.53050  0.88710  0.72130  Biso   1.000  H
  H7       1.0000 0.96950  0.38710  0.72130  Biso   1.000  H
  H8       1.0000 0.03050  0.61290  0.72130  Biso   1.000  H
  C25      1.0000 0.92799  0.58180  0.30340  Biso   1.000  C
  C26      1.0000 0.07201  0.41820  0.30340  Biso   1.000  C
  C27      1.0000 0.42799  0.91820  0.30340  Biso   1.000  C
  C28      1.0000 0.57201  0.08180  0.30340  Biso   1.000  C
  C29      1.0000 0.42799  0.08180  0.80340  Biso   1.000  C
  C30      1.0000 0.57201  0.91820  0.80340  Biso   1.000  C
  C31      1.0000 0.92799  0.41820  0.80340  Biso   1.000  C
  C32      1.0000 0.07201  0.58180  0.80340  Biso   1.000  C
  H9       1.0000 0.93390  0.49360  0.36420  Biso   1.000  H
  H10      1.0000 0.06610  0.50640  0.36420  Biso   1.000  H
  H11      1.0000 0.43390  0.00640  0.36420  Biso   1.000  H
  H12      1.0000 0.56610  0.99360  0.36420  Biso   1.000  H
  H13      1.0000 0.43390  0.99360  0.86420  Biso   1.000  H
  H14      1.0000 0.56610  0.00640  0.86420  Biso   1.000  H
  H15      1.0000 0.93390  0.50640  0.86420  Biso   1.000  H
  H16      1.0000 0.06610  0.49360  0.86420  Biso   1.000  H
  C33      1.0000 0.89817  0.64470  0.29490  Biso   1.000  C
  C34      1.0000 0.10183  0.35530  0.29490  Biso   1.000  C
  C35      1.0000 0.39817  0.85530  0.29490  Biso   1.000  C
  C36      1.0000 0.60183  0.14470  0.29490  Biso   1.000  C
  C37      1.0000 0.39817  0.14470  0.79490  Biso   1.000  C
  C38      1.0000 0.60183  0.85530  0.79490  Biso   1.000  C
  C39      1.0000 0.89817  0.35530  0.79490  Biso   1.000  C
  C40      1.0000 0.10183  0.64470  0.79490  Biso   1.000  C
  H17      1.0000 0.88330  0.59420  0.34850  Biso   1.000  H
  H18      1.0000 0.11670  0.40580  0.34850  Biso   1.000  H
  H19      1.0000 0.38330  0.90580  0.34850  Biso   1.000  H
  H20      1.0000 0.61670  0.09420  0.34850  Biso   1.000  H
  H21      1.0000 0.38330  0.09420  0.84850  Biso   1.000  H
  H22      1.0000 0.61670  0.90580  0.84850  Biso   1.000  H
  H23      1.0000 0.88330  0.40580  0.84850  Biso   1.000  H
  H24      1.0000 0.11670  0.59420  0.84850  Biso   1.000  H
  C41      1.0000 0.81551  0.33390  0.21710  Biso   1.000  C
  C42      1.0000 0.18449  0.66610  0.21710  Biso   1.000  C
  C43      1.0000 0.31551  0.16610  0.21710  Biso   1.000  C
  C44      1.0000 0.68449  0.83390  0.21710  Biso   1.000  C
  C45      1.0000 0.31551  0.83390  0.71710  Biso   1.000  C
  C46      1.0000 0.68449  0.16610  0.71710  Biso   1.000  C
  C47      1.0000 0.81551  0.66610  0.71710  Biso   1.000  C
  C48      1.0000 0.18449  0.33390  0.71710  Biso   1.000  C
  H25      1.0000 0.79610  0.26430  0.21080  Biso   1.000  H
  H26      1.0000 0.20390  0.73570  0.21080  Biso   1.000  H
  H27      1.0000 0.29610  0.23570  0.21080  Biso   1.000  H
  H28      1.0000 0.70390  0.76430  0.21080  Biso   1.000  H
  H29      1.0000 0.29610  0.76430  0.71080  Biso   1.000  H
  H30      1.0000 0.70390  0.23570  0.71080  Biso   1.000  H
  H31      1.0000 0.79610  0.73570  0.71080  Biso   1.000  H
  H32      1.0000 0.20390  0.26430  0.71080  Biso   1.000  H
  H33      1.0000 0.81280  0.43630  0.27760  Biso   1.000  H
  H34      1.0000 0.18720  0.56370  0.27760  Biso   1.000  H
  H35      1.0000 0.31280  0.06370  0.27760  Biso   1.000  H
  H36      1.0000 0.68720  0.93630  0.27760  Biso   1.000  H
  H37      1.0000 0.31280  0.93630  0.77760  Biso   1.000  H
  H38      1.0000 0.68720  0.06370  0.77760  Biso   1.000  H
  H39      1.0000 0.81280  0.56370  0.77760  Biso   1.000  H
  H40      1.0000 0.18720  0.43630  0.77760  Biso   1.000  H
  C49      1.0000 0.82335  0.42010  0.09150  Biso   1.000  C
  C50      1.0000 0.17665  0.57990  0.09150  Biso   1.000  C
  C51      1.0000 0.32335  0.07990  0.09150  Biso   1.000  C
  C52      1.0000 0.67665  0.92010  0.09150  Biso   1.000  C
  C53      1.0000 0.32335  0.92010  0.59150  Biso   1.000  C
  C54      1.0000 0.67665  0.07990  0.59150  Biso   1.000  C
  C55      1.0000 0.82335  0.57990  0.59150  Biso   1.000  C
  C56      1.0000 0.17665  0.42010  0.59150  Biso   1.000  C
  H41      1.0000 0.84300  0.48660  0.09760  Biso   1.000  H
  H42      1.0000 0.15700  0.51340  0.09760  Biso   1.000  H
  H43      1.0000 0.34300  0.01340  0.09760  Biso   1.000  H
  H44      1.0000 0.65700  0.98660  0.09760  Biso   1.000  H
  H45      1.0000 0.34300  0.98660  0.59760  Biso   1.000  H
  H46      1.0000 0.65700  0.01340  0.59760  Biso   1.000  H
  H47      1.0000 0.84300  0.51340  0.59760  Biso   1.000  H
  H48      1.0000 0.15700  0.48660  0.59760  Biso   1.000  H
  H49      1.0000 0.80770  0.51430  0.06960  Biso   1.000  H
  H50      1.0000 0.19230  0.48570  0.06960  Biso   1.000  H
  H51      1.0000 0.30770  0.98570  0.06960  Biso   1.000  H
  H52      1.0000 0.69230  0.01430  0.06960  Biso   1.000  H
  H53      1.0000 0.30770  0.01430  0.56960  Biso   1.000  H
  H54      1.0000 0.69230  0.98570  0.56960  Biso   1.000  H
  H55      1.0000 0.80770  0.48570  0.56960  Biso   1.000  H
  H56      1.0000 0.19230  0.51430  0.56960  Biso   1.000  H
  C57      1.0000 0.76876  0.83830  0.12200  Biso   1.000  C
  C58      1.0000 0.23124  0.16170  0.12200  Biso   1.000  C
  C59      1.0000 0.26876  0.66170  0.12200  Biso   1.000  C
  C60      1.0000 0.73124  0.33830  0.12200  Biso   1.000  C
  C61      1.0000 0.26876  0.33830  0.62200  Biso   1.000  C
  C62      1.0000 0.73124  0.66170  0.62200  Biso   1.000  C
  C63      1.0000 0.76876  0.16170  0.62200  Biso   1.000  C
  C64      1.0000 0.23124  0.83830  0.62200  Biso   1.000  C
