data_image0
_cell_length_a       24.9319
_cell_length_b       10.6376
_cell_length_c       15.3725
_cell_angle_alpha    90
_cell_angle_beta     107.806
_cell_angle_gamma    90

_symmetry_space_group_name_H-M    "P 1"
_symmetry_int_tables_number       1

loop_
  _symmetry_equiv_pos_as_xyz
  'x, y, z'

loop_
  _atom_site_label
  _atom_site_occupancy
  _atom_site_fract_x
  _atom_site_fract_y
  _atom_site_fract_z
  _atom_site_thermal_displace_type
  _atom_site_B_iso_or_equiv
  _atom_site_type_symbol
  Cu1      1.0000 0.08242  0.15585  0.12009  Biso   1.000  Cu
  Cu2      1.0000 0.91758  0.15585  0.37991  Biso   1.000  Cu
  Cu3      1.0000 0.58242  0.65585  0.12009  Biso   1.000  Cu
  Cu4      1.0000 0.41758  0.65585  0.37991  Biso   1.000  Cu
  Cu5      1.0000 0.91758  0.84415  0.87991  Biso   1.000  Cu
  Cu6      1.0000 0.08241  0.84415  0.62009  Biso   1.000  Cu
  Cu7      1.0000 0.41758  0.34415  0.87991  Biso   1.000  Cu
  Cu8      1.0000 0.58242  0.34415  0.62009  Biso   1.000  Cu
  Cu9      1.0000 0.08355  0.34464  0.96102  Biso   1.000  Cu
  Cu10     1.0000 0.91645  0.34464  0.53898  Biso   1.000  Cu
  Cu11     1.0000 0.58355  0.84464  0.96102  Biso   1.000  Cu
  Cu12     1.0000 0.41645  0.84464  0.53898  Biso   1.000  Cu
  Cu13     1.0000 0.91645  0.65536  0.03898  Biso   1.000  Cu
  Cu14     1.0000 0.08355  0.65536  0.46102  Biso   1.000  Cu
  Cu15     1.0000 0.41645  0.15536  0.03898  Biso   1.000  Cu
  Cu16     1.0000 0.58355  0.15536  0.46102  Biso   1.000  Cu
  Br1      1.0000 0.00483  0.25161  0.00188  Biso   1.000  Br
  Br2      1.0000 0.99517  0.25161  0.49812  Biso   1.000  Br
  Br3      1.0000 0.50483  0.75161  0.00188  Biso   1.000  Br
  Br4      1.0000 0.49517  0.75161  0.49812  Biso   1.000  Br
  Br5      1.0000 0.99517  0.74839  0.99812  Biso   1.000  Br
  Br6      1.0000 0.00483  0.74839  0.50188  Biso   1.000  Br
  Br7      1.0000 0.49517  0.24839  0.99812  Biso   1.000  Br
  Br8      1.0000 0.50483  0.24839  0.50188  Biso   1.000  Br
  Br9      1.0000 0.16169  0.25002  0.08018  Biso   1.000  Br
  Br10     1.0000 0.83831  0.25002  0.41982  Biso   1.000  Br
  Br11     1.0000 0.66169  0.75002  0.08018  Biso   1.000  Br
  Br12     1.0000 0.33831  0.75002  0.41982  Biso   1.000  Br
  Br13     1.0000 0.83831  0.74998  0.91982  Biso   1.000  Br
  Br14     1.0000 0.16169  0.74998  0.58018  Biso   1.000  Br
  Br15     1.0000 0.33831  0.24998  0.91982  Biso   1.000  Br
  Br16     1.0000 0.66169  0.24998  0.58018  Biso   1.000  Br
  C1       1.0000 0.08381  0.06490  0.22816  Biso   1.000  C
  C2       1.0000 0.91619  0.06490  0.27184  Biso   1.000  C
  C3       1.0000 0.58381  0.56490  0.22816  Biso   1.000  C
  C4       1.0000 0.41619  0.56490  0.27184  Biso   1.000  C
  C5       1.0000 0.91619  0.93510  0.77184  Biso   1.000  C
  C6       1.0000 0.08381  0.93510  0.72816  Biso   1.000  C
  C7       1.0000 0.41619  0.43510  0.77184  Biso   1.000  C
  C8       1.0000 0.58381  0.43510  0.72816  Biso   1.000  C
  N1       1.0000 0.11911  0.97530  0.27752  Biso   1.000  N
  N2       1.0000 0.88089  0.97530  0.22248  Biso   1.000  N
  N3       1.0000 0.61911  0.47530  0.27752  Biso   1.000  N
  N4       1.0000 0.38089  0.47530  0.22248  Biso   1.000  N
  N5       1.0000 0.88089  0.02470  0.72248  Biso   1.000  N
  N6       1.0000 0.11911  0.02470  0.77752  Biso   1.000  N
  N7       1.0000 0.38089  0.52470  0.72248  Biso   1.000  N
  N8       1.0000 0.61911  0.52470  0.77752  Biso   1.000  N
  C9       1.0000 0.10759  0.95100  0.35890  Biso   1.000  C
  C10      1.0000 0.89241  0.95100  0.14110  Biso   1.000  C
  C11      1.0000 0.60759  0.45100  0.35890  Biso   1.000  C
  C12      1.0000 0.39241  0.45100  0.14110  Biso   1.000  C
  C13      1.0000 0.89241  0.04900  0.64110  Biso   1.000  C
  C14      1.0000 0.10759  0.04900  0.85890  Biso   1.000  C
  C15      1.0000 0.39241  0.54900  0.64110  Biso   1.000  C
  C16      1.0000 0.60759  0.54900  0.85890  Biso   1.000  C
  H1       1.0000 0.12710  0.89330  0.40500  Biso   1.000  H
  H2       1.0000 0.87290  0.89330  0.09500  Biso   1.000  H
  H3       1.0000 0.62710  0.39330  0.40500  Biso   1.000  H
  H4       1.0000 0.37290  0.39330  0.09500  Biso   1.000  H
  H5       1.0000 0.87290  0.10670  0.59500  Biso   1.000  H
  H6       1.0000 0.12710  0.10670  0.90500  Biso   1.000  H
  H7       1.0000 0.37290  0.60670  0.59500  Biso   1.000  H
  H8       1.0000 0.62710  0.60670  0.90500  Biso   1.000  H
  C17      1.0000 0.06395  0.02370  0.36060  Biso   1.000  C
  C18      1.0000 0.93605  0.02370  0.13940  Biso   1.000  C
  C19      1.0000 0.56395  0.52370  0.36060  Biso   1.000  C
  C20      1.0000 0.43605  0.52370  0.13940  Biso   1.000  C
  C21      1.0000 0.93605  0.97630  0.63940  Biso   1.000  C
  C22      1.0000 0.06395  0.97630  0.86060  Biso   1.000  C
  C23      1.0000 0.43605  0.47630  0.63940  Biso   1.000  C
  C24      1.0000 0.56395  0.47630  0.86060  Biso   1.000  C
  H9       1.0000 0.04620  0.02700  0.40710  Biso   1.000  H
  H10      1.0000 0.95380  0.02700  0.09290  Biso   1.000  H
  H11      1.0000 0.54620  0.52700  0.40710  Biso   1.000  H
  H12      1.0000 0.45380  0.52700  0.09290  Biso   1.000  H
  H13      1.0000 0.95380  0.97300  0.59290  Biso   1.000  H
  H14      1.0000 0.04620  0.97300  0.90710  Biso   1.000  H
  H15      1.0000 0.45380  0.47300  0.59290  Biso   1.000  H
  H16      1.0000 0.54620  0.47300  0.90710  Biso   1.000  H
  N9       1.0000 0.05010  0.09300  0.28077  Biso   1.000  N
  N10      1.0000 0.94990  0.09300  0.21923  Biso   1.000  N
  N11      1.0000 0.55010  0.59300  0.28077  Biso   1.000  N
  N12      1.0000 0.44990  0.59300  0.21923  Biso   1.000  N
  N13      1.0000 0.94990  0.90700  0.71923  Biso   1.000  N
  N14      1.0000 0.05010  0.90700  0.78077  Biso   1.000  N
  N15      1.0000 0.44990  0.40700  0.71923  Biso   1.000  N
  N16      1.0000 0.55010  0.40700  0.78077  Biso   1.000  N
  C25      1.0000 0.00000  0.17150  0.25000  Biso   1.000  C
  C26      1.0000 0.50000  0.67150  0.25000  Biso   1.000  C
  C27      1.0000 0.00000  0.82850  0.75000  Biso   1.000  C
  C28      1.0000 0.50000  0.32850  0.75000  Biso   1.000  C
  H17      1.0000 0.00260  0.22610  0.19930  Biso   1.000  H
  H18      1.0000 0.99740  0.22610  0.30070  Biso   1.000  H
  H19      1.0000 0.50260  0.72610  0.19930  Biso   1.000  H
  H20      1.0000 0.49740  0.72610  0.30070  Biso   1.000  H
  H21      1.0000 0.99740  0.77390  0.80070  Biso   1.000  H
  H22      1.0000 0.00260  0.77390  0.69930  Biso   1.000  H
  H23      1.0000 0.49740  0.27390  0.80070  Biso   1.000  H
  H24      1.0000 0.50260  0.27390  0.69930  Biso   1.000  H
  C29      1.0000 0.08435  0.43480  0.85345  Biso   1.000  C
  C30      1.0000 0.91565  0.43480  0.64655  Biso   1.000  C
  C31      1.0000 0.58435  0.93480  0.85345  Biso   1.000  C
  C32      1.0000 0.41565  0.93480  0.64655  Biso   1.000  C
  C33      1.0000 0.91565  0.56520  0.14655  Biso   1.000  C
  C34      1.0000 0.08435  0.56520  0.35345  Biso   1.000  C
  C35      1.0000 0.41565  0.06520  0.14655  Biso   1.000  C
  C36      1.0000 0.58435  0.06520  0.35345  Biso   1.000  C
  N17      1.0000 0.11973  0.52440  0.83856  Biso   1.000  N
  N18      1.0000 0.88027  0.52440  0.66144  Biso   1.000  N
  N19      1.0000 0.61973  0.02440  0.83856  Biso   1.000  N
  N20      1.0000 0.38027  0.02440  0.66144  Biso   1.000  N
  N21      1.0000 0.88027  0.47560  0.16144  Biso   1.000  N
  N22      1.0000 0.11973  0.47560  0.33856  Biso   1.000  N
  N23      1.0000 0.38027  0.97560  0.16144  Biso   1.000  N
  N24      1.0000 0.61973  0.97560  0.33856  Biso   1.000  N
  C37      1.0000 0.10726  0.54930  0.74590  Biso   1.000  C
  C38      1.0000 0.89274  0.54930  0.75410  Biso   1.000  C
  C39      1.0000 0.60726  0.04930  0.74590  Biso   1.000  C
  C40      1.0000 0.39274  0.04930  0.75410  Biso   1.000  C
  C41      1.0000 0.89274  0.45070  0.25410  Biso   1.000  C
  C42      1.0000 0.10726  0.45070  0.24590  Biso   1.000  C
  C43      1.0000 0.39274  0.95070  0.25410  Biso   1.000  C
  C44      1.0000 0.60726  0.95070  0.24590  Biso   1.000  C
  H25      1.0000 0.12640  0.60720  0.71870  Biso   1.000  H
  H26      1.0000 0.87360  0.60720  0.78130  Biso   1.000  H
  H27      1.0000 0.62640  0.10720  0.71870  Biso   1.000  H
  H28      1.0000 0.37360  0.10720  0.78130  Biso   1.000  H
  H29      1.0000 0.87360  0.39280  0.28130  Biso   1.000  H
  H30      1.0000 0.12640  0.39280  0.21870  Biso   1.000  H
  H31      1.0000 0.37360  0.89280  0.28130  Biso   1.000  H
  H32      1.0000 0.62640  0.89280  0.21870  Biso   1.000  H
  C45      1.0000 0.06342  0.47700  0.70160  Biso   1.000  C
  C46      1.0000 0.93658  0.47700  0.79840  Biso   1.000  C
  C47      1.0000 0.56342  0.97700  0.70160  Biso   1.000  C
  C48      1.0000 0.43658  0.97700  0.79840  Biso   1.000  C
  C49      1.0000 0.93658  0.52300  0.29840  Biso   1.000  C
  C50      1.0000 0.06342  0.52300  0.20160  Biso   1.000  C
  C51      1.0000 0.43658  0.02300  0.29840  Biso   1.000  C
  C52      1.0000 0.56342  0.02300  0.20160  Biso   1.000  C
  H33      1.0000 0.04520  0.47400  0.63760  Biso   1.000  H
  H34      1.0000 0.95480  0.47400  0.86240  Biso   1.000  H
  H35      1.0000 0.54520  0.97400  0.63760  Biso   1.000  H
  H36      1.0000 0.45480  0.97400  0.86240  Biso   1.000  H
  H37      1.0000 0.95480  0.52600  0.36240  Biso   1.000  H
  H38      1.0000 0.04520  0.52600  0.13760  Biso   1.000  H
  H39      1.0000 0.45480  0.02600  0.36240  Biso   1.000  H
  H40      1.0000 0.54520  0.02600  0.13760  Biso   1.000  H
  N25      1.0000 0.05009  0.40790  0.76806  Biso   1.000  N
  N26      1.0000 0.94991  0.40790  0.73194  Biso   1.000  N
  N27      1.0000 0.55009  0.90790  0.76806  Biso   1.000  N
  N28      1.0000 0.44991  0.90790  0.73194  Biso   1.000  N
  N29      1.0000 0.94991  0.59210  0.23194  Biso   1.000  N
  N30      1.0000 0.05009  0.59210  0.26806  Biso   1.000  N
  N31      1.0000 0.44991  0.09210  0.23194  Biso   1.000  N
  N32      1.0000 0.55009  0.09210  0.26806  Biso   1.000  N
  C53      1.0000 0.00000  0.32840  0.75000  Biso   1.000  C
  C54      1.0000 0.50000  0.82840  0.75000  Biso   1.000  C
  C55      1.0000 0.00000  0.67160  0.25000  Biso   1.000  C
  C56      1.0000 0.50000  0.17160  0.25000  Biso   1.000  C
  H41      1.0000 0.99710  0.27380  0.69660  Biso   1.000  H
  H42      1.0000 0.00290  0.27380  0.80340  Biso   1.000  H
  H43      1.0000 0.49710  0.77380  0.69660  Biso   1.000  H
  H44      1.0000 0.50290  0.77380  0.80340  Biso   1.000  H
  H45      1.0000 0.00290  0.72620  0.30340  Biso   1.000  H
  H46      1.0000 0.99710  0.72620  0.19660  Biso   1.000  H
  H47      1.0000 0.50290  0.22620  0.30340  Biso   1.000  H
  H48      1.0000 0.49710  0.22620  0.19660  Biso   1.000  H
  C57      1.0000 0.16654  0.91600  0.25140  Biso   1.000  C
  C58      1.0000 0.83346  0.91600  0.24860  Biso   1.000  C
  C59      1.0000 0.66654  0.41600  0.25140  Biso   1.000  C
  C60      1.0000 0.33346  0.41600  0.24860  Biso   1.000  C
  C61      1.0000 0.83346  0.08400  0.74860  Biso   1.000  C
  C62      1.0000 0.16654  0.08400  0.75140  Biso   1.000  C
  C63      1.0000 0.33346  0.58400  0.74860  Biso   1.000  C
  C64      1.0000 0.66654  0.58400  0.75140  Biso   1.000  C
  C65      1.0000 0.14804  0.89150  0.14880  Biso   1.000  C
  C66      1.0000 0.85196  0.89150  0.35120  Biso   1.000  C
  C67      1.0000 0.64804  0.39150  0.14880  Biso   1.000  C
  C68      1.0000 0.35196  0.39150  0.35120  Biso   1.000  C
  C69      1.0000 0.85196  0.10850  0.85120  Biso   1.000  C
  C70      1.0000 0.14804  0.10850  0.64880  Biso   1.000  C
  C71      1.0000 0.35196  0.60850  0.85120  Biso   1.000  C
  C72      1.0000 0.64804  0.60850  0.64880  Biso   1.000  C
  H49      1.0000 0.11290  0.84310  0.13140  Biso   1.000  H
  H50      1.0000 0.88710  0.84310  0.36860  Biso   1.000  H
  H51      1.0000 0.61290  0.34310  0.13140  Biso   1.000  H
  H52      1.0000 0.38710  0.34310  0.36860  Biso   1.000  H
  H53      1.0000 0.88710  0.15690  0.86860  Biso   1.000  H
  H54      1.0000 0.11290  0.15690  0.63140  Biso   1.000  H
  H55      1.0000 0.38710  0.65690  0.86860  Biso   1.000  H
  H56      1.0000 0.61290  0.65690  0.63140  Biso   1.000  H
  H57      1.0000 0.17740  0.84380  0.13290  Biso   1.000  H
  H58      1.0000 0.82260  0.84380  0.36710  Biso   1.000  H
  H59      1.0000 0.67740  0.34380  0.13290  Biso   1.000  H
  H60      1.0000 0.32260  0.34380  0.36710  Biso   1.000  H
  H61      1.0000 0.82260  0.15620  0.86710  Biso   1.000  H
  H62      1.0000 0.17740  0.15620  0.63290  Biso   1.000  H
  H63      1.0000 0.32260  0.65620  0.86710  Biso   1.000  H
  H64      1.0000 0.67740  0.65620  0.63290  Biso   1.000  H
  H65      1.0000 0.14190  0.97180  0.11600  Biso   1.000  H
  H66      1.0000 0.85810  0.97180  0.38400  Biso   1.000  H
  H67      1.0000 0.64190  0.47180  0.11600  Biso   1.000  H
  H68      1.0000 0.35810  0.47180  0.38400  Biso   1.000  H
  H69      1.0000 0.85810  0.02820  0.88400  Biso   1.000  H
  H70      1.0000 0.14190  0.02820  0.61600  Biso   1.000  H
  H71      1.0000 0.35810  0.52820  0.88400  Biso   1.000  H
  H72      1.0000 0.64190  0.52820  0.61600  Biso   1.000  H
  C73      1.0000 0.18163  0.79080  0.30230  Biso   1.000  C
  C74      1.0000 0.81837  0.79080  0.19770  Biso   1.000  C
  C75      1.0000 0.68163  0.29080  0.30230  Biso   1.000  C
  C76      1.0000 0.31837  0.29080  0.19770  Biso   1.000  C
  C77      1.0000 0.81837  0.20920  0.69770  Biso   1.000  C
  C78      1.0000 0.18163  0.20920  0.80230  Biso   1.000  C
  C79      1.0000 0.31837  0.70920  0.69770  Biso   1.000  C
  C80      1.0000 0.68163  0.70920  0.80230  Biso   1.000  C
  H73      1.0000 0.19380  0.80630  0.36830  Biso   1.000  H
  H74      1.0000 0.80620  0.80630  0.13170  Biso   1.000  H
  H75      1.0000 0.69380  0.30630  0.36830  Biso   1.000  H
  H76      1.0000 0.30620  0.30630  0.13170  Biso   1.000  H
  H77      1.0000 0.80620  0.19370  0.63170  Biso   1.000  H
  H78      1.0000 0.19380  0.19370  0.86830  Biso   1.000  H
  H79      1.0000 0.30620  0.69370  0.63170  Biso   1.000  H
  H80      1.0000 0.69380  0.69370  0.86830  Biso   1.000  H
  H81      1.0000 0.21220  0.75030  0.28510  Biso   1.000  H
  H82      1.0000 0.78780  0.75030  0.21490  Biso   1.000  H
  H83      1.0000 0.71220  0.25030  0.28510  Biso   1.000  H
  H84      1.0000 0.28780  0.25030  0.21490  Biso   1.000  H
  H85      1.0000 0.78780  0.24970  0.71490  Biso   1.000  H
  H86      1.0000 0.21220  0.24970  0.78510  Biso   1.000  H
  H87      1.0000 0.28780  0.74970  0.71490  Biso   1.000  H
  H88      1.0000 0.71220  0.74970  0.78510  Biso   1.000  H
  H89      1.0000 0.14850  0.73580  0.28610  Biso   1.000  H
  H90      1.0000 0.85150  0.73580  0.21390  Biso   1.000  H
  H91      1.0000 0.64850  0.23580  0.28610  Biso   1.000  H
  H92      1.0000 0.35150  0.23580  0.21390  Biso   1.000  H
  H93      1.0000 0.85150  0.26420  0.71390  Biso   1.000  H
  H94      1.0000 0.14850  0.26420  0.78610  Biso   1.000  H
  H95      1.0000 0.35150  0.76420  0.71390  Biso   1.000  H
  H96      1.0000 0.64850  0.76420  0.78610  Biso   1.000  H
  C81      1.0000 0.21660  0.00440  0.27910  Biso   1.000  C
  C82      1.0000 0.78340  0.00440  0.22090  Biso   1.000  C
  C83      1.0000 0.71660  0.50440  0.27910  Biso   1.000  C
  C84      1.0000 0.28340  0.50440  0.22090  Biso   1.000  C
  C85      1.0000 0.78340  0.99560  0.72090  Biso   1.000  C
  C86      1.0000 0.21660  0.99560  0.77910  Biso   1.000  C
  C87      1.0000 0.28340  0.49560  0.72090  Biso   1.000  C
  C88      1.0000 0.71660  0.49560  0.77910  Biso   1.000  C
  H97      1.0000 0.20650  0.08440  0.24650  Biso   1.000  H
  H98      1.0000 0.79350  0.08440  0.25350  Biso   1.000  H
  H99      1.0000 0.70650  0.58440  0.24650  Biso   1.000  H
  H100     1.0000 0.29350  0.58440  0.25350  Biso   1.000  H
  H101     1.0000 0.79350  0.91560  0.75350  Biso   1.000  H
  H102     1.0000 0.20650  0.91560  0.74650  Biso   1.000  H
  H103     1.0000 0.29350  0.41560  0.75350  Biso   1.000  H
  H104     1.0000 0.70650  0.41560  0.74650  Biso   1.000  H
  H105     1.0000 0.24830  0.96660  0.26350  Biso   1.000  H
  H106     1.0000 0.75170  0.96660  0.23650  Biso   1.000  H
  H107     1.0000 0.74830  0.46660  0.26350  Biso   1.000  H
  H108     1.0000 0.25170  0.46660  0.23650  Biso   1.000  H
  H109     1.0000 0.75170  0.03340  0.73650  Biso   1.000  H
  H110     1.0000 0.24830  0.03340  0.76350  Biso   1.000  H
  H111     1.0000 0.25170  0.53340  0.73650  Biso   1.000  H
  H112     1.0000 0.74830  0.53340  0.76350  Biso   1.000  H
  H113     1.0000 0.22740  0.01940  0.34510  Biso   1.000  H
  H114     1.0000 0.77260  0.01940  0.15490  Biso   1.000  H
  H115     1.0000 0.72740  0.51940  0.34510  Biso   1.000  H
  H116     1.0000 0.27260  0.51940  0.15490  Biso   1.000  H
  H117     1.0000 0.77260  0.98060  0.65490  Biso   1.000  H
  H118     1.0000 0.22740  0.98060  0.84510  Biso   1.000  H
  H119     1.0000 0.27260  0.48060  0.65490  Biso   1.000  H
  H120     1.0000 0.72740  0.48060  0.84510  Biso   1.000  H
  C89      1.0000 0.16740  0.58270  0.91140  Biso   1.000  C
  C90      1.0000 0.83260  0.58270  0.58860  Biso   1.000  C
  C91      1.0000 0.66740  0.08270  0.91140  Biso   1.000  C
  C92      1.0000 0.33260  0.08270  0.58860  Biso   1.000  C
  C93      1.0000 0.83260  0.41730  0.08860  Biso   1.000  C
  C94      1.0000 0.16740  0.41730  0.41140  Biso   1.000  C
  C95      1.0000 0.33260  0.91730  0.08860  Biso   1.000  C
  C96      1.0000 0.66740  0.91730  0.41140  Biso   1.000  C
  C97      1.0000 0.18441  0.70480  0.87400  Biso   1.000  C
  C98      1.0000 0.81559  0.70480  0.62600  Biso   1.000  C
  C99      1.0000 0.68441  0.20480  0.87400  Biso   1.000  C
  C100     1.0000 0.31559  0.20480  0.62600  Biso   1.000  C
  C101     1.0000 0.81559  0.29520  0.12600  Biso   1.000  C
  C102     1.0000 0.18441  0.29520  0.37400  Biso   1.000  C
  C103     1.0000 0.31559  0.79520  0.12600  Biso   1.000  C
  C104     1.0000 0.68441  0.79520  0.37400  Biso   1.000  C
  H121     1.0000 0.19950  0.68520  0.82360  Biso   1.000  H
  H122     1.0000 0.80050  0.68520  0.67640  Biso   1.000  H
  H123     1.0000 0.69950  0.18520  0.82360  Biso   1.000  H
  H124     1.0000 0.30050  0.18520  0.67640  Biso   1.000  H
  H125     1.0000 0.80050  0.31480  0.17640  Biso   1.000  H
  H126     1.0000 0.19950  0.31480  0.32360  Biso   1.000  H
  H127     1.0000 0.30050  0.81480  0.17640  Biso   1.000  H
  H128     1.0000 0.69950  0.81480  0.32360  Biso   1.000  H
  H129     1.0000 0.21330  0.74790  0.92270  Biso   1.000  H
  H130     1.0000 0.78670  0.74790  0.57730  Biso   1.000  H
  H131     1.0000 0.71330  0.24790  0.92270  Biso   1.000  H
  H132     1.0000 0.28670  0.24790  0.57730  Biso   1.000  H
  H133     1.0000 0.78670  0.25210  0.07730  Biso   1.000  H
  H134     1.0000 0.21330  0.25210  0.42270  Biso   1.000  H
  H135     1.0000 0.28670  0.75210  0.07730  Biso   1.000  H
  H136     1.0000 0.71330  0.75210  0.42270  Biso   1.000  H
  H137     1.0000 0.15140  0.75930  0.85170  Biso   1.000  H
  H138     1.0000 0.84860  0.75930  0.64830  Biso   1.000  H
  H139     1.0000 0.65140  0.25930  0.85170  Biso   1.000  H
  H140     1.0000 0.34860  0.25930  0.64830  Biso   1.000  H
  H141     1.0000 0.84860  0.24070  0.14830  Biso   1.000  H
  H142     1.0000 0.15140  0.24070  0.35170  Biso   1.000  H
  H143     1.0000 0.34860  0.74070  0.14830  Biso   1.000  H
  H144     1.0000 0.65140  0.74070  0.35170  Biso   1.000  H
  C105     1.0000 0.14873  0.61290  0.99430  Biso   1.000  C
  C106     1.0000 0.85127  0.61290  0.50570  Biso   1.000  C
  C107     1.0000 0.64873  0.11290  0.99430  Biso   1.000  C
  C108     1.0000 0.35127  0.11290  0.50570  Biso   1.000  C
  C109     1.0000 0.85127  0.38710  0.00570  Biso   1.000  C
  C110     1.0000 0.14873  0.38710  0.49430  Biso   1.000  C
  C111     1.0000 0.35127  0.88710  0.00570  Biso   1.000  C
  C112     1.0000 0.64873  0.88710  0.49430  Biso   1.000  C
  H145     1.0000 0.11470  0.66500  0.97560  Biso   1.000  H
  H146     1.0000 0.88530  0.66500  0.52440  Biso   1.000  H
  H147     1.0000 0.61470  0.16500  0.97560  Biso   1.000  H
  H148     1.0000 0.38530  0.16500  0.52440  Biso   1.000  H
  H149     1.0000 0.88530  0.33500  0.02440  Biso   1.000  H
  H150     1.0000 0.11470  0.33500  0.47560  Biso   1.000  H
  H151     1.0000 0.38530  0.83500  0.02440  Biso   1.000  H
  H152     1.0000 0.61470  0.83500  0.47560  Biso   1.000  H
  H153     1.0000 0.17880  0.65870  0.03930  Biso   1.000  H
  H154     1.0000 0.82120  0.65870  0.46070  Biso   1.000  H
  H155     1.0000 0.67880  0.15870  0.03930  Biso   1.000  H
  H156     1.0000 0.32120  0.15870  0.46070  Biso   1.000  H
  H157     1.0000 0.82120  0.34130  0.96070  Biso   1.000  H
  H158     1.0000 0.17880  0.34130  0.53930  Biso   1.000  H
  H159     1.0000 0.32120  0.84130  0.96070  Biso   1.000  H
  H160     1.0000 0.67880  0.84130  0.53930  Biso   1.000  H
  H161     1.0000 0.14070  0.53460  0.02150  Biso   1.000  H
  H162     1.0000 0.85930  0.53460  0.47850  Biso   1.000  H
  H163     1.0000 0.64070  0.03460  0.02150  Biso   1.000  H
  H164     1.0000 0.35930  0.03460  0.47850  Biso   1.000  H
  H165     1.0000 0.85930  0.46540  0.97850  Biso   1.000  H
  H166     1.0000 0.14070  0.46540  0.52150  Biso   1.000  H
  H167     1.0000 0.35930  0.96540  0.97850  Biso   1.000  H
  H168     1.0000 0.64070  0.96540  0.52150  Biso   1.000  H
  C113     1.0000 0.21681  0.49210  0.93590  Biso   1.000  C
  C114     1.0000 0.78319  0.49210  0.56410  Biso   1.000  C
  C115     1.0000 0.71681  0.99210  0.93590  Biso   1.000  C
  C116     1.0000 0.28319  0.99210  0.56410  Biso   1.000  C
  C117     1.0000 0.78319  0.50790  0.06410  Biso   1.000  C
  C118     1.0000 0.21681  0.50790  0.43590  Biso   1.000  C
  C119     1.0000 0.28319  0.00790  0.06410  Biso   1.000  C
  C120     1.0000 0.71681  0.00790  0.43590  Biso   1.000  C
  H169     1.0000 0.20640  0.41530  0.96200  Biso   1.000  H
  H170     1.0000 0.79360  0.41530  0.53800  Biso   1.000  H
  H171     1.0000 0.70640  0.91530  0.96200  Biso   1.000  H
  H172     1.0000 0.29360  0.91530  0.53800  Biso   1.000  H
  H173     1.0000 0.79360  0.58470  0.03800  Biso   1.000  H
  H174     1.0000 0.20640  0.58470  0.46200  Biso   1.000  H
  H175     1.0000 0.29360  0.08470  0.03800  Biso   1.000  H
  H176     1.0000 0.70640  0.08470  0.46200  Biso   1.000  H
  H177     1.0000 0.24910  0.53150  0.98070  Biso   1.000  H
  H178     1.0000 0.75090  0.53150  0.51930  Biso   1.000  H
  H179     1.0000 0.74910  0.03150  0.98070  Biso   1.000  H
  H180     1.0000 0.25090  0.03150  0.51930  Biso   1.000  H
  H181     1.0000 0.75090  0.46850  0.01930  Biso   1.000  H
  H182     1.0000 0.24910  0.46850  0.48070  Biso   1.000  H
  H183     1.0000 0.25090  0.96850  0.01930  Biso   1.000  H
  H184     1.0000 0.74910  0.96850  0.48070  Biso   1.000  H
  H185     1.0000 0.22680  0.47100  0.88070  Biso   1.000  H
  H186     1.0000 0.77320  0.47100  0.61930  Biso   1.000  H
  H187     1.0000 0.72680  0.97100  0.88070  Biso   1.000  H
  H188     1.0000 0.27320  0.97100  0.61930  Biso   1.000  H
  H189     1.0000 0.77320  0.52900  0.11930  Biso   1.000  H
  H190     1.0000 0.22680  0.52900  0.38070  Biso   1.000  H
  H191     1.0000 0.27320  0.02900  0.11930  Biso   1.000  H
  H192     1.0000 0.72680  0.02900  0.38070  Biso   1.000  H
