data_image0
_cell_length_a       18.866
_cell_length_b       24.059
_cell_length_c       9.9612
_cell_angle_alpha    90
_cell_angle_beta     90
_cell_angle_gamma    90

_symmetry_space_group_name_H-M    "P 1"
_symmetry_int_tables_number       1

loop_
  _symmetry_equiv_pos_as_xyz
  'x, y, z'

loop_
  _atom_site_label
  _atom_site_occupancy
  _atom_site_fract_x
  _atom_site_fract_y
  _atom_site_fract_z
  _atom_site_thermal_displace_type
  _atom_site_B_iso_or_equiv
  _atom_site_type_symbol
  Cu1      1.0000 0.20569  0.52177  0.29600  Biso   1.000  Cu
  Cu2      1.0000 0.29431  0.97823  0.29600  Biso   1.000  Cu
  Cu3      1.0000 0.79431  0.02177  0.20400  Biso   1.000  Cu
  Cu4      1.0000 0.70569  0.47823  0.20400  Biso   1.000  Cu
  Cu5      1.0000 0.79431  0.47823  0.70400  Biso   1.000  Cu
  Cu6      1.0000 0.70569  0.02177  0.70400  Biso   1.000  Cu
  Cu7      1.0000 0.20569  0.97823  0.79600  Biso   1.000  Cu
  Cu8      1.0000 0.29431  0.52177  0.79600  Biso   1.000  Cu
  S1       1.0000 0.32442  0.55044  0.32985  Biso   1.000  S
  S2       1.0000 0.17558  0.94956  0.32985  Biso   1.000  S
  S3       1.0000 0.67558  0.05044  0.17015  Biso   1.000  S
  S4       1.0000 0.82442  0.44956  0.17015  Biso   1.000  S
  S5       1.0000 0.67558  0.44956  0.67015  Biso   1.000  S
  S6       1.0000 0.82442  0.05044  0.67015  Biso   1.000  S
  S7       1.0000 0.32442  0.94956  0.82985  Biso   1.000  S
  S8       1.0000 0.17558  0.55044  0.82985  Biso   1.000  S
  O1       1.0000 0.14087  0.26619  0.60900  Biso   1.000  O
  O2       1.0000 0.35913  0.23381  0.60900  Biso   1.000  O
  O3       1.0000 0.85913  0.76619  0.89100  Biso   1.000  O
  O4       1.0000 0.64087  0.73381  0.89100  Biso   1.000  O
  O5       1.0000 0.85913  0.73381  0.39100  Biso   1.000  O
  O6       1.0000 0.64087  0.76619  0.39100  Biso   1.000  O
  O7       1.0000 0.14087  0.23381  0.10900  Biso   1.000  O
  O8       1.0000 0.35913  0.26619  0.10900  Biso   1.000  O
  O9       1.0000 0.97094  0.27067  0.33380  Biso   1.000  O
  O10      1.0000 0.52906  0.22933  0.33380  Biso   1.000  O
  O11      1.0000 0.02906  0.77067  0.16620  Biso   1.000  O
  O12      1.0000 0.47094  0.72933  0.16620  Biso   1.000  O
  O13      1.0000 0.02906  0.72933  0.66620  Biso   1.000  O
  O14      1.0000 0.47094  0.77067  0.66620  Biso   1.000  O
  O15      1.0000 0.97094  0.22933  0.83380  Biso   1.000  O
  O16      1.0000 0.52906  0.27067  0.83380  Biso   1.000  O
  N1       1.0000 0.19187  0.44093  0.35720  Biso   1.000  N
  N2       1.0000 0.30813  0.05907  0.35720  Biso   1.000  N
  N3       1.0000 0.80813  0.94093  0.14280  Biso   1.000  N
  N4       1.0000 0.69187  0.55907  0.14280  Biso   1.000  N
  N5       1.0000 0.80813  0.55907  0.64280  Biso   1.000  N
  N6       1.0000 0.69187  0.94093  0.64280  Biso   1.000  N
  N7       1.0000 0.19187  0.05907  0.85720  Biso   1.000  N
  N8       1.0000 0.30813  0.44093  0.85720  Biso   1.000  N
  N9       1.0000 0.11830  0.23815  0.39520  Biso   1.000  N
  N10      1.0000 0.38170  0.26185  0.39520  Biso   1.000  N
  N11      1.0000 0.88170  0.73815  0.10480  Biso   1.000  N
  N12      1.0000 0.61830  0.76185  0.10480  Biso   1.000  N
  N13      1.0000 0.88170  0.76185  0.60480  Biso   1.000  N
  N14      1.0000 0.61830  0.73815  0.60480  Biso   1.000  N
  N15      1.0000 0.11830  0.26185  0.89520  Biso   1.000  N
  N16      1.0000 0.38170  0.23815  0.89520  Biso   1.000  N
  N17      1.0000 0.98899  0.23769  0.54520  Biso   1.000  N
  N18      1.0000 0.51101  0.26231  0.54520  Biso   1.000  N
  N19      1.0000 0.01101  0.73769  0.95480  Biso   1.000  N
  N20      1.0000 0.48899  0.76231  0.95480  Biso   1.000  N
  N21      1.0000 0.01101  0.76231  0.45480  Biso   1.000  N
  N22      1.0000 0.48899  0.73769  0.45480  Biso   1.000  N
  N23      1.0000 0.98899  0.26231  0.04520  Biso   1.000  N
  N24      1.0000 0.51101  0.23769  0.04520  Biso   1.000  N
  N25      1.0000 0.85699  0.41835  0.61500  Biso   1.000  N
  N26      1.0000 0.64301  0.08165  0.61500  Biso   1.000  N
  N27      1.0000 0.14301  0.91835  0.88500  Biso   1.000  N
  N28      1.0000 0.35699  0.58165  0.88500  Biso   1.000  N
  N29      1.0000 0.14301  0.58165  0.38500  Biso   1.000  N
  N30      1.0000 0.35699  0.91835  0.38500  Biso   1.000  N
  N31      1.0000 0.85699  0.08165  0.11500  Biso   1.000  N
  N32      1.0000 0.64301  0.41835  0.11500  Biso   1.000  N
  N33      1.0000 0.32040  0.52700  0.60500  Biso   1.000  N
  N34      1.0000 0.17960  0.97300  0.60500  Biso   1.000  N
  N35      1.0000 0.67960  0.02700  0.89500  Biso   1.000  N
  N36      1.0000 0.82040  0.47300  0.89500  Biso   1.000  N
  N37      1.0000 0.67960  0.47300  0.39500  Biso   1.000  N
  N38      1.0000 0.82040  0.02700  0.39500  Biso   1.000  N
  N39      1.0000 0.32040  0.97300  0.10500  Biso   1.000  N
  N40      1.0000 0.17960  0.52700  0.10500  Biso   1.000  N
  C1       1.0000 0.21220  0.41976  0.47390  Biso   1.000  C
  C2       1.0000 0.28780  0.08024  0.47390  Biso   1.000  C
  C3       1.0000 0.78780  0.91976  0.02610  Biso   1.000  C
  C4       1.0000 0.71220  0.58024  0.02610  Biso   1.000  C
  C5       1.0000 0.78780  0.58024  0.52610  Biso   1.000  C
  C6       1.0000 0.71220  0.91976  0.52610  Biso   1.000  C
  C7       1.0000 0.21220  0.08024  0.97390  Biso   1.000  C
  C8       1.0000 0.28780  0.41976  0.97390  Biso   1.000  C
  H1       1.0000 0.23890  0.44240  0.53030  Biso   1.000  H
  H2       1.0000 0.26110  0.05760  0.53030  Biso   1.000  H
  H3       1.0000 0.76110  0.94240  0.96970  Biso   1.000  H
  H4       1.0000 0.73890  0.55760  0.96970  Biso   1.000  H
  H5       1.0000 0.76110  0.55760  0.46970  Biso   1.000  H
  H6       1.0000 0.73890  0.94240  0.46970  Biso   1.000  H
  H7       1.0000 0.23890  0.05760  0.03030  Biso   1.000  H
  H8       1.0000 0.26110  0.44240  0.03030  Biso   1.000  H
  C9       1.0000 0.19720  0.36740  0.51770  Biso   1.000  C
  C10      1.0000 0.30280  0.13260  0.51770  Biso   1.000  C
  C11      1.0000 0.80280  0.86740  0.98230  Biso   1.000  C
  C12      1.0000 0.69720  0.63260  0.98230  Biso   1.000  C
  C13      1.0000 0.80280  0.63260  0.48230  Biso   1.000  C
  C14      1.0000 0.69720  0.86740  0.48230  Biso   1.000  C
  C15      1.0000 0.19720  0.13260  0.01770  Biso   1.000  C
  C16      1.0000 0.30280  0.36740  0.01770  Biso   1.000  C
  H9       1.0000 0.21180  0.35600  0.60250  Biso   1.000  H
  H10      1.0000 0.28820  0.14400  0.60250  Biso   1.000  H
  H11      1.0000 0.78820  0.85600  0.89750  Biso   1.000  H
  H12      1.0000 0.71180  0.64400  0.89750  Biso   1.000  H
  H13      1.0000 0.78820  0.64400  0.39750  Biso   1.000  H
  H14      1.0000 0.71180  0.85600  0.39750  Biso   1.000  H
  H15      1.0000 0.21180  0.14400  0.10250  Biso   1.000  H
  H16      1.0000 0.28820  0.35600  0.10250  Biso   1.000  H
  C17      1.0000 0.16080  0.33171  0.43670  Biso   1.000  C
  C18      1.0000 0.33920  0.16829  0.43670  Biso   1.000  C
  C19      1.0000 0.83920  0.83171  0.06330  Biso   1.000  C
  C20      1.0000 0.66080  0.66829  0.06330  Biso   1.000  C
  C21      1.0000 0.83920  0.66829  0.56330  Biso   1.000  C
  C22      1.0000 0.66080  0.83171  0.56330  Biso   1.000  C
  C23      1.0000 0.16080  0.16829  0.93670  Biso   1.000  C
  C24      1.0000 0.33920  0.33171  0.93670  Biso   1.000  C
  C25      1.0000 0.14320  0.35075  0.30980  Biso   1.000  C
  C26      1.0000 0.35680  0.14925  0.30980  Biso   1.000  C
  C27      1.0000 0.85680  0.85075  0.19020  Biso   1.000  C
  C28      1.0000 0.64320  0.64925  0.19020  Biso   1.000  C
  C29      1.0000 0.85680  0.64925  0.69020  Biso   1.000  C
  C30      1.0000 0.64320  0.85075  0.69020  Biso   1.000  C
  C31      1.0000 0.14320  0.14925  0.80980  Biso   1.000  C
  C32      1.0000 0.35680  0.35075  0.80980  Biso   1.000  C
  H17      1.0000 0.12080  0.32760  0.24820  Biso   1.000  H
  H18      1.0000 0.37920  0.17240  0.24820  Biso   1.000  H
  H19      1.0000 0.87920  0.82760  0.25180  Biso   1.000  H
  H20      1.0000 0.62080  0.67240  0.25180  Biso   1.000  H
  H21      1.0000 0.87920  0.67240  0.75180  Biso   1.000  H
  H22      1.0000 0.62080  0.82760  0.75180  Biso   1.000  H
  H23      1.0000 0.12080  0.17240  0.74820  Biso   1.000  H
  H24      1.0000 0.37920  0.32760  0.74820  Biso   1.000  H
  C33      1.0000 0.16010  0.40579  0.27650  Biso   1.000  C
  C34      1.0000 0.33990  0.09421  0.27650  Biso   1.000  C
  C35      1.0000 0.83990  0.90579  0.22350  Biso   1.000  C
  C36      1.0000 0.66010  0.59421  0.22350  Biso   1.000  C
  C37      1.0000 0.83990  0.59421  0.72350  Biso   1.000  C
  C38      1.0000 0.66010  0.90579  0.72350  Biso   1.000  C
  C39      1.0000 0.16010  0.09421  0.77650  Biso   1.000  C
  C40      1.0000 0.33990  0.40579  0.77650  Biso   1.000  C
  H25      1.0000 0.14800  0.41830  0.19120  Biso   1.000  H
  H26      1.0000 0.35200  0.08170  0.19120  Biso   1.000  H
  H27      1.0000 0.85200  0.91830  0.30880  Biso   1.000  H
  H28      1.0000 0.64800  0.58170  0.30880  Biso   1.000  H
  H29      1.0000 0.85200  0.58170  0.80880  Biso   1.000  H
  H30      1.0000 0.64800  0.91830  0.80880  Biso   1.000  H
  H31      1.0000 0.14800  0.08170  0.69120  Biso   1.000  H
  H32      1.0000 0.35200  0.41830  0.69120  Biso   1.000  H
  C41      1.0000 0.13900  0.27540  0.48750  Biso   1.000  C
  C42      1.0000 0.36100  0.22460  0.48750  Biso   1.000  C
  C43      1.0000 0.86100  0.77540  0.01250  Biso   1.000  C
  C44      1.0000 0.63900  0.72460  0.01250  Biso   1.000  C
  C45      1.0000 0.86100  0.72460  0.51250  Biso   1.000  C
  C46      1.0000 0.63900  0.77540  0.51250  Biso   1.000  C
  C47      1.0000 0.13900  0.22460  0.98750  Biso   1.000  C
  C48      1.0000 0.36100  0.27540  0.98750  Biso   1.000  C
  C49      1.0000 0.08400  0.18753  0.43140  Biso   1.000  C
  C50      1.0000 0.41600  0.31247  0.43140  Biso   1.000  C
  C51      1.0000 0.91600  0.68753  0.06860  Biso   1.000  C
  C52      1.0000 0.58400  0.81247  0.06860  Biso   1.000  C
  C53      1.0000 0.91600  0.81247  0.56860  Biso   1.000  C
  C54      1.0000 0.58400  0.68753  0.56860  Biso   1.000  C
  C55      1.0000 0.08400  0.31247  0.93140  Biso   1.000  C
  C56      1.0000 0.41600  0.18753  0.93140  Biso   1.000  C
  C57      1.0000 0.11200  0.13701  0.38920  Biso   1.000  C
  C58      1.0000 0.38800  0.36299  0.38920  Biso   1.000  C
  C59      1.0000 0.88800  0.63701  0.11080  Biso   1.000  C
  C60      1.0000 0.61200  0.86299  0.11080  Biso   1.000  C
  C61      1.0000 0.88800  0.86299  0.61080  Biso   1.000  C
  C62      1.0000 0.61200  0.63701  0.61080  Biso   1.000  C
  C63      1.0000 0.11200  0.36299  0.88920  Biso   1.000  C
  C64      1.0000 0.38800  0.13701  0.88920  Biso   1.000  C
  H33      1.0000 0.15330  0.13640  0.33820  Biso   1.000  H
  H34      1.0000 0.34670  0.36360  0.33820  Biso   1.000  H
  H35      1.0000 0.84670  0.63640  0.16180  Biso   1.000  H
  H36      1.0000 0.65330  0.86360  0.16180  Biso   1.000  H
  H37      1.0000 0.84670  0.86360  0.66180  Biso   1.000  H
  H38      1.0000 0.65330  0.63640  0.66180  Biso   1.000  H
  H39      1.0000 0.15330  0.36360  0.83820  Biso   1.000  H
  H40      1.0000 0.34670  0.13640  0.83820  Biso   1.000  H
  C65      1.0000 0.07930  0.08829  0.42220  Biso   1.000  C
  C66      1.0000 0.42070  0.41171  0.42220  Biso   1.000  C
  C67      1.0000 0.92070  0.58829  0.07780  Biso   1.000  C
  C68      1.0000 0.57930  0.91171  0.07780  Biso   1.000  C
  C69      1.0000 0.92070  0.91171  0.57780  Biso   1.000  C
  C70      1.0000 0.57930  0.58829  0.57780  Biso   1.000  C
  C71      1.0000 0.07930  0.41171  0.92220  Biso   1.000  C
  C72      1.0000 0.42070  0.08829  0.92220  Biso   1.000  C
  H41      1.0000 0.09830  0.05470  0.39320  Biso   1.000  H
  H42      1.0000 0.40170  0.44530  0.39320  Biso   1.000  H
  H43      1.0000 0.90170  0.55470  0.10680  Biso   1.000  H
  H44      1.0000 0.59830  0.94530  0.10680  Biso   1.000  H
  H45      1.0000 0.90170  0.94530  0.60680  Biso   1.000  H
  H46      1.0000 0.59830  0.55470  0.60680  Biso   1.000  H
  H47      1.0000 0.09830  0.44530  0.89320  Biso   1.000  H
  H48      1.0000 0.40170  0.05470  0.89320  Biso   1.000  H
  C73      1.0000 0.02010  0.08849  0.49610  Biso   1.000  C
  C74      1.0000 0.47990  0.41151  0.49610  Biso   1.000  C
  C75      1.0000 0.97990  0.58849  0.00390  Biso   1.000  C
  C76      1.0000 0.52010  0.91151  0.00390  Biso   1.000  C
  C77      1.0000 0.97990  0.91151  0.50390  Biso   1.000  C
  C78      1.0000 0.52010  0.58849  0.50390  Biso   1.000  C
  C79      1.0000 0.02010  0.41151  0.99610  Biso   1.000  C
  C80      1.0000 0.47990  0.08849  0.99610  Biso   1.000  C
  H49      1.0000 0.99860  0.05500  0.51900  Biso   1.000  H
  H50      1.0000 0.50140  0.44500  0.51900  Biso   1.000  H
  H51      1.0000 0.00140  0.55500  0.98100  Biso   1.000  H
  H52      1.0000 0.49860  0.94500  0.98100  Biso   1.000  H
  H53      1.0000 0.00140  0.94500  0.48100  Biso   1.000  H
  H54      1.0000 0.49860  0.55500  0.48100  Biso   1.000  H
  H55      1.0000 0.99860  0.44500  0.01900  Biso   1.000  H
  H56      1.0000 0.50140  0.05500  0.01900  Biso   1.000  H
  C81      1.0000 0.99040  0.13795  0.53890  Biso   1.000  C
  C82      1.0000 0.50960  0.36205  0.53890  Biso   1.000  C
  C83      1.0000 0.00960  0.63795  0.96110  Biso   1.000  C
  C84      1.0000 0.49040  0.86205  0.96110  Biso   1.000  C
  C85      1.0000 0.00960  0.86205  0.46110  Biso   1.000  C
  C86      1.0000 0.49040  0.63795  0.46110  Biso   1.000  C
  C87      1.0000 0.99040  0.36205  0.03890  Biso   1.000  C
  C88      1.0000 0.50960  0.13795  0.03890  Biso   1.000  C
  H57      1.0000 0.94950  0.13770  0.59110  Biso   1.000  H
  H58      1.0000 0.55050  0.36230  0.59110  Biso   1.000  H
  H59      1.0000 0.05050  0.63770  0.90890  Biso   1.000  H
  H60      1.0000 0.44950  0.86230  0.90890  Biso   1.000  H
  H61      1.0000 0.05050  0.86230  0.40890  Biso   1.000  H
  H62      1.0000 0.44950  0.63770  0.40890  Biso   1.000  H
  H63      1.0000 0.94950  0.36230  0.09110  Biso   1.000  H
  H64      1.0000 0.55050  0.13770  0.09110  Biso   1.000  H
  C89      1.0000 0.02160  0.18737  0.50400  Biso   1.000  C
  C90      1.0000 0.47840  0.31263  0.50400  Biso   1.000  C
  C91      1.0000 0.97840  0.68737  0.99600  Biso   1.000  C
  C92      1.0000 0.52160  0.81263  0.99600  Biso   1.000  C
  C93      1.0000 0.97840  0.81263  0.49600  Biso   1.000  C
  C94      1.0000 0.52160  0.68737  0.49600  Biso   1.000  C
  C95      1.0000 0.02160  0.31263  0.00400  Biso   1.000  C
  C96      1.0000 0.47840  0.18737  0.00400  Biso   1.000  C
  C97      1.0000 0.96540  0.27584  0.45520  Biso   1.000  C
  C98      1.0000 0.53460  0.22416  0.45520  Biso   1.000  C
  C99      1.0000 0.03460  0.77584  0.04480  Biso   1.000  C
  C100     1.0000 0.46540  0.72416  0.04480  Biso   1.000  C
  C101     1.0000 0.03460  0.72416  0.54480  Biso   1.000  C
  C102     1.0000 0.46540  0.77584  0.54480  Biso   1.000  C
  C103     1.0000 0.96540  0.22416  0.95520  Biso   1.000  C
  C104     1.0000 0.53460  0.27584  0.95520  Biso   1.000  C
  C105     1.0000 0.92920  0.32577  0.51410  Biso   1.000  C
  C106     1.0000 0.57080  0.17423  0.51410  Biso   1.000  C
  C107     1.0000 0.07080  0.82577  0.98590  Biso   1.000  C
  C108     1.0000 0.42920  0.67423  0.98590  Biso   1.000  C
  C109     1.0000 0.07080  0.67423  0.48590  Biso   1.000  C
  C110     1.0000 0.42920  0.82577  0.48590  Biso   1.000  C
  C111     1.0000 0.92920  0.17423  0.01410  Biso   1.000  C
  C112     1.0000 0.57080  0.32577  0.01410  Biso   1.000  C
  C113     1.0000 0.94080  0.34444  0.64270  Biso   1.000  C
  C114     1.0000 0.55920  0.15556  0.64270  Biso   1.000  C
  C115     1.0000 0.05920  0.84444  0.85730  Biso   1.000  C
  C116     1.0000 0.44080  0.65556  0.85730  Biso   1.000  C
  C117     1.0000 0.05920  0.65556  0.35730  Biso   1.000  C
  C118     1.0000 0.44080  0.84444  0.35730  Biso   1.000  C
  C119     1.0000 0.94080  0.15556  0.14270  Biso   1.000  C
  C120     1.0000 0.55920  0.34444  0.14270  Biso   1.000  C
  H65      1.0000 0.97290  0.32630  0.69820  Biso   1.000  H
  H66      1.0000 0.52710  0.17370  0.69820  Biso   1.000  H
  H67      1.0000 0.02710  0.82630  0.80180  Biso   1.000  H
  H68      1.0000 0.47290  0.67370  0.80180  Biso   1.000  H
  H69      1.0000 0.02710  0.67370  0.30180  Biso   1.000  H
  H70      1.0000 0.47290  0.82630  0.30180  Biso   1.000  H
  H71      1.0000 0.97290  0.17370  0.19820  Biso   1.000  H
  H72      1.0000 0.52710  0.32630  0.19820  Biso   1.000  H
  C121     1.0000 0.90400  0.39070  0.68870  Biso   1.000  C
  C122     1.0000 0.59600  0.10930  0.68870  Biso   1.000  C
  C123     1.0000 0.09600  0.89070  0.81130  Biso   1.000  C
  C124     1.0000 0.40400  0.60930  0.81130  Biso   1.000  C
  C125     1.0000 0.09600  0.60930  0.31130  Biso   1.000  C
  C126     1.0000 0.40400  0.89070  0.31130  Biso   1.000  C
  C127     1.0000 0.90400  0.10930  0.18870  Biso   1.000  C
  C128     1.0000 0.59600  0.39070  0.18870  Biso   1.000  C
  H73      1.0000 0.91280  0.40300  0.77570  Biso   1.000  H
  H74      1.0000 0.58720  0.09700  0.77570  Biso   1.000  H
  H75      1.0000 0.08720  0.90300  0.72430  Biso   1.000  H
  H76      1.0000 0.41280  0.59700  0.72430  Biso   1.000  H
  H77      1.0000 0.08720  0.59700  0.22430  Biso   1.000  H
  H78      1.0000 0.41280  0.90300  0.22430  Biso   1.000  H
  H79      1.0000 0.91280  0.09700  0.27570  Biso   1.000  H
  H80      1.0000 0.58720  0.40300  0.27570  Biso   1.000  H
  C129     1.0000 0.84800  0.40010  0.49200  Biso   1.000  C
  C130     1.0000 0.65200  0.09990  0.49200  Biso   1.000  C
  C131     1.0000 0.15200  0.90010  0.00800  Biso   1.000  C
  C132     1.0000 0.34800  0.59990  0.00800  Biso   1.000  C
  C133     1.0000 0.15200  0.59990  0.50800  Biso   1.000  C
  C134     1.0000 0.34800  0.90010  0.50800  Biso   1.000  C
  C135     1.0000 0.84800  0.09990  0.99200  Biso   1.000  C
  C136     1.0000 0.65200  0.40010  0.99200  Biso   1.000  C
  H81      1.0000 0.81600  0.41910  0.43770  Biso   1.000  H
  H82      1.0000 0.68400  0.08090  0.43770  Biso   1.000  H
  H83      1.0000 0.18400  0.91910  0.06230  Biso   1.000  H
  H84      1.0000 0.31600  0.58090  0.06230  Biso   1.000  H
  H85      1.0000 0.18400  0.58090  0.56230  Biso   1.000  H
  H86      1.0000 0.31600  0.91910  0.56230  Biso   1.000  H
  H87      1.0000 0.81600  0.08090  0.93770  Biso   1.000  H
  H88      1.0000 0.68400  0.41910  0.93770  Biso   1.000  H
  C137     1.0000 0.88230  0.35520  0.43770  Biso   1.000  C
  C138     1.0000 0.61770  0.14480  0.43770  Biso   1.000  C
  C139     1.0000 0.11770  0.85520  0.06230  Biso   1.000  C
  C140     1.0000 0.38230  0.64480  0.06230  Biso   1.000  C
  C141     1.0000 0.11770  0.64480  0.56230  Biso   1.000  C
  C142     1.0000 0.38230  0.85520  0.56230  Biso   1.000  C
  C143     1.0000 0.88230  0.14480  0.93770  Biso   1.000  C
  C144     1.0000 0.61770  0.35520  0.93770  Biso   1.000  C
  H89      1.0000 0.87370  0.34490  0.34920  Biso   1.000  H
  H90      1.0000 0.62630  0.15510  0.34920  Biso   1.000  H
  H91      1.0000 0.12630  0.84490  0.15080  Biso   1.000  H
  H92      1.0000 0.37370  0.65510  0.15080  Biso   1.000  H
  H93      1.0000 0.12630  0.65510  0.65080  Biso   1.000  H
  H94      1.0000 0.37370  0.84490  0.65080  Biso   1.000  H
  H95      1.0000 0.87370  0.15510  0.84920  Biso   1.000  H
  H96      1.0000 0.62630  0.34490  0.84920  Biso   1.000  H
  C145     1.0000 0.32350  0.53771  0.49160  Biso   1.000  C
  C146     1.0000 0.17650  0.96229  0.49160  Biso   1.000  C
  C147     1.0000 0.67650  0.03771  0.00840  Biso   1.000  C
  C148     1.0000 0.82350  0.46229  0.00840  Biso   1.000  C
  C149     1.0000 0.67650  0.46229  0.50840  Biso   1.000  C
  C150     1.0000 0.82350  0.03771  0.50840  Biso   1.000  C
  C151     1.0000 0.32350  0.96229  0.99160  Biso   1.000  C
  C152     1.0000 0.17650  0.53771  0.99160  Biso   1.000  C
  O17      1.0000 0.00000  0.50000  0.50000  Biso   1.000  O
  O18      1.0000 0.50000  0.00000  0.50000  Biso   1.000  O
  O19      1.0000 0.00000  0.00000  0.00000  Biso   1.000  O
  O20      1.0000 0.50000  0.50000  0.00000  Biso   1.000  O
  O21      1.0000 0.75000  0.25000  0.44550  Biso   1.000  O
  O22      1.0000 0.25000  0.75000  0.05450  Biso   1.000  O
  O23      1.0000 0.25000  0.75000  0.55450  Biso   1.000  O
  O24      1.0000 0.75000  0.25000  0.94550  Biso   1.000  O
  H97      1.0000 0.76180  0.27180  0.38420  Biso   1.000  H
  H98      1.0000 0.73820  0.22820  0.38420  Biso   1.000  H
  H99      1.0000 0.23820  0.77180  0.11580  Biso   1.000  H
  H100     1.0000 0.26180  0.72820  0.11580  Biso   1.000  H
  H101     1.0000 0.23820  0.72820  0.61580  Biso   1.000  H
  H102     1.0000 0.26180  0.77180  0.61580  Biso   1.000  H
  H103     1.0000 0.76180  0.22820  0.88420  Biso   1.000  H
  H104     1.0000 0.73820  0.27180  0.88420  Biso   1.000  H
