data_image0
_cell_length_a       13.0362
_cell_length_b       13.0775
_cell_length_c       14.9822
_cell_angle_alpha    90
_cell_angle_beta     90
_cell_angle_gamma    90

_symmetry_space_group_name_H-M    "P 1"
_symmetry_int_tables_number       1

loop_
  _symmetry_equiv_pos_as_xyz
  'x, y, z'

loop_
  _atom_site_label
  _atom_site_occupancy
  _atom_site_fract_x
  _atom_site_fract_y
  _atom_site_fract_z
  _atom_site_thermal_displace_type
  _atom_site_B_iso_or_equiv
  _atom_site_type_symbol
  C1       1.0000 0.10860  0.11170  0.65772  Biso   1.000  C
  C2       1.0000 0.39140  0.88830  0.15772  Biso   1.000  C
  C3       1.0000 0.60860  0.38830  0.34228  Biso   1.000  C
  C4       1.0000 0.89140  0.61170  0.84228  Biso   1.000  C
  C5       1.0000 0.89140  0.88830  0.34228  Biso   1.000  C
  C6       1.0000 0.60860  0.11170  0.84228  Biso   1.000  C
  C7       1.0000 0.39140  0.61170  0.65772  Biso   1.000  C
  C8       1.0000 0.10860  0.38830  0.15772  Biso   1.000  C
  H1       1.0000 0.17660  0.09270  0.64940  Biso   1.000  H
  H2       1.0000 0.32340  0.90730  0.14940  Biso   1.000  H
  H3       1.0000 0.67660  0.40730  0.35060  Biso   1.000  H
  H4       1.0000 0.82340  0.59270  0.85060  Biso   1.000  H
  H5       1.0000 0.82340  0.90730  0.35060  Biso   1.000  H
  H6       1.0000 0.67660  0.09270  0.85060  Biso   1.000  H
  H7       1.0000 0.32340  0.59270  0.64940  Biso   1.000  H
  H8       1.0000 0.17660  0.40730  0.14940  Biso   1.000  H
  C9       1.0000 0.98950  0.19730  0.73343  Biso   1.000  C
  C10      1.0000 0.51050  0.80270  0.23343  Biso   1.000  C
  C11      1.0000 0.48950  0.30270  0.26657  Biso   1.000  C
  C12      1.0000 0.01050  0.69730  0.76657  Biso   1.000  C
  C13      1.0000 0.01050  0.80270  0.26657  Biso   1.000  C
  C14      1.0000 0.48950  0.19730  0.76657  Biso   1.000  C
  C15      1.0000 0.51050  0.69730  0.73343  Biso   1.000  C
  C16      1.0000 0.98950  0.30270  0.23343  Biso   1.000  C
  C17      1.0000 0.91235  0.16483  0.67790  Biso   1.000  C
  C18      1.0000 0.58765  0.83517  0.17790  Biso   1.000  C
  C19      1.0000 0.41235  0.33517  0.32210  Biso   1.000  C
  C20      1.0000 0.08765  0.66483  0.82210  Biso   1.000  C
  C21      1.0000 0.08765  0.83517  0.32210  Biso   1.000  C
  C22      1.0000 0.41235  0.16483  0.82210  Biso   1.000  C
  C23      1.0000 0.58765  0.66483  0.67790  Biso   1.000  C
  C24      1.0000 0.91235  0.33517  0.17790  Biso   1.000  C
  C25      1.0000 0.94035  0.09905  0.60700  Biso   1.000  C
  C26      1.0000 0.55965  0.90095  0.10700  Biso   1.000  C
  C27      1.0000 0.44035  0.40095  0.39300  Biso   1.000  C
  C28      1.0000 0.05965  0.59905  0.89300  Biso   1.000  C
  C29      1.0000 0.05965  0.90095  0.39300  Biso   1.000  C
  C30      1.0000 0.44035  0.09905  0.89300  Biso   1.000  C
  C31      1.0000 0.55965  0.59905  0.60700  Biso   1.000  C
  C32      1.0000 0.94035  0.40095  0.10700  Biso   1.000  C
  C33      1.0000 0.84322  0.25960  0.77826  Biso   1.000  C
  C34      1.0000 0.65678  0.74040  0.27826  Biso   1.000  C
  C35      1.0000 0.34322  0.24040  0.22174  Biso   1.000  C
  C36      1.0000 0.15678  0.75960  0.72174  Biso   1.000  C
  C37      1.0000 0.15678  0.74040  0.22174  Biso   1.000  C
  C38      1.0000 0.34322  0.25960  0.72174  Biso   1.000  C
  C39      1.0000 0.65678  0.75960  0.77826  Biso   1.000  C
  C40      1.0000 0.84322  0.24040  0.27826  Biso   1.000  C
  H9       1.0000 0.79520  0.29530  0.81200  Biso   1.000  H
  H10      1.0000 0.70480  0.70470  0.31200  Biso   1.000  H
  H11      1.0000 0.29520  0.20470  0.18800  Biso   1.000  H
  H12      1.0000 0.20480  0.79530  0.68800  Biso   1.000  H
  H13      1.0000 0.20480  0.70470  0.18800  Biso   1.000  H
  H14      1.0000 0.29520  0.29530  0.68800  Biso   1.000  H
  H15      1.0000 0.70480  0.79530  0.81200  Biso   1.000  H
  H16      1.0000 0.79520  0.20470  0.31200  Biso   1.000  H
  C41      1.0000 0.99590  0.31170  0.87083  Biso   1.000  C
  C42      1.0000 0.50410  0.68830  0.37083  Biso   1.000  C
  C43      1.0000 0.49590  0.18830  0.12917  Biso   1.000  C
  C44      1.0000 0.00410  0.81170  0.62917  Biso   1.000  C
  C45      1.0000 0.00410  0.68830  0.12917  Biso   1.000  C
  C46      1.0000 0.49590  0.31170  0.62917  Biso   1.000  C
  C47      1.0000 0.50410  0.81170  0.87083  Biso   1.000  C
  C48      1.0000 0.99590  0.18830  0.37083  Biso   1.000  C
  H17      1.0000 0.94430  0.33830  0.91130  Biso   1.000  H
  H18      1.0000 0.55570  0.66170  0.41130  Biso   1.000  H
  H19      1.0000 0.44430  0.16170  0.08870  Biso   1.000  H
  H20      1.0000 0.05570  0.83830  0.58870  Biso   1.000  H
  H21      1.0000 0.05570  0.66170  0.08870  Biso   1.000  H
  H22      1.0000 0.44430  0.33830  0.58870  Biso   1.000  H
  H23      1.0000 0.55570  0.83830  0.91130  Biso   1.000  H
  H24      1.0000 0.94430  0.16170  0.41130  Biso   1.000  H
  H25      1.0000 0.03410  0.36930  0.84710  Biso   1.000  H
  H26      1.0000 0.46590  0.63070  0.34710  Biso   1.000  H
  H27      1.0000 0.53410  0.13070  0.15290  Biso   1.000  H
  H28      1.0000 0.96590  0.86930  0.65290  Biso   1.000  H
  H29      1.0000 0.96590  0.63070  0.15290  Biso   1.000  H
  H30      1.0000 0.53410  0.36930  0.65290  Biso   1.000  H
  H31      1.0000 0.46590  0.86930  0.84710  Biso   1.000  H
  H32      1.0000 0.03410  0.13070  0.34710  Biso   1.000  H
  C49      1.0000 0.06790  0.24320  0.92186  Biso   1.000  C
  C50      1.0000 0.43210  0.75680  0.42186  Biso   1.000  C
  C51      1.0000 0.56790  0.25680  0.07814  Biso   1.000  C
  C52      1.0000 0.93210  0.74320  0.57814  Biso   1.000  C
  C53      1.0000 0.93210  0.75680  0.07814  Biso   1.000  C
  C54      1.0000 0.56790  0.24320  0.57814  Biso   1.000  C
  C55      1.0000 0.43210  0.74320  0.92186  Biso   1.000  C
  C56      1.0000 0.06790  0.25680  0.42186  Biso   1.000  C
  H33      1.0000 0.04810  0.17630  0.93410  Biso   1.000  H
  H34      1.0000 0.45190  0.82370  0.43410  Biso   1.000  H
  H35      1.0000 0.54810  0.32370  0.06590  Biso   1.000  H
  H36      1.0000 0.95190  0.67630  0.56590  Biso   1.000  H
  H37      1.0000 0.95190  0.82370  0.06590  Biso   1.000  H
  H38      1.0000 0.54810  0.17630  0.56590  Biso   1.000  H
  H39      1.0000 0.45190  0.67630  0.93410  Biso   1.000  H
  H40      1.0000 0.04810  0.32370  0.43410  Biso   1.000  H
  C57      1.0000 0.16160  0.27660  0.95077  Biso   1.000  C
  C58      1.0000 0.33840  0.72340  0.45077  Biso   1.000  C
  C59      1.0000 0.66160  0.22340  0.04923  Biso   1.000  C
  C60      1.0000 0.83840  0.77660  0.54923  Biso   1.000  C
  C61      1.0000 0.83840  0.72340  0.04923  Biso   1.000  C
  C62      1.0000 0.66160  0.27660  0.54923  Biso   1.000  C
  C63      1.0000 0.33840  0.77660  0.95077  Biso   1.000  C
  C64      1.0000 0.16160  0.22340  0.45077  Biso   1.000  C
  H41      1.0000 0.18230  0.34330  0.93900  Biso   1.000  H
  H42      1.0000 0.31770  0.65670  0.43900  Biso   1.000  H
  H43      1.0000 0.68230  0.15670  0.06100  Biso   1.000  H
  H44      1.0000 0.81770  0.84330  0.56100  Biso   1.000  H
  H45      1.0000 0.81770  0.65670  0.06100  Biso   1.000  H
  H46      1.0000 0.68230  0.34330  0.56100  Biso   1.000  H
  H47      1.0000 0.31770  0.84330  0.93900  Biso   1.000  H
  H48      1.0000 0.18230  0.15670  0.43900  Biso   1.000  H
  H49      1.0000 0.20450  0.23270  0.98220  Biso   1.000  H
  H50      1.0000 0.29550  0.76730  0.48220  Biso   1.000  H
  H51      1.0000 0.70450  0.26730  0.01780  Biso   1.000  H
  H52      1.0000 0.79550  0.73270  0.51780  Biso   1.000  H
  H53      1.0000 0.79550  0.76730  0.01780  Biso   1.000  H
  H54      1.0000 0.70450  0.23270  0.51780  Biso   1.000  H
  H55      1.0000 0.29550  0.73270  0.98220  Biso   1.000  H
  H56      1.0000 0.20450  0.26730  0.48220  Biso   1.000  H
  N1       1.0000 0.04148  0.07522  0.59871  Biso   1.000  N
  N2       1.0000 0.45852  0.92478  0.09871  Biso   1.000  N
  N3       1.0000 0.54148  0.42478  0.40129  Biso   1.000  N
  N4       1.0000 0.95852  0.57522  0.90129  Biso   1.000  N
  N5       1.0000 0.95852  0.92478  0.40129  Biso   1.000  N
  N6       1.0000 0.54148  0.07522  0.90129  Biso   1.000  N
  N7       1.0000 0.45852  0.57522  0.59871  Biso   1.000  N
  N8       1.0000 0.04148  0.42478  0.09871  Biso   1.000  N
  N9       1.0000 0.08952  0.17218  0.72727  Biso   1.000  N
  N10      1.0000 0.41048  0.82782  0.22727  Biso   1.000  N
  N11      1.0000 0.58952  0.32782  0.27273  Biso   1.000  N
  N12      1.0000 0.91048  0.67218  0.77273  Biso   1.000  N
  N13      1.0000 0.91048  0.82782  0.27273  Biso   1.000  N
  N14      1.0000 0.58952  0.17218  0.77273  Biso   1.000  N
  N15      1.0000 0.41048  0.67218  0.72727  Biso   1.000  N
  N16      1.0000 0.08952  0.32782  0.22727  Biso   1.000  N
  N17      1.0000 0.87494  0.05965  0.54737  Biso   1.000  N
  N18      1.0000 0.62506  0.94035  0.04737  Biso   1.000  N
  N19      1.0000 0.37494  0.44035  0.45263  Biso   1.000  N
  N20      1.0000 0.12506  0.55965  0.95263  Biso   1.000  N
  N21      1.0000 0.12506  0.94035  0.45263  Biso   1.000  N
  N22      1.0000 0.37494  0.05965  0.95263  Biso   1.000  N
  N23      1.0000 0.62506  0.55965  0.54737  Biso   1.000  N
  N24      1.0000 0.87494  0.44035  0.04737  Biso   1.000  N
  H57      1.0000 0.89730  0.02060  0.50550  Biso   1.000  H
  H58      1.0000 0.60270  0.97940  0.00550  Biso   1.000  H
  H59      1.0000 0.39730  0.47940  0.49450  Biso   1.000  H
  H60      1.0000 0.10270  0.52060  0.99450  Biso   1.000  H
  H61      1.0000 0.10270  0.97940  0.49450  Biso   1.000  H
  H62      1.0000 0.39730  0.02060  0.99450  Biso   1.000  H
  H63      1.0000 0.60270  0.52060  0.50550  Biso   1.000  H
  H64      1.0000 0.89730  0.47940  0.00550  Biso   1.000  H
  H65      1.0000 0.81060  0.07340  0.55090  Biso   1.000  H
  H66      1.0000 0.68940  0.92660  0.05090  Biso   1.000  H
  H67      1.0000 0.31060  0.42660  0.44910  Biso   1.000  H
  H68      1.0000 0.18940  0.57340  0.94910  Biso   1.000  H
  H69      1.0000 0.18940  0.92660  0.44910  Biso   1.000  H
  H70      1.0000 0.31060  0.07340  0.94910  Biso   1.000  H
  H71      1.0000 0.68940  0.57340  0.55090  Biso   1.000  H
  H72      1.0000 0.81060  0.42660  0.05090  Biso   1.000  H
  N25      1.0000 0.81950  0.20476  0.70660  Biso   1.000  N
  N26      1.0000 0.68050  0.79524  0.20660  Biso   1.000  N
  N27      1.0000 0.31950  0.29524  0.29340  Biso   1.000  N
  N28      1.0000 0.18050  0.70476  0.79340  Biso   1.000  N
  N29      1.0000 0.18050  0.79524  0.29340  Biso   1.000  N
  N30      1.0000 0.31950  0.20476  0.79340  Biso   1.000  N
  N31      1.0000 0.68050  0.70476  0.70660  Biso   1.000  N
  N32      1.0000 0.81950  0.29524  0.20660  Biso   1.000  N
  N33      1.0000 0.94506  0.25785  0.79706  Biso   1.000  N
  N34      1.0000 0.55494  0.74215  0.29706  Biso   1.000  N
  N35      1.0000 0.44506  0.24215  0.20294  Biso   1.000  N
  N36      1.0000 0.05494  0.75785  0.70294  Biso   1.000  N
  N37      1.0000 0.05494  0.74215  0.20294  Biso   1.000  N
  N38      1.0000 0.44506  0.25785  0.70294  Biso   1.000  N
  N39      1.0000 0.55494  0.75785  0.79706  Biso   1.000  N
  N40      1.0000 0.94506  0.24215  0.29706  Biso   1.000  N
  O1       1.0000 0.97388  0.91180  0.85850  Biso   1.000  O
  O2       1.0000 0.52612  0.08820  0.35850  Biso   1.000  O
  O3       1.0000 0.47388  0.58820  0.14150  Biso   1.000  O
  O4       1.0000 0.02612  0.41180  0.64150  Biso   1.000  O
  O5       1.0000 0.02612  0.08820  0.14150  Biso   1.000  O
  O6       1.0000 0.47388  0.91180  0.64150  Biso   1.000  O
  O7       1.0000 0.52612  0.41180  0.85850  Biso   1.000  O
  O8       1.0000 0.97388  0.58820  0.35850  Biso   1.000  O
  O9       1.0000 0.83830  0.94551  0.75903  Biso   1.000  O
  O10      1.0000 0.66170  0.05449  0.25903  Biso   1.000  O
  O11      1.0000 0.33830  0.55449  0.24097  Biso   1.000  O
  O12      1.0000 0.16170  0.44551  0.74097  Biso   1.000  O
  O13      1.0000 0.16170  0.05449  0.24097  Biso   1.000  O
  O14      1.0000 0.33830  0.94551  0.74097  Biso   1.000  O
  O15      1.0000 0.66170  0.44551  0.75903  Biso   1.000  O
  O16      1.0000 0.83830  0.55449  0.25903  Biso   1.000  O
  O17      1.0000 0.87694  0.06174  0.87546  Biso   1.000  O
  O18      1.0000 0.62306  0.93826  0.37546  Biso   1.000  O
  O19      1.0000 0.37694  0.43826  0.12454  Biso   1.000  O
  O20      1.0000 0.12306  0.56174  0.62454  Biso   1.000  O
  O21      1.0000 0.12306  0.93826  0.12454  Biso   1.000  O
  O22      1.0000 0.37694  0.06174  0.62454  Biso   1.000  O
  O23      1.0000 0.62306  0.56174  0.87546  Biso   1.000  O
  O24      1.0000 0.87694  0.43826  0.37546  Biso   1.000  O
  O25      1.0000 0.80240  0.90374  0.90755  Biso   1.000  O
  O26      1.0000 0.69760  0.09626  0.40755  Biso   1.000  O
  O27      1.0000 0.30240  0.59626  0.09245  Biso   1.000  O
  O28      1.0000 0.19760  0.40374  0.59245  Biso   1.000  O
  O29      1.0000 0.19760  0.09626  0.09245  Biso   1.000  O
  O30      1.0000 0.30240  0.90374  0.59245  Biso   1.000  O
  O31      1.0000 0.69760  0.40374  0.90755  Biso   1.000  O
  O32      1.0000 0.80240  0.59626  0.40755  Biso   1.000  O
  O33      1.0000 0.17738  0.01556  0.86315  Biso   1.000  O
  O34      1.0000 0.32262  0.98444  0.36315  Biso   1.000  O
  O35      1.0000 0.67738  0.48444  0.13685  Biso   1.000  O
  O36      1.0000 0.82262  0.51556  0.63685  Biso   1.000  O
  O37      1.0000 0.82262  0.98444  0.13685  Biso   1.000  O
  O38      1.0000 0.67738  0.01556  0.63685  Biso   1.000  O
  O39      1.0000 0.32262  0.51556  0.86315  Biso   1.000  O
  O40      1.0000 0.17738  0.48444  0.36315  Biso   1.000  O
  Cl1      1.0000 0.87356  0.95623  0.84999  Biso   1.000  Cl
  Cl2      1.0000 0.62644  0.04377  0.34999  Biso   1.000  Cl
  Cl3      1.0000 0.37356  0.54377  0.15001  Biso   1.000  Cl
  Cl4      1.0000 0.12644  0.45623  0.65001  Biso   1.000  Cl
  Cl5      1.0000 0.12644  0.04377  0.15001  Biso   1.000  Cl
  Cl6      1.0000 0.37356  0.95623  0.65001  Biso   1.000  Cl
  Cl7      1.0000 0.62644  0.45623  0.84999  Biso   1.000  Cl
  Cl8      1.0000 0.87356  0.54377  0.34999  Biso   1.000  Cl
  Cu1      1.0000 0.17777  0.19586  0.83564  Biso   1.000  Cu
  Cu2      1.0000 0.32223  0.80414  0.33564  Biso   1.000  Cu
  Cu3      1.0000 0.67777  0.30414  0.16436  Biso   1.000  Cu
  Cu4      1.0000 0.82223  0.69586  0.66436  Biso   1.000  Cu
  Cu5      1.0000 0.82223  0.80414  0.16436  Biso   1.000  Cu
  Cu6      1.0000 0.67777  0.19586  0.66436  Biso   1.000  Cu
  Cu7      1.0000 0.32223  0.69586  0.83564  Biso   1.000  Cu
  Cu8      1.0000 0.17777  0.30414  0.33564  Biso   1.000  Cu
  H73      1.0000 0.12600  0.98600  0.88700  Biso   1.000  H
  H74      1.0000 0.37400  0.01400  0.38700  Biso   1.000  H
  H75      1.0000 0.62600  0.51400  0.11300  Biso   1.000  H
  H76      1.0000 0.87400  0.48600  0.61300  Biso   1.000  H
  H77      1.0000 0.87400  0.01400  0.11300  Biso   1.000  H
  H78      1.0000 0.62600  0.98600  0.61300  Biso   1.000  H
  H79      1.0000 0.37400  0.48600  0.88700  Biso   1.000  H
  H80      1.0000 0.12600  0.51400  0.38700  Biso   1.000  H
  H81      1.0000 0.20600  0.98800  0.81700  Biso   1.000  H
  H82      1.0000 0.29400  0.01200  0.31700  Biso   1.000  H
  H83      1.0000 0.70600  0.51200  0.18300  Biso   1.000  H
  H84      1.0000 0.79400  0.48800  0.68300  Biso   1.000  H
  H85      1.0000 0.79400  0.01200  0.18300  Biso   1.000  H
  H86      1.0000 0.70600  0.98800  0.68300  Biso   1.000  H
  H87      1.0000 0.29400  0.48800  0.81700  Biso   1.000  H
  H88      1.0000 0.20600  0.51200  0.31700  Biso   1.000  H
