data_image0
_cell_length_a       10.4752
_cell_length_b       12.5024
_cell_length_c       21.267
_cell_angle_alpha    90
_cell_angle_beta     90
_cell_angle_gamma    90

_symmetry_space_group_name_H-M    "P 1"
_symmetry_int_tables_number       1

loop_
  _symmetry_equiv_pos_as_xyz
  'x, y, z'

loop_
  _atom_site_label
  _atom_site_occupancy
  _atom_site_fract_x
  _atom_site_fract_y
  _atom_site_fract_z
  _atom_site_thermal_displace_type
  _atom_site_B_iso_or_equiv
  _atom_site_type_symbol
  Cu1      1.0000 0.91122  0.82466  0.17528  Biso   1.000  Cu
  Cu2      1.0000 0.58878  0.17534  0.67528  Biso   1.000  Cu
  Cu3      1.0000 0.41122  0.67534  0.82472  Biso   1.000  Cu
  Cu4      1.0000 0.08878  0.32466  0.32472  Biso   1.000  Cu
  Cu5      1.0000 0.08878  0.17534  0.82472  Biso   1.000  Cu
  Cu6      1.0000 0.41122  0.82466  0.32472  Biso   1.000  Cu
  Cu7      1.0000 0.58878  0.32466  0.17528  Biso   1.000  Cu
  Cu8      1.0000 0.91122  0.67534  0.67528  Biso   1.000  Cu
  Cl1      1.0000 0.37823  0.68548  0.10699  Biso   1.000  Cl
  Cl2      1.0000 0.12177  0.31452  0.60699  Biso   1.000  Cl
  Cl3      1.0000 0.87823  0.81452  0.89301  Biso   1.000  Cl
  Cl4      1.0000 0.62177  0.18548  0.39301  Biso   1.000  Cl
  Cl5      1.0000 0.62177  0.31452  0.89301  Biso   1.000  Cl
  Cl6      1.0000 0.87823  0.68548  0.39301  Biso   1.000  Cl
  Cl7      1.0000 0.12177  0.18548  0.10699  Biso   1.000  Cl
  Cl8      1.0000 0.37823  0.81452  0.60699  Biso   1.000  Cl
  O1       1.0000 0.32650  0.77830  0.13760  Biso   1.000  O
  O2       1.0000 0.17350  0.22170  0.63760  Biso   1.000  O
  O3       1.0000 0.82650  0.72170  0.86240  Biso   1.000  O
  O4       1.0000 0.67350  0.27830  0.36240  Biso   1.000  O
  O5       1.0000 0.67350  0.22170  0.86240  Biso   1.000  O
  O6       1.0000 0.82650  0.77830  0.36240  Biso   1.000  O
  O7       1.0000 0.17350  0.27830  0.13760  Biso   1.000  O
  O8       1.0000 0.32650  0.72170  0.63760  Biso   1.000  O
  O9       1.0000 0.31360  0.59160  0.12953  Biso   1.000  O
  O10      1.0000 0.18640  0.40840  0.62953  Biso   1.000  O
  O11      1.0000 0.81360  0.90840  0.87047  Biso   1.000  O
  O12      1.0000 0.68640  0.09160  0.37047  Biso   1.000  O
  O13      1.0000 0.68640  0.40840  0.87047  Biso   1.000  O
  O14      1.0000 0.81360  0.59160  0.37047  Biso   1.000  O
  O15      1.0000 0.18640  0.09160  0.12953  Biso   1.000  O
  O16      1.0000 0.31360  0.90840  0.62953  Biso   1.000  O
  O17      1.0000 0.36190  0.69470  0.04080  Biso   1.000  O
  O18      1.0000 0.13810  0.30530  0.54080  Biso   1.000  O
  O19      1.0000 0.86190  0.80530  0.95920  Biso   1.000  O
  O20      1.0000 0.63810  0.19470  0.45920  Biso   1.000  O
  O21      1.0000 0.63810  0.30530  0.95920  Biso   1.000  O
  O22      1.0000 0.86190  0.69470  0.45920  Biso   1.000  O
  O23      1.0000 0.13810  0.19470  0.04080  Biso   1.000  O
  O24      1.0000 0.36190  0.80530  0.54080  Biso   1.000  O
  O25      1.0000 0.51160  0.67620  0.12240  Biso   1.000  O
  O26      1.0000 0.98840  0.32380  0.62240  Biso   1.000  O
  O27      1.0000 0.01160  0.82380  0.87760  Biso   1.000  O
  O28      1.0000 0.48840  0.17620  0.37760  Biso   1.000  O
  O29      1.0000 0.48840  0.32380  0.87760  Biso   1.000  O
  O30      1.0000 0.01160  0.67620  0.37760  Biso   1.000  O
  O31      1.0000 0.98840  0.17620  0.12240  Biso   1.000  O
  O32      1.0000 0.51160  0.82380  0.62240  Biso   1.000  O
  N1       1.0000 0.60390  0.95100  0.06522  Biso   1.000  N
  N2       1.0000 0.89610  0.04900  0.56522  Biso   1.000  N
  N3       1.0000 0.10390  0.54900  0.93478  Biso   1.000  N
  N4       1.0000 0.39610  0.45100  0.43478  Biso   1.000  N
  N5       1.0000 0.39610  0.04900  0.93478  Biso   1.000  N
  N6       1.0000 0.10390  0.95100  0.43478  Biso   1.000  N
  N7       1.0000 0.89610  0.45100  0.06522  Biso   1.000  N
  N8       1.0000 0.60390  0.54900  0.56522  Biso   1.000  N
  N9       1.0000 0.75530  0.90780  0.14531  Biso   1.000  N
  N10      1.0000 0.74470  0.09220  0.64531  Biso   1.000  N
  N11      1.0000 0.25530  0.59220  0.85469  Biso   1.000  N
  N12      1.0000 0.24470  0.40780  0.35469  Biso   1.000  N
  N13      1.0000 0.24470  0.09220  0.85469  Biso   1.000  N
  N14      1.0000 0.25530  0.90780  0.35469  Biso   1.000  N
  N15      1.0000 0.74470  0.40780  0.14531  Biso   1.000  N
  N16      1.0000 0.75530  0.59220  0.64531  Biso   1.000  N
  N17      1.0000 0.49810  0.11230  0.05960  Biso   1.000  N
  N18      1.0000 0.00190  0.88770  0.55960  Biso   1.000  N
  N19      1.0000 0.99810  0.38770  0.94040  Biso   1.000  N
  N20      1.0000 0.50190  0.61230  0.44040  Biso   1.000  N
  N21      1.0000 0.50190  0.88770  0.94040  Biso   1.000  N
  N22      1.0000 0.99810  0.11230  0.44040  Biso   1.000  N
  N23      1.0000 0.00190  0.61230  0.05960  Biso   1.000  N
  N24      1.0000 0.49810  0.38770  0.55960  Biso   1.000  N
  H1       1.0000 0.46140  0.09020  0.02580  Biso   1.000  H
  H2       1.0000 0.03860  0.90980  0.52580  Biso   1.000  H
  H3       1.0000 0.96140  0.40980  0.97420  Biso   1.000  H
  H4       1.0000 0.53860  0.59020  0.47420  Biso   1.000  H
  H5       1.0000 0.53860  0.90980  0.97420  Biso   1.000  H
  H6       1.0000 0.96140  0.09020  0.47420  Biso   1.000  H
  H7       1.0000 0.03860  0.59020  0.02580  Biso   1.000  H
  H8       1.0000 0.46140  0.40980  0.52580  Biso   1.000  H
  H9       1.0000 0.48150  0.17510  0.07390  Biso   1.000  H
  H10      1.0000 0.01850  0.82490  0.57390  Biso   1.000  H
  H11      1.0000 0.98150  0.32490  0.92610  Biso   1.000  H
  H12      1.0000 0.51850  0.67510  0.42610  Biso   1.000  H
  H13      1.0000 0.51850  0.82490  0.92610  Biso   1.000  H
  H14      1.0000 0.98150  0.17510  0.42610  Biso   1.000  H
  H15      1.0000 0.01850  0.67510  0.07390  Biso   1.000  H
  H16      1.0000 0.48150  0.32490  0.57390  Biso   1.000  H
  N25      1.0000 0.78020  0.04960  0.22256  Biso   1.000  N
  N26      1.0000 0.71980  0.95040  0.72256  Biso   1.000  N
  N27      1.0000 0.28020  0.45040  0.77744  Biso   1.000  N
  N28      1.0000 0.21980  0.54960  0.27744  Biso   1.000  N
  N29      1.0000 0.21980  0.95040  0.77744  Biso   1.000  N
  N30      1.0000 0.28020  0.04960  0.27744  Biso   1.000  N
  N31      1.0000 0.71980  0.54960  0.22256  Biso   1.000  N
  N32      1.0000 0.78020  0.45040  0.72256  Biso   1.000  N
  N33      1.0000 0.64600  0.17100  0.18293  Biso   1.000  N
  N34      1.0000 0.85400  0.82900  0.68293  Biso   1.000  N
  N35      1.0000 0.14600  0.32900  0.81707  Biso   1.000  N
  N36      1.0000 0.35400  0.67100  0.31707  Biso   1.000  N
  N37      1.0000 0.35400  0.82900  0.81707  Biso   1.000  N
  N38      1.0000 0.14600  0.17100  0.31707  Biso   1.000  N
  N39      1.0000 0.85400  0.67100  0.18293  Biso   1.000  N
  N40      1.0000 0.64600  0.32900  0.68293  Biso   1.000  N
  N41      1.0000 0.02380  0.84820  0.09420  Biso   1.000  N
  N42      1.0000 0.47620  0.15180  0.59420  Biso   1.000  N
  N43      1.0000 0.52380  0.65180  0.90580  Biso   1.000  N
  N44      1.0000 0.97620  0.34820  0.40580  Biso   1.000  N
  N45      1.0000 0.97620  0.15180  0.90580  Biso   1.000  N
  N46      1.0000 0.52380  0.84820  0.40580  Biso   1.000  N
  N47      1.0000 0.47620  0.34820  0.09420  Biso   1.000  N
  N48      1.0000 0.02380  0.65180  0.59420  Biso   1.000  N
  C1       1.0000 0.68750  0.88730  0.09300  Biso   1.000  C
  C2       1.0000 0.81250  0.11270  0.59300  Biso   1.000  C
  C3       1.0000 0.18750  0.61270  0.90700  Biso   1.000  C
  C4       1.0000 0.31250  0.38730  0.40700  Biso   1.000  C
  C5       1.0000 0.31250  0.11270  0.90700  Biso   1.000  C
  C6       1.0000 0.18750  0.88730  0.40700  Biso   1.000  C
  C7       1.0000 0.81250  0.38730  0.09300  Biso   1.000  C
  C8       1.0000 0.68750  0.61270  0.59300  Biso   1.000  C
  H17      1.0000 0.70090  0.82100  0.07420  Biso   1.000  H
  H18      1.0000 0.79910  0.17900  0.57420  Biso   1.000  H
  H19      1.0000 0.20090  0.67900  0.92580  Biso   1.000  H
  H20      1.0000 0.29910  0.32100  0.42580  Biso   1.000  H
  H21      1.0000 0.29910  0.17900  0.92580  Biso   1.000  H
  H22      1.0000 0.20090  0.82100  0.42580  Biso   1.000  H
  H23      1.0000 0.79910  0.32100  0.07420  Biso   1.000  H
  H24      1.0000 0.70090  0.67900  0.57420  Biso   1.000  H
  C9       1.0000 0.73040  0.00390  0.16890  Biso   1.000  C
  C10      1.0000 0.76960  0.99610  0.66890  Biso   1.000  C
  C11      1.0000 0.23040  0.49610  0.83110  Biso   1.000  C
  C12      1.0000 0.26960  0.50390  0.33110  Biso   1.000  C
  C13      1.0000 0.26960  0.99610  0.83110  Biso   1.000  C
  C14      1.0000 0.23040  0.00390  0.33110  Biso   1.000  C
  C15      1.0000 0.76960  0.50390  0.16890  Biso   1.000  C
  C16      1.0000 0.73040  0.49610  0.66890  Biso   1.000  C
  C17      1.0000 0.64570  0.08070  0.14480  Biso   1.000  C
  C18      1.0000 0.85430  0.91930  0.64480  Biso   1.000  C
  C19      1.0000 0.14570  0.41930  0.85520  Biso   1.000  C
  C20      1.0000 0.35430  0.58070  0.35520  Biso   1.000  C
  C21      1.0000 0.35430  0.91930  0.85520  Biso   1.000  C
  C22      1.0000 0.14570  0.08070  0.35520  Biso   1.000  C
  C23      1.0000 0.85430  0.58070  0.14480  Biso   1.000  C
  C24      1.0000 0.64570  0.41930  0.64480  Biso   1.000  C
  C25      1.0000 0.57950  0.05030  0.08910  Biso   1.000  C
  C26      1.0000 0.92050  0.94970  0.58910  Biso   1.000  C
  C27      1.0000 0.07950  0.44970  0.91090  Biso   1.000  C
  C28      1.0000 0.42050  0.55030  0.41090  Biso   1.000  C
  C29      1.0000 0.42050  0.94970  0.91090  Biso   1.000  C
  C30      1.0000 0.07950  0.05030  0.41090  Biso   1.000  C
  C31      1.0000 0.92050  0.55030  0.08910  Biso   1.000  C
  C32      1.0000 0.57950  0.44970  0.58910  Biso   1.000  C
  C33      1.0000 0.72560  0.14670  0.22860  Biso   1.000  C
  C34      1.0000 0.77440  0.85330  0.72860  Biso   1.000  C
  C35      1.0000 0.22560  0.35330  0.77140  Biso   1.000  C
  C36      1.0000 0.27440  0.64670  0.27140  Biso   1.000  C
  C37      1.0000 0.27440  0.85330  0.77140  Biso   1.000  C
  C38      1.0000 0.22560  0.14670  0.27140  Biso   1.000  C
  C39      1.0000 0.77440  0.64670  0.22860  Biso   1.000  C
  C40      1.0000 0.72560  0.35330  0.72860  Biso   1.000  C
  H25      1.0000 0.74270  0.19250  0.26200  Biso   1.000  H
  H26      1.0000 0.75730  0.80750  0.76200  Biso   1.000  H
  H27      1.0000 0.24270  0.30750  0.73800  Biso   1.000  H
  H28      1.0000 0.25730  0.69250  0.23800  Biso   1.000  H
  H29      1.0000 0.25730  0.80750  0.73800  Biso   1.000  H
  H30      1.0000 0.24270  0.19250  0.23800  Biso   1.000  H
  H31      1.0000 0.75730  0.69250  0.26200  Biso   1.000  H
  H32      1.0000 0.74270  0.30750  0.76200  Biso   1.000  H
  C41      1.0000 0.87360  0.00030  0.26570  Biso   1.000  C
  C42      1.0000 0.62640  0.99970  0.76570  Biso   1.000  C
  C43      1.0000 0.37360  0.49970  0.73430  Biso   1.000  C
  C44      1.0000 0.12640  0.50030  0.23430  Biso   1.000  C
  C45      1.0000 0.12640  0.99970  0.73430  Biso   1.000  C
  C46      1.0000 0.37360  0.00030  0.23430  Biso   1.000  C
  C47      1.0000 0.62640  0.50030  0.26570  Biso   1.000  C
  C48      1.0000 0.87360  0.49970  0.76570  Biso   1.000  C
  H33      1.0000 0.90640  0.05430  0.29410  Biso   1.000  H
  H34      1.0000 0.59360  0.94570  0.79410  Biso   1.000  H
  H35      1.0000 0.40640  0.44570  0.70590  Biso   1.000  H
  H36      1.0000 0.09360  0.55430  0.20590  Biso   1.000  H
  H37      1.0000 0.09360  0.94570  0.70590  Biso   1.000  H
  H38      1.0000 0.40640  0.05430  0.20590  Biso   1.000  H
  H39      1.0000 0.59360  0.55430  0.29410  Biso   1.000  H
  H40      1.0000 0.90640  0.44570  0.79410  Biso   1.000  H
  H41      1.0000 0.83150  0.94570  0.29060  Biso   1.000  H
  H42      1.0000 0.66850  0.05430  0.79060  Biso   1.000  H
  H43      1.0000 0.33150  0.55430  0.70940  Biso   1.000  H
  H44      1.0000 0.16850  0.44570  0.20940  Biso   1.000  H
  H45      1.0000 0.16850  0.05430  0.70940  Biso   1.000  H
  H46      1.0000 0.33150  0.94570  0.20940  Biso   1.000  H
  H47      1.0000 0.66850  0.44570  0.29060  Biso   1.000  H
  H48      1.0000 0.83150  0.55430  0.79060  Biso   1.000  H
  C49      1.0000 0.98190  0.95110  0.23010  Biso   1.000  C
  C50      1.0000 0.51810  0.04890  0.73010  Biso   1.000  C
  C51      1.0000 0.48190  0.54890  0.76990  Biso   1.000  C
  C52      1.0000 0.01810  0.45110  0.26990  Biso   1.000  C
  C53      1.0000 0.01810  0.04890  0.76990  Biso   1.000  C
  C54      1.0000 0.48190  0.95110  0.26990  Biso   1.000  C
  C55      1.0000 0.51810  0.45110  0.23010  Biso   1.000  C
  C56      1.0000 0.98190  0.54890  0.73010  Biso   1.000  C
  H49      1.0000 0.01140  0.98550  0.19420  Biso   1.000  H
  H50      1.0000 0.48860  0.01450  0.69420  Biso   1.000  H
  H51      1.0000 0.51140  0.51450  0.80580  Biso   1.000  H
  H52      1.0000 0.98860  0.48550  0.30580  Biso   1.000  H
  H53      1.0000 0.98860  0.01450  0.80580  Biso   1.000  H
  H54      1.0000 0.51140  0.98550  0.30580  Biso   1.000  H
  H55      1.0000 0.48860  0.48550  0.19420  Biso   1.000  H
  H56      1.0000 0.01140  0.51450  0.69420  Biso   1.000  H
  C57      1.0000 0.03920  0.85830  0.24790  Biso   1.000  C
  C58      1.0000 0.46080  0.14170  0.74790  Biso   1.000  C
  C59      1.0000 0.53920  0.64170  0.75210  Biso   1.000  C
  C60      1.0000 0.96080  0.35830  0.25210  Biso   1.000  C
  C61      1.0000 0.96080  0.14170  0.75210  Biso   1.000  C
  C62      1.0000 0.53920  0.85830  0.25210  Biso   1.000  C
  C63      1.0000 0.46080  0.35830  0.24790  Biso   1.000  C
  C64      1.0000 0.03920  0.64170  0.74790  Biso   1.000  C
  H57      1.0000 0.01130  0.82240  0.28360  Biso   1.000  H
  H58      1.0000 0.48870  0.17760  0.78360  Biso   1.000  H
  H59      1.0000 0.51130  0.67760  0.71640  Biso   1.000  H
  H60      1.0000 0.98870  0.32240  0.21640  Biso   1.000  H
  H61      1.0000 0.98870  0.17760  0.71640  Biso   1.000  H
  H62      1.0000 0.51130  0.82240  0.21640  Biso   1.000  H
  H63      1.0000 0.48870  0.32240  0.28360  Biso   1.000  H
  H64      1.0000 0.01130  0.67760  0.78360  Biso   1.000  H
  H65      1.0000 0.10630  0.83070  0.22430  Biso   1.000  H
  H66      1.0000 0.39370  0.16930  0.72430  Biso   1.000  H
  H67      1.0000 0.60630  0.66930  0.77570  Biso   1.000  H
  H68      1.0000 0.89370  0.33070  0.27570  Biso   1.000  H
  H69      1.0000 0.89370  0.16930  0.77570  Biso   1.000  H
  H70      1.0000 0.60630  0.83070  0.27570  Biso   1.000  H
  H71      1.0000 0.39370  0.33070  0.22430  Biso   1.000  H
  H72      1.0000 0.10630  0.66930  0.72430  Biso   1.000  H
  C65      1.0000 0.09330  0.88110  0.05800  Biso   1.000  C
  C66      1.0000 0.40670  0.11890  0.55800  Biso   1.000  C
  C67      1.0000 0.59330  0.61890  0.94200  Biso   1.000  C
  C68      1.0000 0.90670  0.38110  0.44200  Biso   1.000  C
  C69      1.0000 0.90670  0.11890  0.94200  Biso   1.000  C
  C70      1.0000 0.59330  0.88110  0.44200  Biso   1.000  C
  C71      1.0000 0.40670  0.38110  0.05800  Biso   1.000  C
  C72      1.0000 0.09330  0.61890  0.55800  Biso   1.000  C
  C73      1.0000 0.18160  0.92030  0.01110  Biso   1.000  C
  C74      1.0000 0.31840  0.07970  0.51110  Biso   1.000  C
  C75      1.0000 0.68160  0.57970  0.98890  Biso   1.000  C
  C76      1.0000 0.81840  0.42030  0.48890  Biso   1.000  C
  C77      1.0000 0.81840  0.07970  0.98890  Biso   1.000  C
  C78      1.0000 0.68160  0.92030  0.48890  Biso   1.000  C
  C79      1.0000 0.31840  0.42030  0.01110  Biso   1.000  C
  C80      1.0000 0.18160  0.57970  0.51110  Biso   1.000  C
  H73      1.0000 0.26390  0.88830  0.01770  Biso   1.000  H
  H74      1.0000 0.23610  0.11170  0.51770  Biso   1.000  H
  H75      1.0000 0.76390  0.61170  0.98230  Biso   1.000  H
  H76      1.0000 0.73610  0.38830  0.48230  Biso   1.000  H
  H77      1.0000 0.73610  0.11170  0.98230  Biso   1.000  H
  H78      1.0000 0.76390  0.88830  0.48230  Biso   1.000  H
  H79      1.0000 0.23610  0.38830  0.01770  Biso   1.000  H
  H80      1.0000 0.26390  0.61170  0.51770  Biso   1.000  H
  H81      1.0000 0.18870  0.99660  0.01460  Biso   1.000  H
  H82      1.0000 0.31130  0.00340  0.51460  Biso   1.000  H
  H83      1.0000 0.68870  0.50340  0.98540  Biso   1.000  H
  H84      1.0000 0.81130  0.49660  0.48540  Biso   1.000  H
  H85      1.0000 0.81130  0.00340  0.98540  Biso   1.000  H
  H86      1.0000 0.68870  0.99660  0.48540  Biso   1.000  H
  H87      1.0000 0.31130  0.49660  0.01460  Biso   1.000  H
  H88      1.0000 0.18870  0.50340  0.51460  Biso   1.000  H
  H89      1.0000 0.15100  0.90200  0.97000  Biso   1.000  H
  H90      1.0000 0.34900  0.09800  0.47000  Biso   1.000  H
  H91      1.0000 0.65100  0.59800  0.03000  Biso   1.000  H
  H92      1.0000 0.84900  0.40200  0.53000  Biso   1.000  H
  H93      1.0000 0.84900  0.09800  0.03000  Biso   1.000  H
  H94      1.0000 0.65100  0.90200  0.53000  Biso   1.000  H
  H95      1.0000 0.34900  0.40200  0.97000  Biso   1.000  H
  H96      1.0000 0.15100  0.59800  0.47000  Biso   1.000  H
