data_image0
_cell_length_a       9.1024
_cell_length_b       9.5071
_cell_length_c       10.351
_cell_angle_alpha    72.08
_cell_angle_beta     72
_cell_angle_gamma    68.92

_symmetry_space_group_name_H-M    "P 1"
_symmetry_int_tables_number       1

loop_
  _symmetry_equiv_pos_as_xyz
  'x, y, z'

loop_
  _atom_site_label
  _atom_site_occupancy
  _atom_site_fract_x
  _atom_site_fract_y
  _atom_site_fract_z
  _atom_site_thermal_displace_type
  _atom_site_B_iso_or_equiv
  _atom_site_type_symbol
  N1       1.0000 0.38860  0.85430  0.83940  Biso   1.000  N
  N2       1.0000 0.61140  0.14570  0.16060  Biso   1.000  N
  C1       1.0000 0.22150  0.68640  0.91140  Biso   1.000  C
  C2       1.0000 0.77850  0.31360  0.08860  Biso   1.000  C
  H1       1.0000 0.17380  0.61810  0.98270  Biso   1.000  H
  H2       1.0000 0.82620  0.38190  0.01730  Biso   1.000  H
  C3       1.0000 0.19790  0.72070  0.77760  Biso   1.000  C
  C4       1.0000 0.80210  0.27930  0.22240  Biso   1.000  C
  H3       1.0000 0.13260  0.67760  0.75780  Biso   1.000  H
  H4       1.0000 0.86740  0.32240  0.24220  Biso   1.000  H
  C5       1.0000 0.27430  0.82110  0.67370  Biso   1.000  C
  C6       1.0000 0.72570  0.17890  0.32630  Biso   1.000  C
  C7       1.0000 0.36590  0.88710  0.71060  Biso   1.000  C
  C8       1.0000 0.63410  0.11290  0.28940  Biso   1.000  C
  H5       1.0000 0.41350  0.95740  0.64200  Biso   1.000  H
  H6       1.0000 0.58650  0.04260  0.35800  Biso   1.000  H
  I1       1.0000 0.69558  0.77218  0.05802  Biso   1.000  I
  I2       1.0000 0.30442  0.22782  0.94198  Biso   1.000  I
  Cu1      1.0000 0.52512  0.96363  0.87909  Biso   1.000  Cu
  Cu2      1.0000 0.47488  0.03637  0.12091  Biso   1.000  Cu
  N3       1.0000 0.16110  0.84540  0.46860  Biso   1.000  N
  N4       1.0000 0.83890  0.15460  0.53140  Biso   1.000  N
  C9       1.0000 0.11000  0.90310  0.24350  Biso   1.000  C
  C10      1.0000 0.89000  0.09690  0.75650  Biso   1.000  C
  H7       1.0000 0.12900  0.94740  0.14860  Biso   1.000  H
  H8       1.0000 0.87100  0.05260  0.85140  Biso   1.000  H
  C11      1.0000 0.20080  0.90870  0.32930  Biso   1.000  C
  C12      1.0000 0.79920  0.09130  0.67070  Biso   1.000  C
  N5       1.0000 0.32520  0.96050  0.30400  Biso   1.000  N
  N6       1.0000 0.67480  0.03950  0.69600  Biso   1.000  N
  N7       1.0000 0.04340  0.77370  0.53560  Biso   1.000  N
  N8       1.0000 0.95660  0.22630  0.46440  Biso   1.000  N
  N9       1.0000 0.36490  0.93350  0.42770  Biso   1.000  N
  N10      1.0000 0.63510  0.06650  0.57230  Biso   1.000  N
  C13      1.0000 0.84220  0.68040  0.52390  Biso   1.000  C
  C14      1.0000 0.15780  0.31960  0.47610  Biso   1.000  C
  C15      1.0000 0.26650  0.86490  0.52830  Biso   1.000  C
  C16      1.0000 0.73350  0.13510  0.47170  Biso   1.000  C
  C17      1.0000 0.31710  0.75530  0.93760  Biso   1.000  C
  C18      1.0000 0.68290  0.24470  0.06240  Biso   1.000  C
  H9       1.0000 0.33220  0.73150  0.02760  Biso   1.000  H
  H10      1.0000 0.66780  0.26850  0.97240  Biso   1.000  H
  C19      1.0000 0.99470  0.83080  0.30510  Biso   1.000  C
  C20      1.0000 0.00530  0.16920  0.69490  Biso   1.000  C
  H11      1.0000 0.93390  0.82310  0.25140  Biso   1.000  H
  H12      1.0000 0.06610  0.17690  0.74860  Biso   1.000  H
  C21      1.0000 0.96390  0.76530  0.45280  Biso   1.000  C
  C22      1.0000 0.03610  0.23470  0.54720  Biso   1.000  C
  C23      1.0000 0.77940  0.62890  0.44550  Biso   1.000  C
  C24      1.0000 0.22060  0.37110  0.55450  Biso   1.000  C
  H13      1.0000 0.80860  0.65300  0.34870  Biso   1.000  H
  H14      1.0000 0.19140  0.34700  0.65130  Biso   1.000  H
  C25      1.0000 0.79390  0.64600  0.66780  Biso   1.000  C
  C26      1.0000 0.20610  0.35400  0.33220  Biso   1.000  C
  H15      1.0000 0.83340  0.68160  0.72050  Biso   1.000  H
  H16      1.0000 0.16660  0.31840  0.27950  Biso   1.000  H
  C27      1.0000 0.62690  0.50560  0.65760  Biso   1.000  C
  C28      1.0000 0.37310  0.49440  0.34240  Biso   1.000  C
  H17      1.0000 0.55620  0.44620  0.70280  Biso   1.000  H
  H18      1.0000 0.44380  0.55380  0.29720  Biso   1.000  H
  C29      1.0000 0.68770  0.55940  0.73320  Biso   1.000  C
  C30      1.0000 0.31230  0.44060  0.26680  Biso   1.000  C
  H19      1.0000 0.65660  0.53690  0.83000  Biso   1.000  H
  H20      1.0000 0.34340  0.46310  0.17000  Biso   1.000  H
  C31      1.0000 0.67180  0.54070  0.51470  Biso   1.000  C
  C32      1.0000 0.32820  0.45930  0.48530  Biso   1.000  C
  H21      1.0000 0.63020  0.50550  0.46320  Biso   1.000  H
  H22      1.0000 0.36980  0.49450  0.53680  Biso   1.000  H
