data_image0
_cell_length_a       10.1927
_cell_length_b       19.5443
_cell_length_c       17.7858
_cell_angle_alpha    90
_cell_angle_beta     94.747
_cell_angle_gamma    90

_symmetry_space_group_name_H-M    "P 1"
_symmetry_int_tables_number       1

loop_
  _symmetry_equiv_pos_as_xyz
  'x, y, z'

loop_
  _atom_site_label
  _atom_site_occupancy
  _atom_site_fract_x
  _atom_site_fract_y
  _atom_site_fract_z
  _atom_site_thermal_displace_type
  _atom_site_B_iso_or_equiv
  _atom_site_type_symbol
  Cu1      1.0000 0.13390  0.31105  0.45282  Biso   1.000  Cu
  Cu2      1.0000 0.36610  0.81105  0.04718  Biso   1.000  Cu
  Cu3      1.0000 0.86610  0.68895  0.54718  Biso   1.000  Cu
  Cu4      1.0000 0.63390  0.18895  0.95282  Biso   1.000  Cu
  Cu5      1.0000 0.33406  0.19508  0.44962  Biso   1.000  Cu
  Cu6      1.0000 0.16594  0.69508  0.05038  Biso   1.000  Cu
  Cu7      1.0000 0.66594  0.80492  0.55038  Biso   1.000  Cu
  Cu8      1.0000 0.83406  0.30492  0.94962  Biso   1.000  Cu
  Cu9      1.0000 0.13903  0.20330  0.54453  Biso   1.000  Cu
  Cu10     1.0000 0.36097  0.70330  0.95547  Biso   1.000  Cu
  Cu11     1.0000 0.86097  0.79670  0.45547  Biso   1.000  Cu
  Cu12     1.0000 0.63903  0.29670  0.04453  Biso   1.000  Cu
  Cu13     1.0000 0.33222  0.29306  0.55982  Biso   1.000  Cu
  Cu14     1.0000 0.16778  0.79306  0.94018  Biso   1.000  Cu
  Cu15     1.0000 0.66778  0.70694  0.44018  Biso   1.000  Cu
  Cu16     1.0000 0.83222  0.20694  0.05982  Biso   1.000  Cu
  I1       1.0000 0.07984  0.18491  0.39557  Biso   1.000  I
  I2       1.0000 0.42016  0.68491  0.10443  Biso   1.000  I
  I3       1.0000 0.92016  0.81509  0.60443  Biso   1.000  I
  I4       1.0000 0.57984  0.31509  0.89557  Biso   1.000  I
  I5       1.0000 0.38637  0.32537  0.41374  Biso   1.000  I
  I6       1.0000 0.11363  0.82537  0.08626  Biso   1.000  I
  I7       1.0000 0.61363  0.67463  0.58626  Biso   1.000  I
  I8       1.0000 0.88637  0.17463  0.91374  Biso   1.000  I
  I9       1.0000 0.08762  0.32770  0.59451  Biso   1.000  I
  I10      1.0000 0.41238  0.82770  0.90549  Biso   1.000  I
  I11      1.0000 0.91238  0.67230  0.40549  Biso   1.000  I
  I12      1.0000 0.58762  0.17230  0.09451  Biso   1.000  I
  I13      1.0000 0.38734  0.16587  0.59409  Biso   1.000  I
  I14      1.0000 0.11266  0.66587  0.90591  Biso   1.000  I
  I15      1.0000 0.61266  0.83413  0.40591  Biso   1.000  I
  I16      1.0000 0.88734  0.33413  0.09409  Biso   1.000  I
  S1       1.0000 0.04640  0.39774  0.37593  Biso   1.000  S
  S2       1.0000 0.45360  0.89774  0.12407  Biso   1.000  S
  S3       1.0000 0.95360  0.60226  0.62407  Biso   1.000  S
  S4       1.0000 0.54640  0.10226  0.87593  Biso   1.000  S
  S5       1.0000 0.44560  0.12220  0.37373  Biso   1.000  S
  S6       1.0000 0.05440  0.62220  0.12627  Biso   1.000  S
  S7       1.0000 0.55440  0.87780  0.62627  Biso   1.000  S
  S8       1.0000 0.94560  0.37780  0.87373  Biso   1.000  S
  O1       1.0000 0.13750  0.47030  0.23430  Biso   1.000  O
  O2       1.0000 0.36250  0.97030  0.26570  Biso   1.000  O
  O3       1.0000 0.86250  0.52970  0.76570  Biso   1.000  O
  O4       1.0000 0.63750  0.02970  0.73430  Biso   1.000  O
  O5       1.0000 0.27050  0.22750  0.21840  Biso   1.000  O
  O6       1.0000 0.22950  0.72750  0.28160  Biso   1.000  O
  O7       1.0000 0.72950  0.77250  0.78160  Biso   1.000  O
  O8       1.0000 0.77050  0.27250  0.71840  Biso   1.000  O
  N1       1.0000 0.52780  0.36640  0.09200  Biso   1.000  N
  N2       1.0000 0.97220  0.86640  0.40800  Biso   1.000  N
  N3       1.0000 0.47220  0.63360  0.90800  Biso   1.000  N
  N4       1.0000 0.02780  0.13360  0.59200  Biso   1.000  N
  N5       1.0000 0.24820  0.37400  0.20670  Biso   1.000  N
  N6       1.0000 0.25180  0.87400  0.29330  Biso   1.000  N
  N7       1.0000 0.75180  0.62600  0.79330  Biso   1.000  N
  N8       1.0000 0.74820  0.12600  0.70670  Biso   1.000  N
  H1       1.0000 0.24810  0.32930  0.21300  Biso   1.000  H
  H2       1.0000 0.25190  0.82930  0.28700  Biso   1.000  H
  H3       1.0000 0.75190  0.67070  0.78700  Biso   1.000  H
  H4       1.0000 0.74810  0.17070  0.71300  Biso   1.000  H
  N9       1.0000 0.95320  0.13410  0.10940  Biso   1.000  N
  N10      1.0000 0.54680  0.63410  0.39060  Biso   1.000  N
  N11      1.0000 0.04680  0.86590  0.89060  Biso   1.000  N
  N12      1.0000 0.45320  0.36590  0.60940  Biso   1.000  N
  N13      1.0000 0.27010  0.11140  0.22270  Biso   1.000  N
  N14      1.0000 0.22990  0.61140  0.27730  Biso   1.000  N
  N15      1.0000 0.72990  0.88860  0.77730  Biso   1.000  N
  N16      1.0000 0.77010  0.38860  0.72270  Biso   1.000  N
  H5       1.0000 0.31260  0.07550  0.24200  Biso   1.000  H
  H6       1.0000 0.18740  0.57550  0.25800  Biso   1.000  H
  H7       1.0000 0.68740  0.92450  0.75800  Biso   1.000  H
  H8       1.0000 0.81260  0.42450  0.74200  Biso   1.000  H
  C1       1.0000 0.42770  0.35090  0.13300  Biso   1.000  C
  C2       1.0000 0.07230  0.85090  0.36700  Biso   1.000  C
  C3       1.0000 0.57230  0.64910  0.86700  Biso   1.000  C
  C4       1.0000 0.92770  0.14910  0.63300  Biso   1.000  C
  H9       1.0000 0.41100  0.30390  0.14200  Biso   1.000  H
  H10      1.0000 0.08900  0.80390  0.35800  Biso   1.000  H
  H11      1.0000 0.58900  0.69610  0.85800  Biso   1.000  H
  H12      1.0000 0.91100  0.19610  0.64200  Biso   1.000  H
  C5       1.0000 0.54860  0.43300  0.07870  Biso   1.000  C
  C6       1.0000 0.95140  0.93300  0.42130  Biso   1.000  C
  C7       1.0000 0.45140  0.56700  0.92130  Biso   1.000  C
  C8       1.0000 0.04860  0.06700  0.57870  Biso   1.000  C
  H13      1.0000 0.61970  0.44560  0.05030  Biso   1.000  H
  H14      1.0000 0.88030  0.94560  0.44970  Biso   1.000  H
  H15      1.0000 0.38030  0.55440  0.94970  Biso   1.000  H
  H16      1.0000 0.11970  0.05440  0.55030  Biso   1.000  H
  C9       1.0000 0.46950  0.48420  0.10530  Biso   1.000  C
  C10      1.0000 0.03050  0.98420  0.39470  Biso   1.000  C
  C11      1.0000 0.53050  0.51580  0.89470  Biso   1.000  C
  C12      1.0000 0.96950  0.01580  0.60530  Biso   1.000  C
  H17      1.0000 0.48740  0.53080  0.09490  Biso   1.000  H
  H18      1.0000 0.01260  0.03080  0.40510  Biso   1.000  H
  H19      1.0000 0.51260  0.46920  0.90510  Biso   1.000  H
  H20      1.0000 0.98740  0.96920  0.59490  Biso   1.000  H
  C13      1.0000 0.36490  0.46770  0.14680  Biso   1.000  C
  C14      1.0000 0.13510  0.96770  0.35320  Biso   1.000  C
  C15      1.0000 0.63510  0.53230  0.85320  Biso   1.000  C
  C16      1.0000 0.86490  0.03230  0.64680  Biso   1.000  C
  H21      1.0000 0.30790  0.50200  0.16320  Biso   1.000  H
  H22      1.0000 0.19210  0.00200  0.33680  Biso   1.000  H
  H23      1.0000 0.69210  0.49800  0.83680  Biso   1.000  H
  H24      1.0000 0.80790  0.99800  0.66320  Biso   1.000  H
  C17      1.0000 0.34630  0.39910  0.16350  Biso   1.000  C
  C18      1.0000 0.15370  0.89910  0.33650  Biso   1.000  C
  C19      1.0000 0.65370  0.60090  0.83650  Biso   1.000  C
  C20      1.0000 0.84630  0.10090  0.66350  Biso   1.000  C
  C21      1.0000 0.15410  0.40810  0.23990  Biso   1.000  C
  C22      1.0000 0.34590  0.90810  0.26010  Biso   1.000  C
  C23      1.0000 0.84590  0.59190  0.76010  Biso   1.000  C
  C24      1.0000 0.65410  0.09190  0.73990  Biso   1.000  C
  C25      1.0000 0.06780  0.36350  0.28420  Biso   1.000  C
  C26      1.0000 0.43220  0.86350  0.21580  Biso   1.000  C
  C27      1.0000 0.93220  0.63650  0.71580  Biso   1.000  C
  C28      1.0000 0.56780  0.13650  0.78420  Biso   1.000  C
  H25      1.0000 0.10760  0.31740  0.28980  Biso   1.000  H
  H26      1.0000 0.39240  0.81740  0.21020  Biso   1.000  H
  H27      1.0000 0.89240  0.68260  0.71020  Biso   1.000  H
  H28      1.0000 0.60760  0.18260  0.78980  Biso   1.000  H
  H29      1.0000 0.98060  0.35860  0.25580  Biso   1.000  H
  H30      1.0000 0.51940  0.85860  0.24420  Biso   1.000  H
  H31      1.0000 0.01940  0.64140  0.74420  Biso   1.000  H
  H32      1.0000 0.48060  0.14140  0.75580  Biso   1.000  H
  C29      1.0000 0.86480  0.40810  0.37630  Biso   1.000  C
  C30      1.0000 0.63520  0.90810  0.12370  Biso   1.000  C
  C31      1.0000 0.13520  0.59190  0.62370  Biso   1.000  C
  C32      1.0000 0.36480  0.09190  0.87630  Biso   1.000  C
  C33      1.0000 0.81790  0.45780  0.31390  Biso   1.000  C
  C34      1.0000 0.68210  0.95780  0.18610  Biso   1.000  C
  C35      1.0000 0.18210  0.54220  0.68610  Biso   1.000  C
  C36      1.0000 0.31790  0.04220  0.81390  Biso   1.000  C
  H33      1.0000 0.84350  0.44070  0.26540  Biso   1.000  H
  H34      1.0000 0.65650  0.94070  0.23460  Biso   1.000  H
  H35      1.0000 0.15650  0.55930  0.73460  Biso   1.000  H
  H36      1.0000 0.34350  0.05930  0.76540  Biso   1.000  H
  H37      1.0000 0.85820  0.50270  0.32430  Biso   1.000  H
  H38      1.0000 0.64180  0.00270  0.17570  Biso   1.000  H
  H39      1.0000 0.14180  0.49730  0.67570  Biso   1.000  H
  H40      1.0000 0.35820  0.99730  0.82430  Biso   1.000  H
  H41      1.0000 0.72190  0.46200  0.31190  Biso   1.000  H
  H42      1.0000 0.77810  0.96200  0.18810  Biso   1.000  H
  H43      1.0000 0.27810  0.53800  0.68810  Biso   1.000  H
  H44      1.0000 0.22190  0.03800  0.81190  Biso   1.000  H
  C37      1.0000 0.84500  0.44040  0.45320  Biso   1.000  C
  C38      1.0000 0.65500  0.94040  0.04680  Biso   1.000  C
  C39      1.0000 0.15500  0.55960  0.54680  Biso   1.000  C
  C40      1.0000 0.34500  0.05960  0.95320  Biso   1.000  C
  H45      1.0000 0.75140  0.43890  0.46210  Biso   1.000  H
  H46      1.0000 0.74860  0.93890  0.03790  Biso   1.000  H
  H47      1.0000 0.24860  0.56110  0.53790  Biso   1.000  H
  H48      1.0000 0.25140  0.06110  0.96210  Biso   1.000  H
  H49      1.0000 0.87490  0.48810  0.45360  Biso   1.000  H
  H50      1.0000 0.62510  0.98810  0.04640  Biso   1.000  H
  H51      1.0000 0.12510  0.51190  0.54640  Biso   1.000  H
  H52      1.0000 0.37490  0.01190  0.95360  Biso   1.000  H
  H53      1.0000 0.89600  0.41480  0.49300  Biso   1.000  H
  H54      1.0000 0.60400  0.91480  0.00700  Biso   1.000  H
  H55      1.0000 0.10400  0.58520  0.50700  Biso   1.000  H
  H56      1.0000 0.39600  0.08520  0.99300  Biso   1.000  H
  C41      1.0000 0.79940  0.33880  0.36580  Biso   1.000  C
  C42      1.0000 0.70060  0.83880  0.13420  Biso   1.000  C
  C43      1.0000 0.20060  0.66120  0.63420  Biso   1.000  C
  C44      1.0000 0.29940  0.16120  0.86580  Biso   1.000  C
  H57      1.0000 0.70360  0.34470  0.35920  Biso   1.000  H
  H58      1.0000 0.79640  0.84470  0.14080  Biso   1.000  H
  H59      1.0000 0.29640  0.65530  0.64080  Biso   1.000  H
  H60      1.0000 0.20360  0.15530  0.85920  Biso   1.000  H
  H61      1.0000 0.82240  0.31040  0.41040  Biso   1.000  H
  H62      1.0000 0.67760  0.81040  0.08960  Biso   1.000  H
  H63      1.0000 0.17760  0.68960  0.58960  Biso   1.000  H
  H64      1.0000 0.32240  0.18960  0.91040  Biso   1.000  H
  H65      1.0000 0.82980  0.31640  0.32110  Biso   1.000  H
  H66      1.0000 0.67020  0.81640  0.17890  Biso   1.000  H
  H67      1.0000 0.17020  0.68360  0.67890  Biso   1.000  H
  H68      1.0000 0.32980  0.18360  0.82110  Biso   1.000  H
  C45      1.0000 0.06060  0.14850  0.15480  Biso   1.000  C
  C46      1.0000 0.43940  0.64850  0.34520  Biso   1.000  C
  C47      1.0000 0.93940  0.85150  0.84520  Biso   1.000  C
  C48      1.0000 0.56060  0.35150  0.65480  Biso   1.000  C
  H69      1.0000 0.07390  0.19390  0.17310  Biso   1.000  H
  H70      1.0000 0.42610  0.69390  0.32690  Biso   1.000  H
  H71      1.0000 0.92610  0.80610  0.82690  Biso   1.000  H
  H72      1.0000 0.57390  0.30610  0.67310  Biso   1.000  H
  C49      1.0000 0.93210  0.07030  0.08700  Biso   1.000  C
  C50      1.0000 0.56790  0.57030  0.41300  Biso   1.000  C
  C51      1.0000 0.06790  0.92970  0.91300  Biso   1.000  C
  C52      1.0000 0.43210  0.42970  0.58700  Biso   1.000  C
  H73      1.0000 0.85260  0.06080  0.05710  Biso   1.000  H
  H74      1.0000 0.64740  0.56080  0.44290  Biso   1.000  H
  H75      1.0000 0.14740  0.93920  0.94290  Biso   1.000  H
  H76      1.0000 0.35260  0.43920  0.55710  Biso   1.000  H
  C53      1.0000 0.01490  0.01790  0.10320  Biso   1.000  C
  C54      1.0000 0.48510  0.51790  0.39680  Biso   1.000  C
  C55      1.0000 0.98510  0.98210  0.89680  Biso   1.000  C
  C56      1.0000 0.51490  0.48210  0.60320  Biso   1.000  C
  H77      1.0000 0.99570  0.97310  0.08490  Biso   1.000  H
  H78      1.0000 0.50430  0.47310  0.41510  Biso   1.000  H
  H79      1.0000 0.00430  0.02690  0.91510  Biso   1.000  H
  H80      1.0000 0.49570  0.52690  0.58490  Biso   1.000  H
  C57      1.0000 0.13240  0.03250  0.14890  Biso   1.000  C
  C58      1.0000 0.36760  0.53250  0.35110  Biso   1.000  C
  C59      1.0000 0.86760  0.96750  0.85110  Biso   1.000  C
  C60      1.0000 0.63240  0.46750  0.64890  Biso   1.000  C
  H81      1.0000 0.19570  0.99770  0.16110  Biso   1.000  H
  H82      1.0000 0.30430  0.49770  0.33890  Biso   1.000  H
  H83      1.0000 0.80430  0.00230  0.83890  Biso   1.000  H
  H84      1.0000 0.69570  0.50230  0.66110  Biso   1.000  H
  C61      1.0000 0.15290  0.09870  0.17550  Biso   1.000  C
  C62      1.0000 0.34710  0.59870  0.32450  Biso   1.000  C
  C63      1.0000 0.84710  0.90130  0.82450  Biso   1.000  C
  C64      1.0000 0.65290  0.40130  0.67550  Biso   1.000  C
  C65      1.0000 0.32180  0.17320  0.24050  Biso   1.000  C
  C66      1.0000 0.17820  0.67320  0.25950  Biso   1.000  C
  C67      1.0000 0.67820  0.82680  0.75950  Biso   1.000  C
  C68      1.0000 0.82180  0.32680  0.74050  Biso   1.000  C
  C69      1.0000 0.45340  0.17200  0.28880  Biso   1.000  C
  C70      1.0000 0.04660  0.67200  0.21120  Biso   1.000  C
  C71      1.0000 0.54660  0.82800  0.71120  Biso   1.000  C
  C72      1.0000 0.95340  0.32800  0.78880  Biso   1.000  C
  H85      1.0000 0.47940  0.21950  0.30260  Biso   1.000  H
  H86      1.0000 0.02060  0.71950  0.19740  Biso   1.000  H
  H87      1.0000 0.52060  0.78050  0.69740  Biso   1.000  H
  H88      1.0000 0.97940  0.28050  0.80260  Biso   1.000  H
  H89      1.0000 0.52200  0.15260  0.25880  Biso   1.000  H
  H90      1.0000 0.97800  0.65260  0.24120  Biso   1.000  H
  H91      1.0000 0.47800  0.84740  0.74120  Biso   1.000  H
  H92      1.0000 0.02200  0.34740  0.75880  Biso   1.000  H
  C73      1.0000 0.62290  0.11360  0.40570  Biso   1.000  C
  C74      1.0000 0.87710  0.61360  0.09430  Biso   1.000  C
  C75      1.0000 0.37710  0.88640  0.59430  Biso   1.000  C
  C76      1.0000 0.12290  0.38640  0.90570  Biso   1.000  C
  C77      1.0000 0.69980  0.08530  0.34080  Biso   1.000  C
  C78      1.0000 0.80020  0.58530  0.15920  Biso   1.000  C
  C79      1.0000 0.30020  0.91470  0.65920  Biso   1.000  C
  C80      1.0000 0.19980  0.41470  0.84080  Biso   1.000  C
  H93      1.0000 0.70300  0.12010  0.30140  Biso   1.000  H
  H94      1.0000 0.79700  0.62010  0.19860  Biso   1.000  H
  H95      1.0000 0.29700  0.87990  0.69860  Biso   1.000  H
  H96      1.0000 0.20300  0.37990  0.80140  Biso   1.000  H
  H97      1.0000 0.65540  0.04430  0.31960  Biso   1.000  H
  H98      1.0000 0.84460  0.54430  0.18040  Biso   1.000  H
  H99      1.0000 0.34460  0.95570  0.68040  Biso   1.000  H
  H100     1.0000 0.15540  0.45570  0.81960  Biso   1.000  H
  H101     1.0000 0.78960  0.07350  0.36050  Biso   1.000  H
  H102     1.0000 0.71040  0.57350  0.13950  Biso   1.000  H
  H103     1.0000 0.21040  0.92650  0.63950  Biso   1.000  H
  H104     1.0000 0.28960  0.42650  0.86050  Biso   1.000  H
  C81      1.0000 0.62800  0.06000  0.46860  Biso   1.000  C
  C82      1.0000 0.87200  0.56000  0.03140  Biso   1.000  C
  C83      1.0000 0.37200  0.94000  0.53140  Biso   1.000  C
  C84      1.0000 0.12800  0.44000  0.96860  Biso   1.000  C
  H105     1.0000 0.71950  0.05340  0.48900  Biso   1.000  H
  H106     1.0000 0.78050  0.55340  0.01100  Biso   1.000  H
  H107     1.0000 0.28050  0.94660  0.51100  Biso   1.000  H
  H108     1.0000 0.21950  0.44660  0.98900  Biso   1.000  H
  H109     1.0000 0.59270  0.01650  0.44820  Biso   1.000  H
  H110     1.0000 0.90730  0.51650  0.05180  Biso   1.000  H
  H111     1.0000 0.40730  0.98350  0.55180  Biso   1.000  H
  H112     1.0000 0.09270  0.48350  0.94820  Biso   1.000  H
  H113     1.0000 0.57520  0.07560  0.50890  Biso   1.000  H
  H114     1.0000 0.92480  0.57560  0.99110  Biso   1.000  H
  H115     1.0000 0.42480  0.92440  0.49110  Biso   1.000  H
  H116     1.0000 0.07520  0.42440  0.00890  Biso   1.000  H
  C85      1.0000 0.67560  0.18160  0.43570  Biso   1.000  C
  C86      1.0000 0.82440  0.68160  0.06430  Biso   1.000  C
  C87      1.0000 0.32440  0.81840  0.56430  Biso   1.000  C
  C88      1.0000 0.17560  0.31840  0.93570  Biso   1.000  C
  H117     1.0000 0.61150  0.20260  0.46680  Biso   1.000  H
  H118     1.0000 0.88850  0.70260  0.03320  Biso   1.000  H
  H119     1.0000 0.38850  0.79740  0.53320  Biso   1.000  H
  H120     1.0000 0.11150  0.29740  0.96680  Biso   1.000  H
  H121     1.0000 0.69060  0.21190  0.39340  Biso   1.000  H
  H122     1.0000 0.80940  0.71190  0.10660  Biso   1.000  H
  H123     1.0000 0.30940  0.78810  0.60660  Biso   1.000  H
  H124     1.0000 0.19060  0.28810  0.89340  Biso   1.000  H
  H125     1.0000 0.75880  0.17420  0.46640  Biso   1.000  H
  H126     1.0000 0.74120  0.67420  0.03360  Biso   1.000  H
  H127     1.0000 0.24120  0.82580  0.53360  Biso   1.000  H
  H128     1.0000 0.25880  0.32580  0.96640  Biso   1.000  H
