data_image0
_cell_length_a       8.8625
_cell_length_b       9.0647
_cell_length_c       9.165
_cell_angle_alpha    68.37
_cell_angle_beta     85.31
_cell_angle_gamma    69.86

_symmetry_space_group_name_H-M    "P 1"
_symmetry_int_tables_number       1

loop_
  _symmetry_equiv_pos_as_xyz
  'x, y, z'

loop_
  _atom_site_label
  _atom_site_occupancy
  _atom_site_fract_x
  _atom_site_fract_y
  _atom_site_fract_z
  _atom_site_thermal_displace_type
  _atom_site_B_iso_or_equiv
  _atom_site_type_symbol
  Cu1      1.0000 0.15918  0.49745  0.38776  Biso   1.000  Cu
  Cu2      1.0000 0.84082  0.50255  0.61224  Biso   1.000  Cu
  F1       1.0000 0.12090  0.55010  0.88220  Biso   1.000  F
  F2       1.0000 0.87910  0.44990  0.11780  Biso   1.000  F
  F3       1.0000 0.18100  0.28770  0.93870  Biso   1.000  F
  F4       1.0000 0.81900  0.71230  0.06130  Biso   1.000  F
  F5       1.0000 0.35940  0.39460  0.93670  Biso   1.000  F
  F6       1.0000 0.64060  0.60540  0.06330  Biso   1.000  F
  O1       1.0000 0.12320  0.46350  0.61280  Biso   1.000  O
  O2       1.0000 0.87680  0.53650  0.38720  Biso   1.000  O
  O3       1.0000 0.37860  0.43950  0.63810  Biso   1.000  O
  O4       1.0000 0.62140  0.56050  0.36190  Biso   1.000  O
  O5       1.0000 0.16230  0.99150  0.24710  Biso   1.000  O
  O6       1.0000 0.83770  0.00850  0.75290  Biso   1.000  O
  N1       1.0000 0.23650  0.07550  0.30060  Biso   1.000  N
  N2       1.0000 0.76350  0.92450  0.69940  Biso   1.000  N
  N3       1.0000 0.14510  0.19340  0.35630  Biso   1.000  N
  N4       1.0000 0.85490  0.80660  0.64370  Biso   1.000  N
  N5       1.0000 0.24060  0.27130  0.37330  Biso   1.000  N
  N6       1.0000 0.75940  0.72870  0.62670  Biso   1.000  N
  C1       1.0000 0.24880  0.44040  0.68800  Biso   1.000  C
  C2       1.0000 0.75120  0.55960  0.31200  Biso   1.000  C
  C3       1.0000 0.22520  0.41890  0.86140  Biso   1.000  C
  C4       1.0000 0.77480  0.58110  0.13860  Biso   1.000  C
  C5       1.0000 0.38550  0.07770  0.27680  Biso   1.000  C
  C6       1.0000 0.61450  0.92230  0.72320  Biso   1.000  C
  C7       1.0000 0.52240  0.98820  0.21500  Biso   1.000  C
  C8       1.0000 0.47760  0.01180  0.78500  Biso   1.000  C
  H1       1.0000 0.52210  0.90300  0.18190  Biso   1.000  H
  H2       1.0000 0.47790  0.09700  0.81810  Biso   1.000  H
  C9       1.0000 0.65200  0.03300  0.20800  Biso   1.000  C
  C10      1.0000 0.34800  0.96700  0.79200  Biso   1.000  C
  H3       1.0000 0.74230  0.98080  0.16250  Biso   1.000  H
  H4       1.0000 0.25770  0.01920  0.83750  Biso   1.000  H
  C11      1.0000 0.65820  0.15560  0.26400  Biso   1.000  C
  C12      1.0000 0.34180  0.84440  0.73600  Biso   1.000  C
  H5       1.0000 0.75450  0.17590  0.26200  Biso   1.000  H
  H6       1.0000 0.24550  0.82410  0.73800  Biso   1.000  H
  C13      1.0000 0.52910  0.24440  0.32230  Biso   1.000  C
  C14      1.0000 0.47090  0.75560  0.67770  Biso   1.000  C
  H7       1.0000 0.53190  0.32740  0.35760  Biso   1.000  H
  H8       1.0000 0.46810  0.67260  0.64240  Biso   1.000  H
  C15      1.0000 0.39250  0.20310  0.32510  Biso   1.000  C
  C16      1.0000 0.60750  0.79690  0.67490  Biso   1.000  C
  C17      1.0000 0.19210  0.81820  0.35960  Biso   1.000  C
  C18      1.0000 0.80790  0.18180  0.64040  Biso   1.000  C
  H9       1.0000 0.30660  0.75710  0.38200  Biso   1.000  H
  H10      1.0000 0.69340  0.24290  0.61800  Biso   1.000  H
  H11      1.0000 0.14090  0.81820  0.45730  Biso   1.000  H
  H12      1.0000 0.85910  0.18180  0.54270  Biso   1.000  H
  C19      1.0000 0.11950  0.74290  0.27800  Biso   1.000  C
  C20      1.0000 0.88050  0.25710  0.72200  Biso   1.000  C
  H13      1.0000 0.01270  0.75000  0.29490  Biso   1.000  H
  H14      1.0000 0.98730  0.25000  0.70510  Biso   1.000  H
  C21      1.0000 0.20050  0.66350  0.17930  Biso   1.000  C
  C22      1.0000 0.79950  0.33650  0.82070  Biso   1.000  C
  H15      1.0000 0.30740  0.65450  0.16030  Biso   1.000  H
  H16      1.0000 0.69260  0.34550  0.83970  Biso   1.000  H
  H17      1.0000 0.14870  0.61850  0.13130  Biso   1.000  H
  H18      1.0000 0.85130  0.38150  0.86870  Biso   1.000  H
