data_image0
_cell_length_a       10.306
_cell_length_b       13.249
_cell_length_c       16.6
_cell_angle_alpha    90
_cell_angle_beta     98.929
_cell_angle_gamma    90

_symmetry_space_group_name_H-M    "P 1"
_symmetry_int_tables_number       1

loop_
  _symmetry_equiv_pos_as_xyz
  'x, y, z'

loop_
  _atom_site_label
  _atom_site_occupancy
  _atom_site_fract_x
  _atom_site_fract_y
  _atom_site_fract_z
  _atom_site_thermal_displace_type
  _atom_site_B_iso_or_equiv
  _atom_site_type_symbol
  Cu1      1.0000 0.04369  0.21954  0.19495  Biso   1.000  Cu
  Cu2      1.0000 0.45631  0.71954  0.30505  Biso   1.000  Cu
  Cu3      1.0000 0.95631  0.78046  0.80505  Biso   1.000  Cu
  Cu4      1.0000 0.54369  0.28046  0.69495  Biso   1.000  Cu
  F1       1.0000 0.28300  0.33030  0.46090  Biso   1.000  F
  F2       1.0000 0.21700  0.83030  0.03910  Biso   1.000  F
  F3       1.0000 0.71700  0.66970  0.53910  Biso   1.000  F
  F4       1.0000 0.78300  0.16970  0.96090  Biso   1.000  F
  F5       1.0000 0.28080  0.40780  0.33900  Biso   1.000  F
  F6       1.0000 0.21920  0.90780  0.16100  Biso   1.000  F
  F7       1.0000 0.71920  0.59220  0.66100  Biso   1.000  F
  F8       1.0000 0.78080  0.09220  0.83900  Biso   1.000  F
  F9       1.0000 0.34670  0.49130  0.45610  Biso   1.000  F
  F10      1.0000 0.15330  0.99130  0.04390  Biso   1.000  F
  F11      1.0000 0.65330  0.50870  0.54390  Biso   1.000  F
  F12      1.0000 0.84670  0.00870  0.95610  Biso   1.000  F
  F13      1.0000 0.13740  0.44860  0.42240  Biso   1.000  F
  F14      1.0000 0.36260  0.94860  0.07760  Biso   1.000  F
  F15      1.0000 0.86260  0.55140  0.57760  Biso   1.000  F
  F16      1.0000 0.63740  0.05140  0.92240  Biso   1.000  F
  O1       1.0000 0.53630  0.14770  0.17270  Biso   1.000  O
  O2       1.0000 0.96370  0.64770  0.32730  Biso   1.000  O
  O3       1.0000 0.46370  0.85230  0.82730  Biso   1.000  O
  O4       1.0000 0.03630  0.35230  0.67270  Biso   1.000  O
  O5       1.0000 0.31970  0.52260  0.10340  Biso   1.000  O
  O6       1.0000 0.18030  0.02260  0.39660  Biso   1.000  O
  O7       1.0000 0.68030  0.47740  0.89660  Biso   1.000  O
  O8       1.0000 0.81970  0.97740  0.60340  Biso   1.000  O
  O9       1.0000 0.02020  0.16210  0.07290  Biso   1.000  O
  O10      1.0000 0.47980  0.66210  0.42710  Biso   1.000  O
  O11      1.0000 0.97980  0.83790  0.92710  Biso   1.000  O
  O12      1.0000 0.52020  0.33790  0.57290  Biso   1.000  O
  H1       1.0000 0.94300  0.19110  0.03480  Biso   1.000  H
  H2       1.0000 0.55700  0.69110  0.46520  Biso   1.000  H
  H3       1.0000 0.05700  0.80890  0.96520  Biso   1.000  H
  H4       1.0000 0.44300  0.30890  0.53480  Biso   1.000  H
  H5       1.0000 0.00130  0.09220  0.07410  Biso   1.000  H
  H6       1.0000 0.49870  0.59220  0.42590  Biso   1.000  H
  H7       1.0000 0.99870  0.90780  0.92590  Biso   1.000  H
  H8       1.0000 0.50130  0.40780  0.57410  Biso   1.000  H
  N1       1.0000 0.65330  0.19650  0.20060  Biso   1.000  N
  N2       1.0000 0.84670  0.69650  0.29940  Biso   1.000  N
  N3       1.0000 0.34670  0.80350  0.79940  Biso   1.000  N
  N4       1.0000 0.15330  0.30350  0.70060  Biso   1.000  N
  N5       1.0000 0.76700  0.16670  0.17850  Biso   1.000  N
  N6       1.0000 0.73300  0.66670  0.32150  Biso   1.000  N
  N7       1.0000 0.23300  0.83330  0.82150  Biso   1.000  N
  N8       1.0000 0.26700  0.33330  0.67850  Biso   1.000  N
  N9       1.0000 0.85950  0.22240  0.21970  Biso   1.000  N
  N10      1.0000 0.64050  0.72240  0.28030  Biso   1.000  N
  N11      1.0000 0.14050  0.77760  0.78030  Biso   1.000  N
  N12      1.0000 0.35950  0.27760  0.71970  Biso   1.000  N
  N13      1.0000 0.20210  0.48510  0.12130  Biso   1.000  N
  N14      1.0000 0.29790  0.98510  0.37870  Biso   1.000  N
  N15      1.0000 0.79790  0.51490  0.87870  Biso   1.000  N
  N16      1.0000 0.70210  0.01490  0.62130  Biso   1.000  N
  N17      1.0000 0.19880  0.39090  0.15030  Biso   1.000  N
  N18      1.0000 0.30120  0.89090  0.34970  Biso   1.000  N
  N19      1.0000 0.80120  0.60910  0.84970  Biso   1.000  N
  N20      1.0000 0.69880  0.10910  0.65030  Biso   1.000  N
  N21      1.0000 0.07600  0.36810  0.15670  Biso   1.000  N
  N22      1.0000 0.42400  0.86810  0.34330  Biso   1.000  N
  N23      1.0000 0.92400  0.63190  0.84330  Biso   1.000  N
  N24      1.0000 0.57600  0.13190  0.65670  Biso   1.000  N
  C1       1.0000 0.66740  0.27010  0.25660  Biso   1.000  C
  C2       1.0000 0.83260  0.77010  0.24340  Biso   1.000  C
  C3       1.0000 0.33260  0.72990  0.74340  Biso   1.000  C
  C4       1.0000 0.16740  0.22990  0.75660  Biso   1.000  C
  C5       1.0000 0.58560  0.32620  0.29880  Biso   1.000  C
  C6       1.0000 0.91440  0.82620  0.20120  Biso   1.000  C
  C7       1.0000 0.41440  0.67380  0.70120  Biso   1.000  C
  C8       1.0000 0.08560  0.17380  0.79880  Biso   1.000  C
  H9       1.0000 0.49550  0.31530  0.28950  Biso   1.000  H
  H10      1.0000 0.00450  0.81530  0.21050  Biso   1.000  H
  H11      1.0000 0.50450  0.68470  0.71050  Biso   1.000  H
  H12      1.0000 0.99550  0.18470  0.78950  Biso   1.000  H
  C9       1.0000 0.63900  0.39850  0.35520  Biso   1.000  C
  C10      1.0000 0.86100  0.89850  0.14480  Biso   1.000  C
  C11      1.0000 0.36100  0.60150  0.64480  Biso   1.000  C
  C12      1.0000 0.13900  0.10150  0.85520  Biso   1.000  C
  H13      1.0000 0.58440  0.43590  0.38340  Biso   1.000  H
  H14      1.0000 0.91560  0.93590  0.11660  Biso   1.000  H
  H15      1.0000 0.41560  0.56410  0.61660  Biso   1.000  H
  H16      1.0000 0.08440  0.06410  0.88340  Biso   1.000  H
  C13      1.0000 0.77410  0.41480  0.36930  Biso   1.000  C
  C14      1.0000 0.72590  0.91480  0.13070  Biso   1.000  C
  C15      1.0000 0.22590  0.58520  0.63070  Biso   1.000  C
  C16      1.0000 0.27410  0.08520  0.86930  Biso   1.000  C
  H17      1.0000 0.80970  0.46310  0.40690  Biso   1.000  H
  H18      1.0000 0.69030  0.96310  0.09310  Biso   1.000  H
  H19      1.0000 0.19030  0.53690  0.59310  Biso   1.000  H
  H20      1.0000 0.30970  0.03690  0.90690  Biso   1.000  H
  C17      1.0000 0.85600  0.35880  0.32700  Biso   1.000  C
  C18      1.0000 0.64400  0.85880  0.17300  Biso   1.000  C
  C19      1.0000 0.14400  0.64120  0.67300  Biso   1.000  C
  C20      1.0000 0.35600  0.14120  0.82700  Biso   1.000  C
  H21      1.0000 0.94610  0.36960  0.33640  Biso   1.000  H
  H22      1.0000 0.55390  0.86960  0.16360  Biso   1.000  H
  H23      1.0000 0.05390  0.63040  0.66360  Biso   1.000  H
  H24      1.0000 0.44610  0.13040  0.83640  Biso   1.000  H
  C21      1.0000 0.80260  0.28640  0.27060  Biso   1.000  C
  C22      1.0000 0.69740  0.78640  0.22940  Biso   1.000  C
  C23      1.0000 0.19740  0.71360  0.72940  Biso   1.000  C
  C24      1.0000 0.30260  0.21360  0.77060  Biso   1.000  C
  C25      1.0000 0.49800  0.16960  0.08400  Biso   1.000  C
  C26      1.0000 0.00200  0.66960  0.41600  Biso   1.000  C
  C27      1.0000 0.50200  0.83040  0.91600  Biso   1.000  C
  C28      1.0000 0.99800  0.33040  0.58400  Biso   1.000  C
  H25      1.0000 0.56770  0.14860  0.05470  Biso   1.000  H
  H26      1.0000 0.93230  0.64860  0.44530  Biso   1.000  H
  H27      1.0000 0.43230  0.85140  0.94530  Biso   1.000  H
  H28      1.0000 0.06770  0.35140  0.55470  Biso   1.000  H
  H29      1.0000 0.41950  0.13190  0.06280  Biso   1.000  H
  H30      1.0000 0.08050  0.63190  0.43720  Biso   1.000  H
  H31      1.0000 0.58050  0.86810  0.93720  Biso   1.000  H
  H32      1.0000 0.91950  0.36810  0.56280  Biso   1.000  H
  C29      1.0000 0.47340  0.27700  0.07150  Biso   1.000  C
  C30      1.0000 0.02660  0.77700  0.42850  Biso   1.000  C
  C31      1.0000 0.52660  0.72300  0.92850  Biso   1.000  C
  C32      1.0000 0.97340  0.22300  0.57150  Biso   1.000  C
  H33      1.0000 0.40480  0.30550  0.09400  Biso   1.000  H
  H34      1.0000 0.09520  0.80550  0.40600  Biso   1.000  H
  H35      1.0000 0.59520  0.69450  0.90600  Biso   1.000  H
  H36      1.0000 0.90480  0.19450  0.59400  Biso   1.000  H
  C33      1.0000 0.54180  0.33640  0.03040  Biso   1.000  C
  C34      1.0000 0.95820  0.83640  0.46960  Biso   1.000  C
  C35      1.0000 0.45820  0.66360  0.96960  Biso   1.000  C
  C36      1.0000 0.04180  0.16360  0.53040  Biso   1.000  C
  H37      1.0000 0.61110  0.31030  0.00720  Biso   1.000  H
  H38      1.0000 0.88890  0.81030  0.49280  Biso   1.000  H
  H39      1.0000 0.38890  0.68970  0.99280  Biso   1.000  H
  H40      1.0000 0.11110  0.18970  0.50720  Biso   1.000  H
  H41      1.0000 0.52100  0.40430  0.02470  Biso   1.000  H
  H42      1.0000 0.97900  0.90430  0.47530  Biso   1.000  H
  H43      1.0000 0.47900  0.59570  0.97530  Biso   1.000  H
  H44      1.0000 0.02100  0.09570  0.52470  Biso   1.000  H
  C37      1.0000 0.08130  0.52470  0.10610  Biso   1.000  C
  C38      1.0000 0.41870  0.02470  0.39390  Biso   1.000  C
  C39      1.0000 0.91870  0.47530  0.89390  Biso   1.000  C
  C40      1.0000 0.58130  0.97530  0.60610  Biso   1.000  C
  C41      1.0000 0.02920  0.61590  0.07510  Biso   1.000  C
  C42      1.0000 0.47080  0.11590  0.42490  Biso   1.000  C
  C43      1.0000 0.97080  0.38410  0.92490  Biso   1.000  C
  C44      1.0000 0.52920  0.88410  0.57510  Biso   1.000  C
  H45      1.0000 0.08450  0.66570  0.06040  Biso   1.000  H
  H46      1.0000 0.41550  0.16570  0.43960  Biso   1.000  H
  H47      1.0000 0.91550  0.33430  0.93960  Biso   1.000  H
  H48      1.0000 0.58450  0.83430  0.56040  Biso   1.000  H
  C45      1.0000 0.89450  0.63260  0.06610  Biso   1.000  C
  C46      1.0000 0.60550  0.13260  0.43390  Biso   1.000  C
  C47      1.0000 0.10550  0.36740  0.93390  Biso   1.000  C
  C48      1.0000 0.39450  0.86740  0.56610  Biso   1.000  C
  H49      1.0000 0.85970  0.69350  0.04530  Biso   1.000  H
  H50      1.0000 0.64030  0.19350  0.45470  Biso   1.000  H
  H51      1.0000 0.14030  0.30650  0.95470  Biso   1.000  H
  H52      1.0000 0.35970  0.80650  0.54530  Biso   1.000  H
  C49      1.0000 0.81190  0.55800  0.08810  Biso   1.000  C
  C50      1.0000 0.68810  0.05800  0.41190  Biso   1.000  C
  C51      1.0000 0.18810  0.44200  0.91190  Biso   1.000  C
  C52      1.0000 0.31190  0.94200  0.58810  Biso   1.000  C
  H53      1.0000 0.72190  0.56920  0.08210  Biso   1.000  H
  H54      1.0000 0.77810  0.06920  0.41790  Biso   1.000  H
  H55      1.0000 0.27810  0.43080  0.91790  Biso   1.000  H
  H56      1.0000 0.22190  0.93080  0.58210  Biso   1.000  H
  C53      1.0000 0.86400  0.46680  0.11920  Biso   1.000  C
  C54      1.0000 0.63600  0.96680  0.38080  Biso   1.000  C
  C55      1.0000 0.13600  0.53320  0.88080  Biso   1.000  C
  C56      1.0000 0.36400  0.03320  0.61920  Biso   1.000  C
  H57      1.0000 0.80880  0.41700  0.13390  Biso   1.000  H
  H58      1.0000 0.69120  0.91700  0.36610  Biso   1.000  H
  H59      1.0000 0.19120  0.58300  0.86610  Biso   1.000  H
  H60      1.0000 0.30880  0.08300  0.63390  Biso   1.000  H
  C57      1.0000 0.99870  0.45010  0.12820  Biso   1.000  C
  C58      1.0000 0.50130  0.95010  0.37180  Biso   1.000  C
  C59      1.0000 0.00130  0.54990  0.87180  Biso   1.000  C
  C60      1.0000 0.49870  0.04990  0.62820  Biso   1.000  C
  C61      1.0000 0.39890  0.56520  0.17910  Biso   1.000  C
  C62      1.0000 0.10110  0.06520  0.32090  Biso   1.000  C
  C63      1.0000 0.60110  0.43480  0.82090  Biso   1.000  C
  C64      1.0000 0.89890  0.93480  0.67910  Biso   1.000  C
  H61      1.0000 0.40250  0.51690  0.22320  Biso   1.000  H
  H62      1.0000 0.09750  0.01690  0.27680  Biso   1.000  H
  H63      1.0000 0.59750  0.48310  0.77680  Biso   1.000  H
  H64      1.0000 0.90250  0.98310  0.72320  Biso   1.000  H
  H65      1.0000 0.48800  0.57770  0.16960  Biso   1.000  H
  H66      1.0000 0.01200  0.07770  0.33040  Biso   1.000  H
  H67      1.0000 0.51200  0.42230  0.83040  Biso   1.000  H
  H68      1.0000 0.98800  0.92230  0.66960  Biso   1.000  H
  C65      1.0000 0.34010  0.66060  0.20280  Biso   1.000  C
  C66      1.0000 0.15990  0.16060  0.29720  Biso   1.000  C
  C67      1.0000 0.65990  0.33940  0.79720  Biso   1.000  C
  C68      1.0000 0.84010  0.83940  0.70280  Biso   1.000  C
  H69      1.0000 0.35160  0.71880  0.17370  Biso   1.000  H
  H70      1.0000 0.14840  0.21880  0.32630  Biso   1.000  H
  H71      1.0000 0.64840  0.28120  0.82630  Biso   1.000  H
  H72      1.0000 0.85160  0.78120  0.67370  Biso   1.000  H
  C69      1.0000 0.26770  0.66580  0.26760  Biso   1.000  C
  C70      1.0000 0.23230  0.16580  0.23240  Biso   1.000  C
  C71      1.0000 0.73230  0.33420  0.73240  Biso   1.000  C
  C72      1.0000 0.76770  0.83420  0.76760  Biso   1.000  C
  H73      1.0000 0.25520  0.60830  0.29730  Biso   1.000  H
  H74      1.0000 0.24480  0.10830  0.20270  Biso   1.000  H
  H75      1.0000 0.74480  0.39170  0.70270  Biso   1.000  H
  H76      1.0000 0.75520  0.89170  0.79730  Biso   1.000  H
  H77      1.0000 0.23210  0.72690  0.28080  Biso   1.000  H
  H78      1.0000 0.26790  0.22690  0.21920  Biso   1.000  H
  H79      1.0000 0.76790  0.27310  0.71920  Biso   1.000  H
  H80      1.0000 0.73210  0.77310  0.78080  Biso   1.000  H
  B1       1.0000 0.26410  0.42010  0.41840  Biso   1.000  B
  B2       1.0000 0.23590  0.92010  0.08160  Biso   1.000  B
  B3       1.0000 0.73590  0.57990  0.58160  Biso   1.000  B
  B4       1.0000 0.76410  0.07990  0.91840  Biso   1.000  B
