data_image0
_cell_length_a       11.62
_cell_length_b       5.31
_cell_length_c       9.53
_cell_angle_alpha    90
_cell_angle_beta     98.8
_cell_angle_gamma    90

_symmetry_space_group_name_H-M    "P 1"
_symmetry_int_tables_number       1

loop_
  _symmetry_equiv_pos_as_xyz
  'x, y, z'

loop_
  _atom_site_label
  _atom_site_occupancy
  _atom_site_fract_x
  _atom_site_fract_y
  _atom_site_fract_z
  _atom_site_thermal_displace_type
  _atom_site_B_iso_or_equiv
  _atom_site_type_symbol
  Cu1      1.0000 0.25000  0.89000  0.00000  Biso   1.000  Cu
  Cu2      1.0000 0.75000  0.11000  0.00000  Biso   1.000  Cu
  N1       1.0000 0.34000  0.10800  0.14300  Biso   1.000  N
  N2       1.0000 0.16000  0.10800  0.85700  Biso   1.000  N
  N3       1.0000 0.66000  0.89200  0.85700  Biso   1.000  N
  N4       1.0000 0.84000  0.89200  0.14300  Biso   1.000  N
  N5       1.0000 0.15300  0.66900  0.10800  Biso   1.000  N
  N6       1.0000 0.34700  0.66900  0.89200  Biso   1.000  N
  N7       1.0000 0.84700  0.33100  0.89200  Biso   1.000  N
  N8       1.0000 0.65300  0.33100  0.10800  Biso   1.000  N
  C1       1.0000 0.38500  0.24700  0.22500  Biso   1.000  C
  C2       1.0000 0.11500  0.24700  0.77500  Biso   1.000  C
  C3       1.0000 0.61500  0.75300  0.77500  Biso   1.000  C
  C4       1.0000 0.88500  0.75300  0.22500  Biso   1.000  C
  C5       1.0000 0.45500  0.42700  0.33000  Biso   1.000  C
  C6       1.0000 0.04500  0.42700  0.67000  Biso   1.000  C
  C7       1.0000 0.54500  0.57300  0.67000  Biso   1.000  C
  C8       1.0000 0.95500  0.57300  0.33000  Biso   1.000  C
  C9       1.0000 0.52800  0.60700  0.26200  Biso   1.000  C
  C10      1.0000 0.97200  0.60700  0.73800  Biso   1.000  C
  C11      1.0000 0.47200  0.39300  0.73800  Biso   1.000  C
  C12      1.0000 0.02800  0.39300  0.26200  Biso   1.000  C
  C13      1.0000 0.10000  0.55000  0.17500  Biso   1.000  C
  C14      1.0000 0.40000  0.55000  0.82500  Biso   1.000  C
  C15      1.0000 0.90000  0.45000  0.82500  Biso   1.000  C
  C16      1.0000 0.60000  0.45000  0.17500  Biso   1.000  C
  O1       1.0000 0.25000  0.64100  0.50000  Biso   1.000  O
  O2       1.0000 0.75000  0.35900  0.50000  Biso   1.000  O
  O3       1.0000 0.15500  0.98500  0.48700  Biso   1.000  O
  O4       1.0000 0.34500  0.98500  0.51300  Biso   1.000  O
  O5       1.0000 0.84500  0.01500  0.51300  Biso   1.000  O
  O6       1.0000 0.65500  0.01500  0.48700  Biso   1.000  O
  N9       1.0000 0.25000  0.87700  0.50000  Biso   1.000  N
  N10      1.0000 0.75000  0.12300  0.50000  Biso   1.000  N
