data_image0
_cell_length_a       13.217
_cell_length_b       12.613
_cell_length_c       7.584
_cell_angle_alpha    90
_cell_angle_beta     90
_cell_angle_gamma    120.12

_symmetry_space_group_name_H-M    "P 1"
_symmetry_int_tables_number       1

loop_
  _symmetry_equiv_pos_as_xyz
  'x, y, z'

loop_
  _atom_site_label
  _atom_site_occupancy
  _atom_site_fract_x
  _atom_site_fract_y
  _atom_site_fract_z
  _atom_site_thermal_displace_type
  _atom_site_B_iso_or_equiv
  _atom_site_type_symbol
  Cu1      1.0000 0.50000  0.00000  0.58010  Biso   1.000  Cu
  Cu2      1.0000 0.00000  0.00000  0.08010  Biso   1.000  Cu
  Cu3      1.0000 0.50000  0.50000  0.41990  Biso   1.000  Cu
  Cu4      1.0000 0.00000  0.50000  0.91990  Biso   1.000  Cu
  Cl1      1.0000 0.97020  0.24570  0.30750  Biso   1.000  Cl
  Cl2      1.0000 0.47020  0.24570  0.80750  Biso   1.000  Cl
  Cl3      1.0000 0.97020  0.74570  0.69250  Biso   1.000  Cl
  Cl4      1.0000 0.47020  0.74570  0.19250  Biso   1.000  Cl
  O1       1.0000 0.02230  0.17210  0.31230  Biso   1.000  O
  O2       1.0000 0.52230  0.17210  0.81230  Biso   1.000  O
  O3       1.0000 0.02230  0.67210  0.68770  Biso   1.000  O
  O4       1.0000 0.52230  0.67210  0.18770  Biso   1.000  O
  O5       1.0000 0.00500  0.33000  0.45000  Biso   1.000  O
  O6       1.0000 0.50500  0.33000  0.95000  Biso   1.000  O
  O7       1.0000 0.00500  0.83000  0.55000  Biso   1.000  O
  O8       1.0000 0.50500  0.83000  0.05000  Biso   1.000  O
  O9       1.0000 0.01100  0.32400  0.16600  Biso   1.000  O
  O10      1.0000 0.51100  0.32400  0.66600  Biso   1.000  O
  O11      1.0000 0.01100  0.82400  0.83400  Biso   1.000  O
  O12      1.0000 0.51100  0.82400  0.33400  Biso   1.000  O
  O13      1.0000 0.86700  0.18400  0.29100  Biso   1.000  O
  O14      1.0000 0.36700  0.18400  0.79100  Biso   1.000  O
  O15      1.0000 0.86700  0.68400  0.70900  Biso   1.000  O
  O16      1.0000 0.36700  0.68400  0.20900  Biso   1.000  O
  N1       1.0000 0.12680  0.98920  0.18580  Biso   1.000  N
  N2       1.0000 0.62680  0.98920  0.68580  Biso   1.000  N
  N3       1.0000 0.12680  0.48920  0.81420  Biso   1.000  N
  N4       1.0000 0.62680  0.48920  0.31420  Biso   1.000  N
  N5       1.0000 0.28740  0.95500  0.29400  Biso   1.000  N
  N6       1.0000 0.78740  0.95500  0.79400  Biso   1.000  N
  N7       1.0000 0.28740  0.45500  0.70600  Biso   1.000  N
  N8       1.0000 0.78740  0.45500  0.20600  Biso   1.000  N
  C1       1.0000 0.20100  0.97200  0.23800  Biso   1.000  C
  C2       1.0000 0.70100  0.97200  0.73800  Biso   1.000  C
  C3       1.0000 0.20100  0.47200  0.76200  Biso   1.000  C
  C4       1.0000 0.70100  0.47200  0.26200  Biso   1.000  C
  C5       1.0000 0.40640  0.02490  0.22500  Biso   1.000  C
  C6       1.0000 0.90640  0.02490  0.72500  Biso   1.000  C
  C7       1.0000 0.40640  0.52490  0.77500  Biso   1.000  C
  C8       1.0000 0.90640  0.52490  0.27500  Biso   1.000  C
  C9       1.0000 0.48840  0.11070  0.36100  Biso   1.000  C
  C10      1.0000 0.98840  0.11070  0.86100  Biso   1.000  C
  C11      1.0000 0.48840  0.61070  0.63900  Biso   1.000  C
  C12      1.0000 0.98840  0.61070  0.13900  Biso   1.000  C
  C13      1.0000 0.59490  0.13170  0.38200  Biso   1.000  C
  C14      1.0000 0.09490  0.13170  0.88200  Biso   1.000  C
  C15      1.0000 0.59490  0.63170  0.61800  Biso   1.000  C
  C16      1.0000 0.09490  0.63170  0.11800  Biso   1.000  C
  C17      1.0000 0.25760  0.85770  0.43000  Biso   1.000  C
  C18      1.0000 0.75760  0.85770  0.93000  Biso   1.000  C
  C19      1.0000 0.25760  0.35770  0.57000  Biso   1.000  C
  C20      1.0000 0.75760  0.35770  0.07000  Biso   1.000  C
  C21      1.0000 0.31600  0.91750  0.60600  Biso   1.000  C
  C22      1.0000 0.81600  0.91750  0.10600  Biso   1.000  C
  C23      1.0000 0.31600  0.41750  0.39400  Biso   1.000  C
  C24      1.0000 0.81600  0.41750  0.89400  Biso   1.000  C
  C25      1.0000 0.35640  0.85800  0.71300  Biso   1.000  C
  C26      1.0000 0.85640  0.85800  0.21300  Biso   1.000  C
  C27      1.0000 0.35640  0.35800  0.28700  Biso   1.000  C
  C28      1.0000 0.85640  0.35800  0.78700  Biso   1.000  C
  H1       1.0000 0.40800  0.08500  0.16400  Biso   1.000  H
  H2       1.0000 0.90800  0.08500  0.66400  Biso   1.000  H
  H3       1.0000 0.40800  0.58500  0.83600  Biso   1.000  H
  H4       1.0000 0.90800  0.58500  0.33600  Biso   1.000  H
  H5       1.0000 0.43500  0.44500  0.84200  Biso   1.000  H
  H6       1.0000 0.93500  0.44500  0.34200  Biso   1.000  H
  H7       1.0000 0.43500  0.94500  0.15800  Biso   1.000  H
  H8       1.0000 0.93500  0.94500  0.65800  Biso   1.000  H
  H9       1.0000 0.47900  0.19800  0.39300  Biso   1.000  H
  H10      1.0000 0.97900  0.19800  0.89300  Biso   1.000  H
  H11      1.0000 0.47900  0.69800  0.60700  Biso   1.000  H
  H12      1.0000 0.97900  0.69800  0.10700  Biso   1.000  H
  H13      1.0000 0.56900  0.18700  0.48100  Biso   1.000  H
  H14      1.0000 0.06900  0.18700  0.98100  Biso   1.000  H
  H15      1.0000 0.56900  0.68700  0.51900  Biso   1.000  H
  H16      1.0000 0.06900  0.68700  0.01900  Biso   1.000  H
  H17      1.0000 0.63600  0.13000  0.28900  Biso   1.000  H
  H18      1.0000 0.13600  0.13000  0.78900  Biso   1.000  H
  H19      1.0000 0.63600  0.63000  0.71100  Biso   1.000  H
  H20      1.0000 0.13600  0.63000  0.21100  Biso   1.000  H
  H21      1.0000 0.14100  0.30900  0.55700  Biso   1.000  H
  H22      1.0000 0.64100  0.30900  0.05700  Biso   1.000  H
  H23      1.0000 0.14100  0.80900  0.44300  Biso   1.000  H
  H24      1.0000 0.64100  0.80900  0.94300  Biso   1.000  H
  H25      1.0000 0.32000  0.80800  0.44200  Biso   1.000  H
  H26      1.0000 0.82000  0.80800  0.94200  Biso   1.000  H
  H27      1.0000 0.32000  0.30800  0.55800  Biso   1.000  H
  H28      1.0000 0.82000  0.30800  0.05800  Biso   1.000  H
  H29      1.0000 0.33800  0.01800  0.66200  Biso   1.000  H
  H30      1.0000 0.83800  0.01800  0.16200  Biso   1.000  H
  H31      1.0000 0.33800  0.51800  0.33800  Biso   1.000  H
  H32      1.0000 0.83800  0.51800  0.83800  Biso   1.000  H
  H33      1.0000 0.40500  0.32800  0.34900  Biso   1.000  H
  H34      1.0000 0.90500  0.32800  0.84900  Biso   1.000  H
  H35      1.0000 0.40500  0.82800  0.65100  Biso   1.000  H
  H36      1.0000 0.90500  0.82800  0.15100  Biso   1.000  H
  H37      1.0000 0.40800  0.89900  0.83600  Biso   1.000  H
  H38      1.0000 0.90800  0.89900  0.33600  Biso   1.000  H
  H39      1.0000 0.40800  0.39900  0.16400  Biso   1.000  H
  H40      1.0000 0.90800  0.39900  0.66400  Biso   1.000  H
