data_image0
_cell_length_a       11.553
_cell_length_b       16.135
_cell_length_c       15.046
_cell_angle_alpha    90
_cell_angle_beta     108.08
_cell_angle_gamma    90

_symmetry_space_group_name_H-M    "P 1"
_symmetry_int_tables_number       1

loop_
  _symmetry_equiv_pos_as_xyz
  'x, y, z'

loop_
  _atom_site_label
  _atom_site_occupancy
  _atom_site_fract_x
  _atom_site_fract_y
  _atom_site_fract_z
  _atom_site_thermal_displace_type
  _atom_site_B_iso_or_equiv
  _atom_site_type_symbol
  Cu1      1.0000 0.65425  0.25221  0.77567  Biso   1.000  Cu
  Cu2      1.0000 0.15425  0.24779  0.77567  Biso   1.000  Cu
  Cu3      1.0000 0.34575  0.74779  0.22433  Biso   1.000  Cu
  Cu4      1.0000 0.84575  0.75221  0.22433  Biso   1.000  Cu
  N1       1.0000 0.02400  0.18630  0.67800  Biso   1.000  N
  N2       1.0000 0.52400  0.31370  0.67800  Biso   1.000  N
  N3       1.0000 0.97600  0.81370  0.32200  Biso   1.000  N
  N4       1.0000 0.47600  0.68630  0.32200  Biso   1.000  N
  N5       1.0000 0.70460  0.18250  0.68430  Biso   1.000  N
  N6       1.0000 0.20460  0.31750  0.68430  Biso   1.000  N
  N7       1.0000 0.29540  0.81750  0.31570  Biso   1.000  N
  N8       1.0000 0.79540  0.68250  0.31570  Biso   1.000  N
  N9       1.0000 0.50490  0.01500  0.24150  Biso   1.000  N
  N10      1.0000 0.00490  0.48500  0.24150  Biso   1.000  N
  N11      1.0000 0.49510  0.98500  0.75850  Biso   1.000  N
  N12      1.0000 0.99510  0.51500  0.75850  Biso   1.000  N
  N13      1.0000 0.83820  0.02630  0.22840  Biso   1.000  N
  N14      1.0000 0.33820  0.47370  0.22840  Biso   1.000  N
  N15      1.0000 0.16180  0.97370  0.77160  Biso   1.000  N
  N16      1.0000 0.66180  0.52630  0.77160  Biso   1.000  N
  N17      1.0000 0.89200  0.67730  0.13840  Biso   1.000  N
  N18      1.0000 0.39200  0.82270  0.13840  Biso   1.000  N
  N19      1.0000 0.10800  0.32270  0.86160  Biso   1.000  N
  N20      1.0000 0.60800  0.17730  0.86160  Biso   1.000  N
  N21      1.0000 0.22660  0.66640  0.15560  Biso   1.000  N
  N22      1.0000 0.72660  0.83360  0.15560  Biso   1.000  N
  N23      1.0000 0.77340  0.33360  0.84440  Biso   1.000  N
  N24      1.0000 0.27340  0.16640  0.84440  Biso   1.000  N
  C1       1.0000 0.95660  0.16200  0.61320  Biso   1.000  C
  C2       1.0000 0.45660  0.33800  0.61320  Biso   1.000  C
  C3       1.0000 0.04340  0.83800  0.38680  Biso   1.000  C
  C4       1.0000 0.54340  0.66200  0.38680  Biso   1.000  C
  C5       1.0000 0.71650  0.15790  0.61930  Biso   1.000  C
  C6       1.0000 0.21650  0.34210  0.61930  Biso   1.000  C
  C7       1.0000 0.28350  0.84210  0.38070  Biso   1.000  C
  C8       1.0000 0.78350  0.65790  0.38070  Biso   1.000  C
  C9       1.0000 0.57900  0.04170  0.30300  Biso   1.000  C
  C10      1.0000 0.07900  0.45830  0.30300  Biso   1.000  C
  C11      1.0000 0.42100  0.95830  0.69700  Biso   1.000  C
  C12      1.0000 0.92100  0.54170  0.69700  Biso   1.000  C
  C13      1.0000 0.82060  0.04680  0.29520  Biso   1.000  C
  C14      1.0000 0.32060  0.45320  0.29520  Biso   1.000  C
  C15      1.0000 0.17940  0.95320  0.70480  Biso   1.000  C
  C16      1.0000 0.67940  0.54680  0.70480  Biso   1.000  C
  C17      1.0000 0.64780  0.10070  0.45890  Biso   1.000  C
  C18      1.0000 0.14780  0.39930  0.45890  Biso   1.000  C
  C19      1.0000 0.35220  0.89930  0.54110  Biso   1.000  C
  C20      1.0000 0.85220  0.60070  0.54110  Biso   1.000  C
  C21      1.0000 0.74120  0.12860  0.53420  Biso   1.000  C
  C22      1.0000 0.24120  0.37140  0.53420  Biso   1.000  C
  C23      1.0000 0.25880  0.87140  0.46580  Biso   1.000  C
  C24      1.0000 0.75880  0.62860  0.46580  Biso   1.000  C
  C25      1.0000 0.86130  0.12970  0.53140  Biso   1.000  C
  C26      1.0000 0.36130  0.37030  0.53140  Biso   1.000  C
  C27      1.0000 0.13870  0.87030  0.46860  Biso   1.000  C
  C28      1.0000 0.63870  0.62970  0.46860  Biso   1.000  C
  C29      1.0000 0.88770  0.10410  0.45340  Biso   1.000  C
  C30      1.0000 0.38770  0.39590  0.45340  Biso   1.000  C
  C31      1.0000 0.11230  0.89590  0.54660  Biso   1.000  C
  C32      1.0000 0.61230  0.60410  0.54660  Biso   1.000  C
  C33      1.0000 0.79350  0.07590  0.37690  Biso   1.000  C
  C34      1.0000 0.29350  0.42410  0.37690  Biso   1.000  C
  C35      1.0000 0.20650  0.92410  0.62310  Biso   1.000  C
  C36      1.0000 0.70650  0.57590  0.62310  Biso   1.000  C
  C37      1.0000 0.67330  0.07360  0.38070  Biso   1.000  C
  C38      1.0000 0.17330  0.42640  0.38070  Biso   1.000  C
  C39      1.0000 0.32670  0.92640  0.61930  Biso   1.000  C
  C40      1.0000 0.82670  0.57360  0.61930  Biso   1.000  C
  C41      1.0000 0.91770  0.62750  0.09540  Biso   1.000  C
  C42      1.0000 0.41770  0.87250  0.09540  Biso   1.000  C
  C43      1.0000 0.08230  0.37250  0.90460  Biso   1.000  C
  C44      1.0000 0.58230  0.12750  0.90460  Biso   1.000  C
  C45      1.0000 0.16320  0.61760  0.11050  Biso   1.000  C
  C46      1.0000 0.66320  0.88240  0.11050  Biso   1.000  C
  C47      1.0000 0.83680  0.38240  0.88950  Biso   1.000  C
  C48      1.0000 0.33680  0.11760  0.88950  Biso   1.000  C
  C49      1.0000 0.08190  0.55680  0.05540  Biso   1.000  C
  C50      1.0000 0.58190  0.94320  0.05540  Biso   1.000  C
  C51      1.0000 0.91810  0.44320  0.94460  Biso   1.000  C
  C52      1.0000 0.41810  0.05680  0.94460  Biso   1.000  C
  C53      1.0000 0.95640  0.56280  0.04420  Biso   1.000  C
  C54      1.0000 0.45640  0.93720  0.04420  Biso   1.000  C
  C55      1.0000 0.04360  0.43720  0.95580  Biso   1.000  C
  C56      1.0000 0.54360  0.06280  0.95580  Biso   1.000  C
  C57      1.0000 0.87270  0.50640  0.98890  Biso   1.000  C
  C58      1.0000 0.37270  0.99360  0.98890  Biso   1.000  C
  C59      1.0000 0.12730  0.49360  0.01110  Biso   1.000  C
  C60      1.0000 0.62730  0.00640  0.01110  Biso   1.000  C
