data_image0
_cell_length_a       4.1577
_cell_length_b       27.9294
_cell_length_c       9.062
_cell_angle_alpha    90
_cell_angle_beta     100.708
_cell_angle_gamma    90

_symmetry_space_group_name_H-M    "P 1"
_symmetry_int_tables_number       1

loop_
  _symmetry_equiv_pos_as_xyz
  'x, y, z'

loop_
  _atom_site_label
  _atom_site_occupancy
  _atom_site_fract_x
  _atom_site_fract_y
  _atom_site_fract_z
  _atom_site_thermal_displace_type
  _atom_site_B_iso_or_equiv
  _atom_site_type_symbol
  C1       1.0000 0.82470  0.81877  0.03400  Biso   1.000  C
  C2       1.0000 0.67530  0.31877  0.46600  Biso   1.000  C
  C3       1.0000 0.17530  0.18123  0.96600  Biso   1.000  C
  C4       1.0000 0.32470  0.68123  0.53400  Biso   1.000  C
  C5       1.0000 0.67170  0.85830  0.93350  Biso   1.000  C
  C6       1.0000 0.82830  0.35830  0.56650  Biso   1.000  C
  C7       1.0000 0.32830  0.14170  0.06650  Biso   1.000  C
  C8       1.0000 0.17170  0.64170  0.43350  Biso   1.000  C
  C9       1.0000 0.52000  0.89736  0.98510  Biso   1.000  C
  C10      1.0000 0.98000  0.39736  0.51490  Biso   1.000  C
  C11      1.0000 0.48000  0.10264  0.01490  Biso   1.000  C
  C12      1.0000 0.02000  0.60264  0.48510  Biso   1.000  C
  H1       1.0000 0.50220  0.89970  0.08570  Biso   1.000  H
  H2       1.0000 0.99780  0.39970  0.41430  Biso   1.000  H
  H3       1.0000 0.49780  0.10030  0.91430  Biso   1.000  H
  H4       1.0000 0.00220  0.60030  0.58570  Biso   1.000  H
  C13      1.0000 0.39640  0.93269  0.88470  Biso   1.000  C
  C14      1.0000 0.10360  0.43269  0.61530  Biso   1.000  C
  C15      1.0000 0.60360  0.06731  0.11530  Biso   1.000  C
  C16      1.0000 0.89640  0.56731  0.38470  Biso   1.000  C
  H5       1.0000 0.29250  0.95860  0.92000  Biso   1.000  H
  H6       1.0000 0.20750  0.45860  0.58000  Biso   1.000  H
  H7       1.0000 0.70750  0.04140  0.08000  Biso   1.000  H
  H8       1.0000 0.79250  0.54140  0.42000  Biso   1.000  H
  C17      1.0000 0.56340  0.89383  0.69180  Biso   1.000  C
  C18      1.0000 0.93660  0.39383  0.80820  Biso   1.000  C
  C19      1.0000 0.43660  0.10617  0.30820  Biso   1.000  C
  C20      1.0000 0.06340  0.60617  0.19180  Biso   1.000  C
  H9       1.0000 0.57940  0.89240  0.59080  Biso   1.000  H
  H10      1.0000 0.92060  0.39240  0.90920  Biso   1.000  H
  H11      1.0000 0.42060  0.10760  0.40920  Biso   1.000  H
  H12      1.0000 0.07940  0.60760  0.09080  Biso   1.000  H
  C21      1.0000 0.69160  0.85672  0.78330  Biso   1.000  C
  C22      1.0000 0.80840  0.35672  0.71670  Biso   1.000  C
  C23      1.0000 0.30840  0.14328  0.21670  Biso   1.000  C
  C24      1.0000 0.19160  0.64328  0.28330  Biso   1.000  C
  H13      1.0000 0.79040  0.83090  0.74480  Biso   1.000  H
  H14      1.0000 0.70960  0.33090  0.75520  Biso   1.000  H
  H15      1.0000 0.20960  0.16910  0.25520  Biso   1.000  H
  H16      1.0000 0.29040  0.66910  0.24480  Biso   1.000  H
  Cu1      1.0000 0.29194  0.98940  0.60050  Biso   1.000  Cu
  Cu2      1.0000 0.20806  0.48940  0.89950  Biso   1.000  Cu
  Cu3      1.0000 0.70806  0.01060  0.39950  Biso   1.000  Cu
  Cu4      1.0000 0.79194  0.51060  0.10050  Biso   1.000  Cu
  I1       1.0000 0.83682  0.04356  0.67776  Biso   1.000  I
  I2       1.0000 0.66318  0.54356  0.82224  Biso   1.000  I
  I3       1.0000 0.16318  0.95644  0.32224  Biso   1.000  I
  I4       1.0000 0.33682  0.45644  0.17776  Biso   1.000  I
  N1       1.0000 0.41690  0.93188  0.73960  Biso   1.000  N
  N2       1.0000 0.08310  0.43188  0.76040  Biso   1.000  N
  N3       1.0000 0.58310  0.06812  0.26040  Biso   1.000  N
  N4       1.0000 0.91690  0.56812  0.23960  Biso   1.000  N
  O1       1.0000 0.77870  0.82453  0.17390  Biso   1.000  O
  O2       1.0000 0.72130  0.32453  0.32610  Biso   1.000  O
  O3       1.0000 0.22130  0.17547  0.82610  Biso   1.000  O
  O4       1.0000 0.27870  0.67547  0.67390  Biso   1.000  O
  O5       1.0000 0.97190  0.78626  0.99260  Biso   1.000  O
  O6       1.0000 0.52810  0.28626  0.50740  Biso   1.000  O
  O7       1.0000 0.02810  0.21374  0.00740  Biso   1.000  O
  O8       1.0000 0.47190  0.71374  0.49260  Biso   1.000  O
  C25      1.0000 0.93330  0.78992  0.28400  Biso   1.000  C
  C26      1.0000 0.56670  0.28992  0.21600  Biso   1.000  C
  C27      1.0000 0.06670  0.21008  0.71600  Biso   1.000  C
  C28      1.0000 0.43330  0.71008  0.78400  Biso   1.000  C
  H17      1.0000 0.15860  0.78460  0.27360  Biso   1.000  H
  H18      1.0000 0.34140  0.28460  0.22640  Biso   1.000  H
  H19      1.0000 0.84140  0.21540  0.72640  Biso   1.000  H
  H20      1.0000 0.65860  0.71540  0.77360  Biso   1.000  H
  H21      1.0000 0.81770  0.75960  0.27020  Biso   1.000  H
  H22      1.0000 0.68230  0.25960  0.22980  Biso   1.000  H
  H23      1.0000 0.18230  0.24040  0.72980  Biso   1.000  H
  H24      1.0000 0.31770  0.74040  0.77020  Biso   1.000  H
  C29      1.0000 0.92010  0.81014  0.43470  Biso   1.000  C
  C30      1.0000 0.57990  0.31014  0.06530  Biso   1.000  C
  C31      1.0000 0.07990  0.18986  0.56530  Biso   1.000  C
  C32      1.0000 0.42010  0.68986  0.93470  Biso   1.000  C
  H25      1.0000 0.02910  0.84060  0.44560  Biso   1.000  H
  H26      1.0000 0.47090  0.34060  0.05440  Biso   1.000  H
  H27      1.0000 0.97090  0.15940  0.55440  Biso   1.000  H
  H28      1.0000 0.52910  0.65940  0.94560  Biso   1.000  H
  H29      1.0000 0.02690  0.78870  0.51110  Biso   1.000  H
  H30      1.0000 0.47310  0.28870  0.98890  Biso   1.000  H
  H31      1.0000 0.97310  0.21130  0.48890  Biso   1.000  H
  H32      1.0000 0.52690  0.71130  0.01110  Biso   1.000  H
  H33      1.0000 0.69590  0.81420  0.44470  Biso   1.000  H
  H34      1.0000 0.80410  0.31420  0.05530  Biso   1.000  H
  H35      1.0000 0.30410  0.18580  0.55530  Biso   1.000  H
  H36      1.0000 0.19590  0.68580  0.94470  Biso   1.000  H
