data_image0
_cell_length_a       9.4894
_cell_length_b       9.7509
_cell_length_c       12.2041
_cell_angle_alpha    90
_cell_angle_beta     111.727
_cell_angle_gamma    90

_symmetry_space_group_name_H-M    "P 1"
_symmetry_int_tables_number       1

loop_
  _symmetry_equiv_pos_as_xyz
  'x, y, z'

loop_
  _atom_site_label
  _atom_site_occupancy
  _atom_site_fract_x
  _atom_site_fract_y
  _atom_site_fract_z
  _atom_site_thermal_displace_type
  _atom_site_B_iso_or_equiv
  _atom_site_type_symbol
  I1       1.0000 0.65145  0.06091  0.69077  Biso   1.000  I
  I2       1.0000 0.84855  0.56091  0.80923  Biso   1.000  I
  I3       1.0000 0.34855  0.93909  0.30923  Biso   1.000  I
  I4       1.0000 0.15145  0.43909  0.19077  Biso   1.000  I
  Cu1      1.0000 0.43782  0.12792  0.48325  Biso   1.000  Cu
  Cu2      1.0000 0.06218  0.62792  0.01675  Biso   1.000  Cu
  Cu3      1.0000 0.56218  0.87208  0.51675  Biso   1.000  Cu
  Cu4      1.0000 0.93782  0.37208  0.98325  Biso   1.000  Cu
  N1       1.0000 0.53920  0.27980  0.42460  Biso   1.000  N
  N2       1.0000 0.96080  0.77980  0.07540  Biso   1.000  N
  N3       1.0000 0.46080  0.72020  0.57540  Biso   1.000  N
  N4       1.0000 0.03920  0.22020  0.92460  Biso   1.000  N
  N5       1.0000 0.74320  0.35060  0.01510  Biso   1.000  N
  N6       1.0000 0.75680  0.85060  0.48490  Biso   1.000  N
  N7       1.0000 0.25680  0.64940  0.98490  Biso   1.000  N
  N8       1.0000 0.24320  0.14940  0.51510  Biso   1.000  N
  C1       1.0000 0.47450  0.31260  0.94270  Biso   1.000  C
  C2       1.0000 0.02550  0.81260  0.55730  Biso   1.000  C
  C3       1.0000 0.52550  0.68740  0.05730  Biso   1.000  C
  C4       1.0000 0.97450  0.18740  0.44270  Biso   1.000  C
  H1       1.0000 0.38513  0.29491  0.87898  Biso   1.000  H
  H2       1.0000 0.11487  0.79491  0.62102  Biso   1.000  H
  H3       1.0000 0.61487  0.70509  0.12102  Biso   1.000  H
  H4       1.0000 0.88513  0.20509  0.37898  Biso   1.000  H
  C5       1.0000 0.61480  0.37040  0.27040  Biso   1.000  C
  C6       1.0000 0.88520  0.87040  0.22960  Biso   1.000  C
  C7       1.0000 0.38520  0.62960  0.72960  Biso   1.000  C
  C8       1.0000 0.11480  0.12960  0.77040  Biso   1.000  C
  C9       1.0000 0.60690  0.35480  0.14730  Biso   1.000  C
  C10      1.0000 0.89310  0.85480  0.35270  Biso   1.000  C
  C11      1.0000 0.39310  0.64520  0.85270  Biso   1.000  C
  C12      1.0000 0.10690  0.14520  0.64730  Biso   1.000  C
  C13      1.0000 0.53510  0.27740  0.31350  Biso   1.000  C
  C14      1.0000 0.96490  0.77740  0.18650  Biso   1.000  C
  C15      1.0000 0.46490  0.72260  0.68650  Biso   1.000  C
  C16      1.0000 0.03510  0.22260  0.81350  Biso   1.000  C
  H5       1.0000 0.47640  0.21064  0.26256  Biso   1.000  H
  H6       1.0000 0.02360  0.71064  0.23744  Biso   1.000  H
  H7       1.0000 0.52360  0.78936  0.73744  Biso   1.000  H
  H8       1.0000 0.97640  0.28936  0.76256  Biso   1.000  H
  C17      1.0000 0.47290  0.32710  0.05450  Biso   1.000  C
  C18      1.0000 0.02710  0.82710  0.44550  Biso   1.000  C
  C19      1.0000 0.52710  0.67290  0.94550  Biso   1.000  C
  C20      1.0000 0.97290  0.17290  0.55450  Biso   1.000  C
  H9       1.0000 0.38265  0.31825  0.06733  Biso   1.000  H
  H10      1.0000 0.11735  0.81825  0.43267  Biso   1.000  H
  H11      1.0000 0.61735  0.68175  0.93267  Biso   1.000  H
  H12      1.0000 0.88265  0.18175  0.56733  Biso   1.000  H
  C21      1.0000 0.70130  0.47060  0.34720  Biso   1.000  C
  C22      1.0000 0.79870  0.97060  0.15280  Biso   1.000  C
  C23      1.0000 0.29870  0.52940  0.65280  Biso   1.000  C
  C24      1.0000 0.20130  0.02940  0.84720  Biso   1.000  C
  H13      1.0000 0.75597  0.53433  0.32217  Biso   1.000  H
  H14      1.0000 0.74403  0.03433  0.17783  Biso   1.000  H
  H15      1.0000 0.24403  0.46567  0.67783  Biso   1.000  H
  H16      1.0000 0.25597  0.96567  0.82217  Biso   1.000  H
  C25      1.0000 0.74010  0.36440  0.12340  Biso   1.000  C
  C26      1.0000 0.75990  0.86440  0.37660  Biso   1.000  C
  C27      1.0000 0.25990  0.63560  0.87660  Biso   1.000  C
  C28      1.0000 0.24010  0.13560  0.62340  Biso   1.000  C
  H17      1.0000 0.83090  0.38126  0.18595  Biso   1.000  H
  H18      1.0000 0.66910  0.88126  0.31405  Biso   1.000  H
  H19      1.0000 0.16910  0.61874  0.81405  Biso   1.000  H
  H20      1.0000 0.33090  0.11874  0.68595  Biso   1.000  H
  C29      1.0000 0.61070  0.32460  0.92650  Biso   1.000  C
  C30      1.0000 0.88930  0.82460  0.57350  Biso   1.000  C
  C31      1.0000 0.38930  0.67540  0.07350  Biso   1.000  C
  C32      1.0000 0.11070  0.17540  0.42650  Biso   1.000  C
  H21      1.0000 0.61064  0.31426  0.85071  Biso   1.000  H
  H22      1.0000 0.88936  0.81426  0.64929  Biso   1.000  H
  H23      1.0000 0.38936  0.68574  0.14929  Biso   1.000  H
  H24      1.0000 0.11064  0.18574  0.35071  Biso   1.000  H
  C33      1.0000 0.62380  0.37780  0.49710  Biso   1.000  C
  C34      1.0000 0.87620  0.87780  0.00290  Biso   1.000  C
  C35      1.0000 0.37620  0.62220  0.50290  Biso   1.000  C
  C36      1.0000 0.12380  0.12220  0.99710  Biso   1.000  C
  H25      1.0000 0.62779  0.38103  0.57437  Biso   1.000  H
  H26      1.0000 0.87221  0.88103  0.92563  Biso   1.000  H
  H27      1.0000 0.37221  0.61897  0.42563  Biso   1.000  H
  H28      1.0000 0.12779  0.11897  0.07437  Biso   1.000  H
  C37      1.0000 0.70450  0.47350  0.46120  Biso   1.000  C
  C38      1.0000 0.79550  0.97350  0.03880  Biso   1.000  C
  C39      1.0000 0.29550  0.52650  0.53880  Biso   1.000  C
  C40      1.0000 0.20450  0.02650  0.96120  Biso   1.000  C
  H29      1.0000 0.76101  0.54002  0.51370  Biso   1.000  H
  H30      1.0000 0.73899  0.04002  0.98630  Biso   1.000  H
  H31      1.0000 0.23899  0.45998  0.48630  Biso   1.000  H
  H32      1.0000 0.26101  0.95998  0.01370  Biso   1.000  H
