data_image0
_cell_length_a       12.4347
_cell_length_b       10.887
_cell_length_c       25.682
_cell_angle_alpha    90
_cell_angle_beta     100.22
_cell_angle_gamma    90

_symmetry_space_group_name_H-M    "P 1"
_symmetry_int_tables_number       1

loop_
  _symmetry_equiv_pos_as_xyz
  'x, y, z'

loop_
  _atom_site_label
  _atom_site_occupancy
  _atom_site_fract_x
  _atom_site_fract_y
  _atom_site_fract_z
  _atom_site_thermal_displace_type
  _atom_site_B_iso_or_equiv
  _atom_site_type_symbol
  Cu1      1.0000 0.42809  0.96475  0.71136  Biso   1.000  Cu
  Cu2      1.0000 0.57191  0.46475  0.78864  Biso   1.000  Cu
  Cu3      1.0000 0.57191  0.03525  0.28864  Biso   1.000  Cu
  Cu4      1.0000 0.42809  0.53525  0.21136  Biso   1.000  Cu
  P1       1.0000 0.25865  0.00593  0.72521  Biso   1.000  P
  P2       1.0000 0.74135  0.50593  0.77479  Biso   1.000  P
  P3       1.0000 0.74135  0.99407  0.27479  Biso   1.000  P
  P4       1.0000 0.25865  0.49407  0.22521  Biso   1.000  P
  P5       1.0000 0.46313  0.99490  0.63012  Biso   1.000  P
  P6       1.0000 0.53687  0.49490  0.86988  Biso   1.000  P
  P7       1.0000 0.53687  0.00510  0.36988  Biso   1.000  P
  P8       1.0000 0.46313  0.50510  0.13012  Biso   1.000  P
  O1       1.0000 0.23397  0.92830  0.61673  Biso   1.000  O
  O2       1.0000 0.76603  0.42830  0.88327  Biso   1.000  O
  O3       1.0000 0.76603  0.07170  0.38327  Biso   1.000  O
  O4       1.0000 0.23397  0.57170  0.11673  Biso   1.000  O
  C1       1.0000 0.60700  0.98900  0.62323  Biso   1.000  C
  C2       1.0000 0.39300  0.48900  0.87677  Biso   1.000  C
  C3       1.0000 0.39300  0.01100  0.37677  Biso   1.000  C
  C4       1.0000 0.60700  0.51100  0.12323  Biso   1.000  C
  C5       1.0000 0.68290  0.95220  0.66701  Biso   1.000  C
  C6       1.0000 0.31710  0.45220  0.83299  Biso   1.000  C
  C7       1.0000 0.31710  0.04780  0.33299  Biso   1.000  C
  C8       1.0000 0.68290  0.54780  0.16701  Biso   1.000  C
  C9       1.0000 0.79350  0.94970  0.66485  Biso   1.000  C
  C10      1.0000 0.20650  0.44970  0.83515  Biso   1.000  C
  C11      1.0000 0.20650  0.05030  0.33515  Biso   1.000  C
  C12      1.0000 0.79350  0.55030  0.16485  Biso   1.000  C
  C13      1.0000 0.83000  0.98440  0.61852  Biso   1.000  C
  C14      1.0000 0.17000  0.48440  0.88148  Biso   1.000  C
  C15      1.0000 0.17000  0.01560  0.38148  Biso   1.000  C
  C16      1.0000 0.83000  0.51560  0.11852  Biso   1.000  C
  C17      1.0000 0.75390  0.02240  0.57500  Biso   1.000  C
  C18      1.0000 0.24610  0.52240  0.92500  Biso   1.000  C
  C19      1.0000 0.24610  0.97760  0.42500  Biso   1.000  C
  C20      1.0000 0.75390  0.47760  0.07500  Biso   1.000  C
  C21      1.0000 0.64350  0.02540  0.57733  Biso   1.000  C
  C22      1.0000 0.35650  0.52540  0.92267  Biso   1.000  C
  C23      1.0000 0.35650  0.97460  0.42267  Biso   1.000  C
  C24      1.0000 0.64350  0.47460  0.07733  Biso   1.000  C
  C25      1.0000 0.42030  0.14420  0.60013  Biso   1.000  C
  C26      1.0000 0.57970  0.64420  0.89987  Biso   1.000  C
  C27      1.0000 0.57970  0.85580  0.39987  Biso   1.000  C
  C28      1.0000 0.42030  0.35580  0.10013  Biso   1.000  C
  C29      1.0000 0.34380  0.15740  0.55480  Biso   1.000  C
  C30      1.0000 0.65620  0.65740  0.94520  Biso   1.000  C
  C31      1.0000 0.65620  0.84260  0.44520  Biso   1.000  C
  C32      1.0000 0.34380  0.34260  0.05480  Biso   1.000  C
  C33      1.0000 0.31430  0.27330  0.53516  Biso   1.000  C
  C34      1.0000 0.68570  0.77330  0.96484  Biso   1.000  C
  C35      1.0000 0.68570  0.72670  0.46484  Biso   1.000  C
  C36      1.0000 0.31430  0.22670  0.03516  Biso   1.000  C
  C37      1.0000 0.36090  0.37750  0.56112  Biso   1.000  C
  C38      1.0000 0.63910  0.87750  0.93888  Biso   1.000  C
  C39      1.0000 0.63910  0.62250  0.43888  Biso   1.000  C
  C40      1.0000 0.36090  0.12250  0.06112  Biso   1.000  C
  C41      1.0000 0.43880  0.36340  0.60747  Biso   1.000  C
  C42      1.0000 0.56120  0.86340  0.89253  Biso   1.000  C
  C43      1.0000 0.56120  0.63660  0.39253  Biso   1.000  C
  C44      1.0000 0.43880  0.13660  0.10747  Biso   1.000  C
  C45      1.0000 0.46710  0.24770  0.62666  Biso   1.000  C
  C46      1.0000 0.53290  0.74770  0.87334  Biso   1.000  C
  C47      1.0000 0.53290  0.75230  0.37334  Biso   1.000  C
  C48      1.0000 0.46710  0.25230  0.12666  Biso   1.000  C
  C49      1.0000 0.39410  0.88390  0.58200  Biso   1.000  C
  C50      1.0000 0.60590  0.38390  0.91800  Biso   1.000  C
  C51      1.0000 0.60590  0.11610  0.41800  Biso   1.000  C
  C52      1.0000 0.39410  0.61610  0.08200  Biso   1.000  C
  C53      1.0000 0.44600  0.81280  0.54844  Biso   1.000  C
  C54      1.0000 0.55400  0.31280  0.95156  Biso   1.000  C
  C55      1.0000 0.55400  0.18720  0.45156  Biso   1.000  C
  C56      1.0000 0.44600  0.68720  0.04844  Biso   1.000  C
  C57      1.0000 0.38760  0.72390  0.51660  Biso   1.000  C
  C58      1.0000 0.61240  0.22390  0.98340  Biso   1.000  C
  C59      1.0000 0.61240  0.27610  0.48340  Biso   1.000  C
  C60      1.0000 0.38760  0.77610  0.01660  Biso   1.000  C
  C61      1.0000 0.27940  0.70160  0.51802  Biso   1.000  C
  C62      1.0000 0.72060  0.20160  0.98198  Biso   1.000  C
  C63      1.0000 0.72060  0.29840  0.48198  Biso   1.000  C
  C64      1.0000 0.27940  0.79840  0.01802  Biso   1.000  C
  C65      1.0000 0.22390  0.76850  0.55106  Biso   1.000  C
  C66      1.0000 0.77610  0.26850  0.94894  Biso   1.000  C
  C67      1.0000 0.77610  0.23150  0.44894  Biso   1.000  C
  C68      1.0000 0.22390  0.73150  0.05106  Biso   1.000  C
  C69      1.0000 0.28400  0.85910  0.58247  Biso   1.000  C
  C70      1.0000 0.71600  0.35910  0.91753  Biso   1.000  C
  C71      1.0000 0.71600  0.14090  0.41753  Biso   1.000  C
  C72      1.0000 0.28400  0.64090  0.08247  Biso   1.000  C
  C73      1.0000 0.10380  0.75290  0.55529  Biso   1.000  C
  C74      1.0000 0.89620  0.25290  0.94471  Biso   1.000  C
  C75      1.0000 0.89620  0.24710  0.44471  Biso   1.000  C
  C76      1.0000 0.10380  0.74710  0.05529  Biso   1.000  C
  C77      1.0000 0.06000  0.62770  0.53502  Biso   1.000  C
  C78      1.0000 0.94000  0.12770  0.96498  Biso   1.000  C
  C79      1.0000 0.94000  0.37230  0.46498  Biso   1.000  C
  C80      1.0000 0.06000  0.87230  0.03502  Biso   1.000  C
  C81      1.0000 0.03580  0.85410  0.52167  Biso   1.000  C
  C82      1.0000 0.96420  0.35410  0.97833  Biso   1.000  C
  C83      1.0000 0.96420  0.14590  0.47833  Biso   1.000  C
  C84      1.0000 0.03580  0.64590  0.02167  Biso   1.000  C
  C85      1.0000 0.16030  0.86240  0.64121  Biso   1.000  C
  C86      1.0000 0.83970  0.36240  0.85879  Biso   1.000  C
  C87      1.0000 0.83970  0.13760  0.35879  Biso   1.000  C
  C88      1.0000 0.16030  0.63760  0.14121  Biso   1.000  C
  C89      1.0000 0.09540  0.77340  0.61346  Biso   1.000  C
  C90      1.0000 0.90460  0.27340  0.88654  Biso   1.000  C
  C91      1.0000 0.90460  0.22660  0.38654  Biso   1.000  C
  C92      1.0000 0.09540  0.72660  0.11346  Biso   1.000  C
  C93      1.0000 0.02370  0.71050  0.64010  Biso   1.000  C
  C94      1.0000 0.97630  0.21050  0.85990  Biso   1.000  C
  C95      1.0000 0.97630  0.28950  0.35990  Biso   1.000  C
  C96      1.0000 0.02370  0.78950  0.14010  Biso   1.000  C
  C97      1.0000 0.01880  0.73880  0.69249  Biso   1.000  C
  C98      1.0000 0.98120  0.23880  0.80751  Biso   1.000  C
  C99      1.0000 0.98120  0.26120  0.30751  Biso   1.000  C
  C100     1.0000 0.01880  0.76120  0.19249  Biso   1.000  C
  C101     1.0000 0.08530  0.82960  0.71921  Biso   1.000  C
  C102     1.0000 0.91470  0.32960  0.78079  Biso   1.000  C
  C103     1.0000 0.91470  0.17040  0.28079  Biso   1.000  C
  C104     1.0000 0.08530  0.67040  0.21921  Biso   1.000  C
  C105     1.0000 0.15840  0.89320  0.69385  Biso   1.000  C
  C106     1.0000 0.84160  0.39320  0.80615  Biso   1.000  C
  C107     1.0000 0.84160  0.10680  0.30615  Biso   1.000  C
  C108     1.0000 0.15840  0.60680  0.19385  Biso   1.000  C
  C109     1.0000 0.19420  0.15070  0.70038  Biso   1.000  C
  C110     1.0000 0.80580  0.65070  0.79962  Biso   1.000  C
  C111     1.0000 0.80580  0.84930  0.29962  Biso   1.000  C
  C112     1.0000 0.19420  0.34930  0.20038  Biso   1.000  C
  C113     1.0000 0.26150  0.25420  0.70006  Biso   1.000  C
  C114     1.0000 0.73850  0.75420  0.79994  Biso   1.000  C
  C115     1.0000 0.73850  0.74580  0.29994  Biso   1.000  C
  C116     1.0000 0.26150  0.24580  0.20006  Biso   1.000  C
  C117     1.0000 0.21560  0.36630  0.68226  Biso   1.000  C
  C118     1.0000 0.78440  0.86630  0.81774  Biso   1.000  C
  C119     1.0000 0.78440  0.63370  0.31774  Biso   1.000  C
  C120     1.0000 0.21560  0.13370  0.18226  Biso   1.000  C
  C121     1.0000 0.10510  0.37570  0.66421  Biso   1.000  C
  C122     1.0000 0.89490  0.87570  0.83579  Biso   1.000  C
  C123     1.0000 0.89490  0.62430  0.33579  Biso   1.000  C
  C124     1.0000 0.10510  0.12430  0.16421  Biso   1.000  C
  C125     1.0000 0.03810  0.27170  0.66385  Biso   1.000  C
  C126     1.0000 0.96190  0.77170  0.83615  Biso   1.000  C
  C127     1.0000 0.96190  0.72830  0.33615  Biso   1.000  C
  C128     1.0000 0.03810  0.22830  0.16385  Biso   1.000  C
  C129     1.0000 0.08290  0.16120  0.68187  Biso   1.000  C
  C130     1.0000 0.91710  0.66120  0.81813  Biso   1.000  C
  C131     1.0000 0.91710  0.83880  0.31813  Biso   1.000  C
  C132     1.0000 0.08290  0.33880  0.18187  Biso   1.000  C
  C133     1.0000 0.24930  0.00650  0.79543  Biso   1.000  C
  C134     1.0000 0.75070  0.50650  0.70457  Biso   1.000  C
  C135     1.0000 0.75070  0.99350  0.20457  Biso   1.000  C
  C136     1.0000 0.24930  0.49350  0.29543  Biso   1.000  C
  C137     1.0000 0.26370  0.89800  0.82491  Biso   1.000  C
  C138     1.0000 0.73630  0.39800  0.67509  Biso   1.000  C
  C139     1.0000 0.73630  0.10200  0.17509  Biso   1.000  C
  C140     1.0000 0.26370  0.60200  0.32491  Biso   1.000  C
  C141     1.0000 0.27390  0.89990  0.87953  Biso   1.000  C
  C142     1.0000 0.72610  0.39990  0.62047  Biso   1.000  C
  C143     1.0000 0.72610  0.10010  0.12047  Biso   1.000  C
  C144     1.0000 0.27390  0.60010  0.37953  Biso   1.000  C
  C145     1.0000 0.27310  0.01140  0.90599  Biso   1.000  C
  C146     1.0000 0.72690  0.51140  0.59401  Biso   1.000  C
  C147     1.0000 0.72690  0.98860  0.09401  Biso   1.000  C
  C148     1.0000 0.27310  0.48860  0.40599  Biso   1.000  C
  C149     1.0000 0.25960  0.11910  0.87726  Biso   1.000  C
  C150     1.0000 0.74040  0.61910  0.62274  Biso   1.000  C
  C151     1.0000 0.74040  0.88090  0.12274  Biso   1.000  C
  C152     1.0000 0.25960  0.38090  0.37726  Biso   1.000  C
  C153     1.0000 0.24770  0.11670  0.82249  Biso   1.000  C
  C154     1.0000 0.75230  0.61670  0.67751  Biso   1.000  C
  C155     1.0000 0.75230  0.88330  0.17751  Biso   1.000  C
  C156     1.0000 0.24770  0.38330  0.32249  Biso   1.000  C
  O5       1.0000 0.54380  0.04332  0.76930  Biso   1.000  O
  O6       1.0000 0.45620  0.54332  0.73070  Biso   1.000  O
  O7       1.0000 0.45620  0.95668  0.23070  Biso   1.000  O
  O8       1.0000 0.54380  0.45668  0.26930  Biso   1.000  O
  O9       1.0000 0.54210  0.27450  0.76570  Biso   1.000  O
  O10      1.0000 0.45790  0.77450  0.73430  Biso   1.000  O
  O11      1.0000 0.45790  0.72550  0.23430  Biso   1.000  O
  O12      1.0000 0.54210  0.22550  0.26570  Biso   1.000  O
  F1       1.0000 0.49400  0.16740  0.84010  Biso   1.000  F
  F2       1.0000 0.50600  0.66740  0.65990  Biso   1.000  F
  F3       1.0000 0.50600  0.83260  0.15990  Biso   1.000  F
  F4       1.0000 0.49400  0.33260  0.34010  Biso   1.000  F
  F5       1.0000 0.68060  0.16250  0.82813  Biso   1.000  F
  F6       1.0000 0.31940  0.66250  0.67187  Biso   1.000  F
  F7       1.0000 0.31940  0.83750  0.17187  Biso   1.000  F
  F8       1.0000 0.68060  0.33750  0.32813  Biso   1.000  F
  P9       1.0000 0.56550  0.16340  0.79334  Biso   1.000  P
  P10      1.0000 0.43450  0.66340  0.70666  Biso   1.000  P
  P11      1.0000 0.43450  0.83660  0.20666  Biso   1.000  P
  P12      1.0000 0.56550  0.33660  0.29334  Biso   1.000  P
  H1       1.0000 0.65860  0.92890  0.69860  Biso   1.000  H
  H2       1.0000 0.34140  0.42890  0.80140  Biso   1.000  H
  H3       1.0000 0.34140  0.07110  0.30140  Biso   1.000  H
  H4       1.0000 0.65860  0.57110  0.19860  Biso   1.000  H
  H5       1.0000 0.84480  0.92500  0.69500  Biso   1.000  H
  H6       1.0000 0.15520  0.42500  0.80500  Biso   1.000  H
  H7       1.0000 0.15520  0.07500  0.30500  Biso   1.000  H
  H8       1.0000 0.84480  0.57500  0.19500  Biso   1.000  H
  H9       1.0000 0.90550  0.98070  0.61650  Biso   1.000  H
  H10      1.0000 0.09450  0.48070  0.88350  Biso   1.000  H
  H11      1.0000 0.09450  0.01930  0.38350  Biso   1.000  H
  H12      1.0000 0.90550  0.51930  0.11650  Biso   1.000  H
  H13      1.0000 0.77810  0.04720  0.54360  Biso   1.000  H
  H14      1.0000 0.22190  0.54720  0.95640  Biso   1.000  H
  H15      1.0000 0.22190  0.95280  0.45640  Biso   1.000  H
  H16      1.0000 0.77810  0.45280  0.04360  Biso   1.000  H
  H17      1.0000 0.59240  0.05230  0.54750  Biso   1.000  H
  H18      1.0000 0.40760  0.55230  0.95250  Biso   1.000  H
  H19      1.0000 0.40760  0.94770  0.45250  Biso   1.000  H
  H20      1.0000 0.59240  0.44770  0.04750  Biso   1.000  H
  H21      1.0000 0.31180  0.08690  0.53650  Biso   1.000  H
  H22      1.0000 0.68820  0.58690  0.96350  Biso   1.000  H
  H23      1.0000 0.68820  0.91310  0.46350  Biso   1.000  H
  H24      1.0000 0.31180  0.41310  0.03650  Biso   1.000  H
  H25      1.0000 0.26110  0.28200  0.50390  Biso   1.000  H
  H26      1.0000 0.73890  0.78200  0.99610  Biso   1.000  H
  H27      1.0000 0.73890  0.71800  0.49610  Biso   1.000  H
  H28      1.0000 0.26110  0.21800  0.00390  Biso   1.000  H
  H29      1.0000 0.34010  0.45710  0.54790  Biso   1.000  H
  H30      1.0000 0.65990  0.95710  0.95210  Biso   1.000  H
  H31      1.0000 0.65990  0.54290  0.45210  Biso   1.000  H
  H32      1.0000 0.34010  0.04290  0.04790  Biso   1.000  H
  H33      1.0000 0.47220  0.43380  0.62530  Biso   1.000  H
  H34      1.0000 0.52780  0.93380  0.87470  Biso   1.000  H
  H35      1.0000 0.52780  0.56620  0.37470  Biso   1.000  H
  H36      1.0000 0.47220  0.06620  0.12530  Biso   1.000  H
  H37      1.0000 0.51910  0.23840  0.65830  Biso   1.000  H
  H38      1.0000 0.48090  0.73840  0.84170  Biso   1.000  H
  H39      1.0000 0.48090  0.76160  0.34170  Biso   1.000  H
  H40      1.0000 0.51910  0.26160  0.15830  Biso   1.000  H
  H41      1.0000 0.52100  0.82610  0.54720  Biso   1.000  H
  H42      1.0000 0.47900  0.32610  0.95280  Biso   1.000  H
  H43      1.0000 0.47900  0.17390  0.45280  Biso   1.000  H
  H44      1.0000 0.52100  0.67390  0.04720  Biso   1.000  H
  H45      1.0000 0.42370  0.67690  0.49370  Biso   1.000  H
  H46      1.0000 0.57630  0.17690  0.00630  Biso   1.000  H
  H47      1.0000 0.57630  0.32310  0.50630  Biso   1.000  H
  H48      1.0000 0.42370  0.82310  0.99370  Biso   1.000  H
  H49      1.0000 0.24190  0.63940  0.49600  Biso   1.000  H
  H50      1.0000 0.75810  0.13940  0.00400  Biso   1.000  H
  H51      1.0000 0.75810  0.36060  0.50400  Biso   1.000  H
  H52      1.0000 0.24190  0.86060  0.99600  Biso   1.000  H
  H53      1.0000 0.98530  0.62100  0.53820  Biso   1.000  H
  H54      1.0000 0.01470  0.12100  0.96180  Biso   1.000  H
  H55      1.0000 0.01470  0.37900  0.46180  Biso   1.000  H
  H56      1.0000 0.98530  0.87900  0.03820  Biso   1.000  H
  H57      1.0000 0.10090  0.56510  0.55540  Biso   1.000  H
  H58      1.0000 0.89910  0.06510  0.94460  Biso   1.000  H
  H59      1.0000 0.89910  0.43490  0.44460  Biso   1.000  H
  H60      1.0000 0.10090  0.93490  0.05540  Biso   1.000  H
  H61      1.0000 0.06690  0.61880  0.49890  Biso   1.000  H
  H62      1.0000 0.93310  0.11880  0.00110  Biso   1.000  H
  H63      1.0000 0.93310  0.38120  0.50110  Biso   1.000  H
  H64      1.0000 0.06690  0.88120  0.99890  Biso   1.000  H
  H65      1.0000 0.96080  0.84550  0.52400  Biso   1.000  H
  H66      1.0000 0.03920  0.34550  0.97600  Biso   1.000  H
  H67      1.0000 0.03920  0.15450  0.47600  Biso   1.000  H
  H68      1.0000 0.96080  0.65450  0.02400  Biso   1.000  H
  H69      1.0000 0.06100  0.93270  0.53450  Biso   1.000  H
  H70      1.0000 0.93900  0.43270  0.96550  Biso   1.000  H
  H71      1.0000 0.93900  0.06730  0.46550  Biso   1.000  H
  H72      1.0000 0.06100  0.56730  0.03450  Biso   1.000  H
  H73      1.0000 0.04450  0.84610  0.48580  Biso   1.000  H
  H74      1.0000 0.95550  0.34610  0.01420  Biso   1.000  H
  H75      1.0000 0.95550  0.15390  0.51420  Biso   1.000  H
  H76      1.0000 0.04450  0.65390  0.98580  Biso   1.000  H
  H77      1.0000 0.97810  0.64770  0.62250  Biso   1.000  H
  H78      1.0000 0.02190  0.14770  0.87750  Biso   1.000  H
  H79      1.0000 0.02190  0.35230  0.37750  Biso   1.000  H
  H80      1.0000 0.97810  0.85230  0.12250  Biso   1.000  H
  H81      1.0000 0.96970  0.69570  0.71030  Biso   1.000  H
  H82      1.0000 0.03030  0.19570  0.78970  Biso   1.000  H
  H83      1.0000 0.03030  0.30430  0.28970  Biso   1.000  H
  H84      1.0000 0.96970  0.80430  0.21030  Biso   1.000  H
  H85      1.0000 0.08060  0.84900  0.75480  Biso   1.000  H
  H86      1.0000 0.91940  0.34900  0.74520  Biso   1.000  H
  H87      1.0000 0.91940  0.15100  0.24520  Biso   1.000  H
  H88      1.0000 0.08060  0.65100  0.25480  Biso   1.000  H
  H89      1.0000 0.33820  0.24750  0.71180  Biso   1.000  H
  H90      1.0000 0.66180  0.74750  0.78820  Biso   1.000  H
  H91      1.0000 0.66180  0.75250  0.28820  Biso   1.000  H
  H92      1.0000 0.33820  0.25250  0.21180  Biso   1.000  H
  H93      1.0000 0.26030  0.43720  0.68290  Biso   1.000  H
  H94      1.0000 0.73970  0.93720  0.81710  Biso   1.000  H
  H95      1.0000 0.73970  0.56280  0.31710  Biso   1.000  H
  H96      1.0000 0.26030  0.06280  0.18290  Biso   1.000  H
  H97      1.0000 0.07420  0.45220  0.65170  Biso   1.000  H
  H98      1.0000 0.92580  0.95220  0.84830  Biso   1.000  H
  H99      1.0000 0.92580  0.54780  0.34830  Biso   1.000  H
  H100     1.0000 0.07420  0.04780  0.15170  Biso   1.000  H
  H101     1.0000 0.96180  0.27880  0.65110  Biso   1.000  H
  H102     1.0000 0.03820  0.77880  0.84890  Biso   1.000  H
  H103     1.0000 0.03820  0.72120  0.34890  Biso   1.000  H
  H104     1.0000 0.96180  0.22120  0.15110  Biso   1.000  H
  H105     1.0000 0.03750  0.09100  0.68180  Biso   1.000  H
  H106     1.0000 0.96250  0.59100  0.81820  Biso   1.000  H
  H107     1.0000 0.96250  0.90900  0.31820  Biso   1.000  H
  H108     1.0000 0.03750  0.40900  0.18180  Biso   1.000  H
  H109     1.0000 0.26680  0.82170  0.80720  Biso   1.000  H
  H110     1.0000 0.73320  0.32170  0.69280  Biso   1.000  H
  H111     1.0000 0.73320  0.17830  0.19280  Biso   1.000  H
  H112     1.0000 0.26680  0.67830  0.30720  Biso   1.000  H
  H113     1.0000 0.28090  0.82530  0.89900  Biso   1.000  H
  H114     1.0000 0.71910  0.32530  0.60100  Biso   1.000  H
  H115     1.0000 0.71910  0.17470  0.10100  Biso   1.000  H
  H116     1.0000 0.28090  0.67470  0.39900  Biso   1.000  H
  H117     1.0000 0.28190  0.01280  0.94350  Biso   1.000  H
  H118     1.0000 0.71810  0.51280  0.55650  Biso   1.000  H
  H119     1.0000 0.71810  0.98720  0.05650  Biso   1.000  H
  H120     1.0000 0.28190  0.48720  0.44350  Biso   1.000  H
  H121     1.0000 0.25910  0.19540  0.89520  Biso   1.000  H
  H122     1.0000 0.74090  0.69540  0.60480  Biso   1.000  H
  H123     1.0000 0.74090  0.80460  0.10480  Biso   1.000  H
  H124     1.0000 0.25910  0.30460  0.39520  Biso   1.000  H
  H125     1.0000 0.23730  0.19140  0.80310  Biso   1.000  H
  H126     1.0000 0.76270  0.69140  0.69690  Biso   1.000  H
  H127     1.0000 0.76270  0.80860  0.19690  Biso   1.000  H
  H128     1.0000 0.23730  0.30860  0.30310  Biso   1.000  H
  P13      1.0000 0.59060  0.15910  0.78290  Biso   1.000  P
  P14      1.0000 0.40940  0.65910  0.71710  Biso   1.000  P
  P15      1.0000 0.40940  0.84090  0.21710  Biso   1.000  P
  P16      1.0000 0.59060  0.34090  0.28290  Biso   1.000  P
  F9       1.0000 0.64350  0.16410  0.84277  Biso   1.000  F
  F10      1.0000 0.35650  0.66410  0.65723  Biso   1.000  F
  F11      1.0000 0.35650  0.83590  0.15723  Biso   1.000  F
  F12      1.0000 0.64350  0.33590  0.34277  Biso   1.000  F
  F13      1.0000 0.70490  0.16000  0.75750  Biso   1.000  F
  F14      1.0000 0.29510  0.66000  0.74250  Biso   1.000  F
  F15      1.0000 0.29510  0.84000  0.24250  Biso   1.000  F
  F16      1.0000 0.70490  0.34000  0.25750  Biso   1.000  F
