data_image0
_cell_length_a       3.9066
_cell_length_b       15.1047
_cell_length_c       11.105
_cell_angle_alpha    90
_cell_angle_beta     95.149
_cell_angle_gamma    90

_symmetry_space_group_name_H-M    "P 1"
_symmetry_int_tables_number       1

loop_
  _symmetry_equiv_pos_as_xyz
  'x, y, z'

loop_
  _atom_site_label
  _atom_site_occupancy
  _atom_site_fract_x
  _atom_site_fract_y
  _atom_site_fract_z
  _atom_site_thermal_displace_type
  _atom_site_B_iso_or_equiv
  _atom_site_type_symbol
  Br1      1.0000 0.19561  0.49650  0.33505  Biso   1.000  Br
  Br2      1.0000 0.80439  0.99650  0.16495  Biso   1.000  Br
  Br3      1.0000 0.80439  0.50350  0.66495  Biso   1.000  Br
  Br4      1.0000 0.19561  0.00350  0.83505  Biso   1.000  Br
  Cu1      1.0000 0.26710  0.56165  0.54908  Biso   1.000  Cu
  Cu2      1.0000 0.73290  0.06165  0.95092  Biso   1.000  Cu
  Cu3      1.0000 0.73290  0.43835  0.45092  Biso   1.000  Cu
  Cu4      1.0000 0.26710  0.93835  0.04908  Biso   1.000  Cu
  N1       1.0000 0.31030  0.69310  0.52750  Biso   1.000  N
  N2       1.0000 0.68970  0.19310  0.97250  Biso   1.000  N
  N3       1.0000 0.68970  0.30690  0.47250  Biso   1.000  N
  N4       1.0000 0.31030  0.80690  0.02750  Biso   1.000  N
  C1       1.0000 0.17670  0.73370  0.42550  Biso   1.000  C
  C2       1.0000 0.82330  0.23370  0.07450  Biso   1.000  C
  C3       1.0000 0.82330  0.26630  0.57450  Biso   1.000  C
  C4       1.0000 0.17670  0.76630  0.92550  Biso   1.000  C
  C5       1.0000 0.20460  0.82300  0.40550  Biso   1.000  C
  C6       1.0000 0.79540  0.32300  0.09450  Biso   1.000  C
  C7       1.0000 0.79540  0.17700  0.59450  Biso   1.000  C
  C8       1.0000 0.20460  0.67700  0.90550  Biso   1.000  C
  C9       1.0000 0.38180  0.87660  0.49120  Biso   1.000  C
  C10      1.0000 0.61820  0.37660  0.00880  Biso   1.000  C
  C11      1.0000 0.61820  0.12340  0.50880  Biso   1.000  C
  C12      1.0000 0.38180  0.62340  0.99120  Biso   1.000  C
  C13      1.0000 0.52000  0.83550  0.59720  Biso   1.000  C
  C14      1.0000 0.48000  0.33550  0.90280  Biso   1.000  C
  C15      1.0000 0.48000  0.16450  0.40280  Biso   1.000  C
  C16      1.0000 0.52000  0.66450  0.09720  Biso   1.000  C
  C17      1.0000 0.47990  0.74500  0.60950  Biso   1.000  C
  C18      1.0000 0.52010  0.24500  0.89050  Biso   1.000  C
  C19      1.0000 0.52010  0.25500  0.39050  Biso   1.000  C
  C20      1.0000 0.47990  0.75500  0.10950  Biso   1.000  C
  C21      1.0000 0.41280  0.97110  0.46470  Biso   1.000  C
  C22      1.0000 0.58720  0.47110  0.03530  Biso   1.000  C
  C23      1.0000 0.58720  0.02890  0.53530  Biso   1.000  C
  C24      1.0000 0.41280  0.52890  0.96470  Biso   1.000  C
  H1       1.0000 0.05970  0.69940  0.36560  Biso   1.000  H
  H2       1.0000 0.94030  0.19940  0.13440  Biso   1.000  H
  H3       1.0000 0.94030  0.30060  0.63440  Biso   1.000  H
  H4       1.0000 0.05970  0.80060  0.86560  Biso   1.000  H
  H5       1.0000 0.10420  0.84770  0.33410  Biso   1.000  H
  H6       1.0000 0.89580  0.34770  0.16590  Biso   1.000  H
  H7       1.0000 0.89580  0.15230  0.66590  Biso   1.000  H
  H8       1.0000 0.10420  0.65230  0.83410  Biso   1.000  H
  H9       1.0000 0.63640  0.86840  0.65860  Biso   1.000  H
  H10      1.0000 0.36360  0.36840  0.84140  Biso   1.000  H
  H11      1.0000 0.36360  0.13160  0.34140  Biso   1.000  H
  H12      1.0000 0.63640  0.63160  0.15860  Biso   1.000  H
  H13      1.0000 0.57850  0.71860  0.67990  Biso   1.000  H
  H14      1.0000 0.42150  0.21860  0.82010  Biso   1.000  H
  H15      1.0000 0.42150  0.28140  0.32010  Biso   1.000  H
  H16      1.0000 0.57850  0.78140  0.17990  Biso   1.000  H
  H17      1.0000 0.30120  0.99200  0.39280  Biso   1.000  H
  H18      1.0000 0.69880  0.49200  0.10720  Biso   1.000  H
  H19      1.0000 0.69880  0.00800  0.60720  Biso   1.000  H
  H20      1.0000 0.30120  0.50800  0.89280  Biso   1.000  H
