data_image0
_cell_length_a       6.8433
_cell_length_b       9.6049
_cell_length_c       15.589
_cell_angle_alpha    83.894
_cell_angle_beta     81.517
_cell_angle_gamma    71.436

_symmetry_space_group_name_H-M    "P 1"
_symmetry_int_tables_number       1

loop_
  _symmetry_equiv_pos_as_xyz
  'x, y, z'

loop_
  _atom_site_label
  _atom_site_occupancy
  _atom_site_fract_x
  _atom_site_fract_y
  _atom_site_fract_z
  _atom_site_thermal_displace_type
  _atom_site_B_iso_or_equiv
  _atom_site_type_symbol
  Cu1      1.0000 0.81080  0.98010  0.55770  Biso   1.000  Cu
  Cu2      1.0000 0.18920  0.01990  0.44230  Biso   1.000  Cu
  Cu3      1.0000 0.14640  0.59710  0.35170  Biso   1.000  Cu
  Cu4      1.0000 0.85360  0.40290  0.64830  Biso   1.000  Cu
  Cu5      1.0000 0.37200  0.40520  0.05830  Biso   1.000  Cu
  Cu6      1.0000 0.62800  0.59480  0.94170  Biso   1.000  Cu
  Cu7      1.0000 0.97380  0.76360  0.85170  Biso   1.000  Cu
  Cu8      1.0000 0.02620  0.23640  0.14830  Biso   1.000  Cu
  N1       1.0000 0.59050  0.16190  0.51040  Biso   1.000  N
  N2       1.0000 0.40950  0.83810  0.48960  Biso   1.000  N
  N3       1.0000 0.31560  0.41120  0.42930  Biso   1.000  N
  N4       1.0000 0.68440  0.58880  0.57070  Biso   1.000  N
  N5       1.0000 0.56770  0.21330  0.00880  Biso   1.000  N
  N6       1.0000 0.43230  0.78670  0.99120  Biso   1.000  N
  N7       1.0000 0.80410  0.95110  0.92760  Biso   1.000  N
  N8       1.0000 0.19590  0.04890  0.07240  Biso   1.000  N
  N9       1.0000 0.85470  0.89960  0.67230  Biso   1.000  N
  N10      1.0000 0.14530  0.10040  0.32770  Biso   1.000  N
  N11      1.0000 0.92540  0.86700  0.45370  Biso   1.000  N
  N12      1.0000 0.07460  0.13300  0.54630  Biso   1.000  N
  N13      1.0000 0.99990  0.77170  0.40880  Biso   1.000  N
  N14      1.0000 0.00010  0.22830  0.59120  Biso   1.000  N
  N15      1.0000 0.22850  0.51990  0.23940  Biso   1.000  N
  N16      1.0000 0.77150  0.48010  0.76060  Biso   1.000  N
  N17      1.0000 0.28030  0.47040  0.17210  Biso   1.000  N
  N18      1.0000 0.71970  0.52960  0.82790  Biso   1.000  N
  N19      1.0000 0.26090  0.51410  0.95240  Biso   1.000  N
  N20      1.0000 0.73910  0.48590  0.04760  Biso   1.000  N
  N21      1.0000 0.89290  0.84720  0.74000  Biso   1.000  N
  N22      1.0000 0.10710  0.15280  0.26000  Biso   1.000  N
  N23      1.0000 0.15410  0.60390  0.90900  Biso   1.000  N
  N24      1.0000 0.84590  0.39610  0.09100  Biso   1.000  N
  C1       1.0000 0.56670  0.17120  0.42760  Biso   1.000  C
  C2       1.0000 0.43330  0.82880  0.57240  Biso   1.000  C
  C3       1.0000 0.43220  0.29310  0.38700  Biso   1.000  C
  C4       1.0000 0.56780  0.70690  0.61300  Biso   1.000  C
  C5       1.0000 0.33200  0.40470  0.51660  Biso   1.000  C
  C6       1.0000 0.66800  0.59530  0.48340  Biso   1.000  C
  C7       1.0000 0.20960  0.52210  0.56710  Biso   1.000  C
  C8       1.0000 0.79040  0.47790  0.43290  Biso   1.000  C
  C9       1.0000 0.22700  0.51460  0.65460  Biso   1.000  C
  C10      1.0000 0.77300  0.48540  0.34540  Biso   1.000  C
  C11      1.0000 0.36280  0.39210  0.69470  Biso   1.000  C
  C12      1.0000 0.63720  0.60790  0.30530  Biso   1.000  C
  C13      1.0000 0.48360  0.27610  0.64720  Biso   1.000  C
  C14      1.0000 0.51640  0.72390  0.35280  Biso   1.000  C
  C15      1.0000 0.47000  0.28050  0.55750  Biso   1.000  C
  C16      1.0000 0.53000  0.71950  0.44250  Biso   1.000  C
  C17      1.0000 0.59980  0.20550  0.92400  Biso   1.000  C
  C18      1.0000 0.40020  0.79450  0.07600  Biso   1.000  C
  C19      1.0000 0.71750  0.07540  0.88320  Biso   1.000  C
  C20      1.0000 0.28250  0.92460  0.11680  Biso   1.000  C
  C21      1.0000 0.78030  0.95550  0.01680  Biso   1.000  C
  C22      1.0000 0.21970  0.04450  0.98320  Biso   1.000  C
  C23      1.0000 0.87220  0.82840  0.06870  Biso   1.000  C
  C24      1.0000 0.12780  0.17160  0.93130  Biso   1.000  C
  C25      1.0000 0.85050  0.83410  0.15720  Biso   1.000  C
  C26      1.0000 0.14950  0.16590  0.84280  Biso   1.000  C
  C27      1.0000 0.73830  0.96630  0.19790  Biso   1.000  C
  C28      1.0000 0.26170  0.03370  0.80210  Biso   1.000  C
  C29      1.0000 0.64440  0.08960  0.14890  Biso   1.000  C
  C30      1.0000 0.35560  0.91040  0.85110  Biso   1.000  C
  C31      1.0000 0.66500  0.08800  0.05790  Biso   1.000  C
  C32      1.0000 0.33500  0.91200  0.94210  Biso   1.000  C
  H1       1.0000 0.64350  0.09260  0.39440  Biso   1.000  H
  H2       1.0000 0.35650  0.90740  0.60560  Biso   1.000  H
  H3       1.0000 0.42340  0.29210  0.32810  Biso   1.000  H
  H4       1.0000 0.57660  0.70790  0.67190  Biso   1.000  H
  H5       1.0000 0.11780  0.60410  0.54160  Biso   1.000  H
  H6       1.0000 0.88220  0.39590  0.45840  Biso   1.000  H
  H7       1.0000 0.14680  0.59260  0.68760  Biso   1.000  H
  H8       1.0000 0.85320  0.40740  0.31240  Biso   1.000  H
  H9       1.0000 0.37130  0.38930  0.75390  Biso   1.000  H
  H10      1.0000 0.62870  0.61070  0.24610  Biso   1.000  H
  H11      1.0000 0.57400  0.19500  0.67400  Biso   1.000  H
  H12      1.0000 0.42600  0.80500  0.32600  Biso   1.000  H
  H13      1.0000 0.54240  0.28940  0.88930  Biso   1.000  H
  H14      1.0000 0.45760  0.71060  0.11070  Biso   1.000  H
  H15      1.0000 0.73500  0.07710  0.82290  Biso   1.000  H
  H16      1.0000 0.26500  0.92290  0.17710  Biso   1.000  H
  H17      1.0000 0.94720  0.74100  0.04300  Biso   1.000  H
  H18      1.0000 0.05280  0.25900  0.95700  Biso   1.000  H
  H19      1.0000 0.91040  0.74980  0.19110  Biso   1.000  H
  H20      1.0000 0.08960  0.25020  0.80890  Biso   1.000  H
  H21      1.0000 0.72870  0.96910  0.25790  Biso   1.000  H
  H22      1.0000 0.27130  0.03090  0.74210  Biso   1.000  H
  H23      1.0000 0.56640  0.17520  0.17580  Biso   1.000  H
  H24      1.0000 0.43360  0.82480  0.82420  Biso   1.000  H
