data_image0
_cell_length_a       4.7242
_cell_length_b       16.731
_cell_length_c       7.4798
_cell_angle_alpha    90
_cell_angle_beta     94.02
_cell_angle_gamma    90

_symmetry_space_group_name_H-M    "P 1"
_symmetry_int_tables_number       1

loop_
  _symmetry_equiv_pos_as_xyz
  'x, y, z'

loop_
  _atom_site_label
  _atom_site_occupancy
  _atom_site_fract_x
  _atom_site_fract_y
  _atom_site_fract_z
  _atom_site_thermal_displace_type
  _atom_site_B_iso_or_equiv
  _atom_site_type_symbol
  Cu1      1.0000 0.14350  0.19310  0.36650  Biso   1.000  Cu
  Cu2      1.0000 0.35650  0.69310  0.13350  Biso   1.000  Cu
  Cu3      1.0000 0.85650  0.80690  0.63350  Biso   1.000  Cu
  Cu4      1.0000 0.64350  0.30690  0.86650  Biso   1.000  Cu
  N1       1.0000 0.08160  0.07310  0.43300  Biso   1.000  N
  N2       1.0000 0.41840  0.57310  0.06700  Biso   1.000  N
  N3       1.0000 0.91840  0.92690  0.56700  Biso   1.000  N
  N4       1.0000 0.58160  0.42690  0.93300  Biso   1.000  N
  N5       1.0000 0.33700  0.22960  0.17080  Biso   1.000  N
  N6       1.0000 0.16300  0.72960  0.32920  Biso   1.000  N
  N7       1.0000 0.66300  0.77040  0.82920  Biso   1.000  N
  N8       1.0000 0.83700  0.27040  0.67080  Biso   1.000  N
  N9       1.0000 0.94970  0.24440  0.55240  Biso   1.000  N
  N10      1.0000 0.55030  0.74440  0.94760  Biso   1.000  N
  N11      1.0000 0.05030  0.75560  0.44760  Biso   1.000  N
  N12      1.0000 0.44970  0.25560  0.05240  Biso   1.000  N
  C1       1.0000 0.41830  0.09710  0.69090  Biso   1.000  C
  C2       1.0000 0.08170  0.59710  0.80910  Biso   1.000  C
  C3       1.0000 0.58170  0.90290  0.30910  Biso   1.000  C
  C4       1.0000 0.91830  0.40290  0.19090  Biso   1.000  C
  C5       1.0000 0.19780  0.04570  0.59060  Biso   1.000  C
  C6       1.0000 0.30220  0.54570  0.90940  Biso   1.000  C
  C7       1.0000 0.80220  0.95430  0.40940  Biso   1.000  C
  C8       1.0000 0.69780  0.45430  0.09060  Biso   1.000  C
  C9       1.0000 0.88810  0.02800  0.34110  Biso   1.000  C
  C10      1.0000 0.61190  0.52800  0.15890  Biso   1.000  C
  C11      1.0000 0.11190  0.97200  0.65890  Biso   1.000  C
  C12      1.0000 0.38810  0.47200  0.84110  Biso   1.000  C
  C13      1.0000 0.76470  0.05870  0.16290  Biso   1.000  C
  C14      1.0000 0.73530  0.55870  0.33710  Biso   1.000  C
  C15      1.0000 0.23530  0.94130  0.83710  Biso   1.000  C
  C16      1.0000 0.26470  0.44130  0.66290  Biso   1.000  C
  H1       1.0000 0.44870  0.14470  0.62310  Biso   1.000  H
  H2       1.0000 0.05130  0.64470  0.87690  Biso   1.000  H
  H3       1.0000 0.55130  0.85530  0.37690  Biso   1.000  H
  H4       1.0000 0.94870  0.35530  0.12310  Biso   1.000  H
  H5       1.0000 0.59300  0.06790  0.70790  Biso   1.000  H
  H6       1.0000 0.90700  0.56790  0.79210  Biso   1.000  H
  H7       1.0000 0.40700  0.93210  0.29210  Biso   1.000  H
  H8       1.0000 0.09300  0.43210  0.20790  Biso   1.000  H
  H9       1.0000 0.35350  0.11140  0.80540  Biso   1.000  H
  H10      1.0000 0.14650  0.61140  0.69460  Biso   1.000  H
  H11      1.0000 0.64650  0.88860  0.19460  Biso   1.000  H
  H12      1.0000 0.85350  0.38860  0.30540  Biso   1.000  H
  H13      1.0000 0.84820  0.10940  0.13810  Biso   1.000  H
  H14      1.0000 0.65180  0.60940  0.36190  Biso   1.000  H
  H15      1.0000 0.15180  0.89060  0.86190  Biso   1.000  H
  H16      1.0000 0.34820  0.39060  0.63810  Biso   1.000  H
  H17      1.0000 0.56310  0.06480  0.16670  Biso   1.000  H
  H18      1.0000 0.93690  0.56480  0.33330  Biso   1.000  H
  H19      1.0000 0.43690  0.93520  0.83330  Biso   1.000  H
  H20      1.0000 0.06310  0.43520  0.66670  Biso   1.000  H
  H21      1.0000 0.80400  0.02140  0.07040  Biso   1.000  H
  H22      1.0000 0.69600  0.52140  0.42960  Biso   1.000  H
  H23      1.0000 0.19600  0.97860  0.92960  Biso   1.000  H
  H24      1.0000 0.30400  0.47860  0.57040  Biso   1.000  H
