data_image0
_cell_length_a       16.869
_cell_length_b       8.265
_cell_length_c       9.489
_cell_angle_alpha    90
_cell_angle_beta     90
_cell_angle_gamma    90

_symmetry_space_group_name_H-M    "P 1"
_symmetry_int_tables_number       1

loop_
  _symmetry_equiv_pos_as_xyz
  'x, y, z'

loop_
  _atom_site_label
  _atom_site_occupancy
  _atom_site_fract_x
  _atom_site_fract_y
  _atom_site_fract_z
  _atom_site_thermal_displace_type
  _atom_site_B_iso_or_equiv
  _atom_site_type_symbol
  Cu1      1.0000 0.29010  0.00000  0.50000  Biso   1.000  Cu
  Cu2      1.0000 0.70990  0.50000  0.00000  Biso   1.000  Cu
  Cu3      1.0000 0.79010  0.50000  0.50000  Biso   1.000  Cu
  Cu4      1.0000 0.20990  0.00000  0.00000  Biso   1.000  Cu
  Cu5      1.0000 0.70990  0.00000  0.50000  Biso   1.000  Cu
  Cu6      1.0000 0.29010  0.50000  0.00000  Biso   1.000  Cu
  Cu7      1.0000 0.20990  0.50000  0.50000  Biso   1.000  Cu
  Cu8      1.0000 0.79010  0.00000  0.00000  Biso   1.000  Cu
  N1       1.0000 0.41600  0.00000  0.50000  Biso   1.000  N
  N2       1.0000 0.58400  0.50000  0.00000  Biso   1.000  N
  N3       1.0000 0.91600  0.50000  0.50000  Biso   1.000  N
  N4       1.0000 0.08400  0.00000  0.00000  Biso   1.000  N
  N5       1.0000 0.58400  0.00000  0.50000  Biso   1.000  N
  N6       1.0000 0.41600  0.50000  0.00000  Biso   1.000  N
  N7       1.0000 0.08400  0.50000  0.50000  Biso   1.000  N
  N8       1.0000 0.91600  0.00000  0.00000  Biso   1.000  N
  C1       1.0000 0.25800  0.99490  0.69060  Biso   1.000  C
  C2       1.0000 0.74200  0.50510  0.19060  Biso   1.000  C
  C3       1.0000 0.25800  0.00510  0.30940  Biso   1.000  C
  C4       1.0000 0.74200  0.49490  0.80940  Biso   1.000  C
  C5       1.0000 0.75800  0.49490  0.69060  Biso   1.000  C
  C6       1.0000 0.24200  0.00510  0.19060  Biso   1.000  C
  C7       1.0000 0.75800  0.50510  0.30940  Biso   1.000  C
  C8       1.0000 0.24200  0.99490  0.80940  Biso   1.000  C
  C9       1.0000 0.74200  0.00510  0.30940  Biso   1.000  C
  C10      1.0000 0.25800  0.49490  0.80940  Biso   1.000  C
  C11      1.0000 0.74200  0.99490  0.69060  Biso   1.000  C
  C12      1.0000 0.25800  0.50510  0.19060  Biso   1.000  C
  C13      1.0000 0.24200  0.50510  0.30940  Biso   1.000  C
  C14      1.0000 0.75800  0.99490  0.80940  Biso   1.000  C
  C15      1.0000 0.24200  0.49490  0.69060  Biso   1.000  C
  C16      1.0000 0.75800  0.00510  0.19060  Biso   1.000  C
  C17      1.0000 0.45730  0.12900  0.54710  Biso   1.000  C
  C18      1.0000 0.54270  0.37100  0.04710  Biso   1.000  C
  C19      1.0000 0.45730  0.87100  0.45290  Biso   1.000  C
  C20      1.0000 0.54270  0.62900  0.95290  Biso   1.000  C
  C21      1.0000 0.95730  0.62900  0.54710  Biso   1.000  C
  C22      1.0000 0.04270  0.87100  0.04710  Biso   1.000  C
  C23      1.0000 0.95730  0.37100  0.45290  Biso   1.000  C
  C24      1.0000 0.04270  0.12900  0.95290  Biso   1.000  C
  C25      1.0000 0.54270  0.87100  0.45290  Biso   1.000  C
  C26      1.0000 0.45730  0.62900  0.95290  Biso   1.000  C
  C27      1.0000 0.54270  0.12900  0.54710  Biso   1.000  C
  C28      1.0000 0.45730  0.37100  0.04710  Biso   1.000  C
  C29      1.0000 0.04270  0.37100  0.45290  Biso   1.000  C
  C30      1.0000 0.95730  0.12900  0.95290  Biso   1.000  C
  C31      1.0000 0.04270  0.62900  0.54710  Biso   1.000  C
  C32      1.0000 0.95730  0.87100  0.04710  Biso   1.000  C
  C33      1.0000 0.41650  0.26720  0.59880  Biso   1.000  C
  C34      1.0000 0.58350  0.23280  0.09880  Biso   1.000  C
  C35      1.0000 0.41650  0.73280  0.40120  Biso   1.000  C
  C36      1.0000 0.58350  0.76720  0.90120  Biso   1.000  C
  C37      1.0000 0.91650  0.76720  0.59880  Biso   1.000  C
  C38      1.0000 0.08350  0.73280  0.09880  Biso   1.000  C
  C39      1.0000 0.91650  0.23280  0.40120  Biso   1.000  C
  C40      1.0000 0.08350  0.26720  0.90120  Biso   1.000  C
  C41      1.0000 0.58350  0.73280  0.40120  Biso   1.000  C
  C42      1.0000 0.41650  0.76720  0.90120  Biso   1.000  C
  C43      1.0000 0.58350  0.26720  0.59880  Biso   1.000  C
  C44      1.0000 0.41650  0.23280  0.09880  Biso   1.000  C
  C45      1.0000 0.08350  0.23280  0.40120  Biso   1.000  C
  C46      1.0000 0.91650  0.26720  0.90120  Biso   1.000  C
  C47      1.0000 0.08350  0.76720  0.59880  Biso   1.000  C
  C48      1.0000 0.91650  0.73280  0.09880  Biso   1.000  C
  C49      1.0000 0.45760  0.39650  0.64760  Biso   1.000  C
  C50      1.0000 0.54240  0.10350  0.14760  Biso   1.000  C
  C51      1.0000 0.45760  0.60350  0.35240  Biso   1.000  C
  C52      1.0000 0.54240  0.89650  0.85240  Biso   1.000  C
  C53      1.0000 0.95760  0.89650  0.64760  Biso   1.000  C
  C54      1.0000 0.04240  0.60350  0.14760  Biso   1.000  C
  C55      1.0000 0.95760  0.10350  0.35240  Biso   1.000  C
  C56      1.0000 0.04240  0.39650  0.85240  Biso   1.000  C
  C57      1.0000 0.54240  0.60350  0.35240  Biso   1.000  C
  C58      1.0000 0.45760  0.89650  0.85240  Biso   1.000  C
  C59      1.0000 0.54240  0.39650  0.64760  Biso   1.000  C
  C60      1.0000 0.45760  0.10350  0.14760  Biso   1.000  C
  C61      1.0000 0.04240  0.10350  0.35240  Biso   1.000  C
  C62      1.0000 0.95760  0.39650  0.85240  Biso   1.000  C
  C63      1.0000 0.04240  0.89650  0.64760  Biso   1.000  C
  C64      1.0000 0.95760  0.60350  0.14760  Biso   1.000  C
  H1       1.0000 0.36130  0.26890  0.59910  Biso   1.000  H
  H2       1.0000 0.63870  0.23110  0.09910  Biso   1.000  H
  H3       1.0000 0.36130  0.73110  0.40090  Biso   1.000  H
  H4       1.0000 0.63870  0.76890  0.90090  Biso   1.000  H
  H5       1.0000 0.86130  0.76890  0.59910  Biso   1.000  H
  H6       1.0000 0.13870  0.73110  0.09910  Biso   1.000  H
  H7       1.0000 0.86130  0.23110  0.40090  Biso   1.000  H
  H8       1.0000 0.13870  0.26890  0.90090  Biso   1.000  H
  H9       1.0000 0.63870  0.73110  0.40090  Biso   1.000  H
  H10      1.0000 0.36130  0.76890  0.90090  Biso   1.000  H
  H11      1.0000 0.63870  0.26890  0.59910  Biso   1.000  H
  H12      1.0000 0.36130  0.23110  0.09910  Biso   1.000  H
  H13      1.0000 0.13870  0.23110  0.40090  Biso   1.000  H
  H14      1.0000 0.86130  0.26890  0.90090  Biso   1.000  H
  H15      1.0000 0.13870  0.76890  0.59910  Biso   1.000  H
  H16      1.0000 0.86130  0.73110  0.09910  Biso   1.000  H
  H17      1.0000 0.43030  0.48620  0.68150  Biso   1.000  H
  H18      1.0000 0.56970  0.01380  0.18150  Biso   1.000  H
  H19      1.0000 0.43030  0.51380  0.31850  Biso   1.000  H
  H20      1.0000 0.56970  0.98620  0.81850  Biso   1.000  H
  H21      1.0000 0.93030  0.98620  0.68150  Biso   1.000  H
  H22      1.0000 0.06970  0.51380  0.18150  Biso   1.000  H
  H23      1.0000 0.93030  0.01380  0.31850  Biso   1.000  H
  H24      1.0000 0.06970  0.48620  0.81850  Biso   1.000  H
  H25      1.0000 0.56970  0.51380  0.31850  Biso   1.000  H
  H26      1.0000 0.43030  0.98620  0.81850  Biso   1.000  H
  H27      1.0000 0.56970  0.48620  0.68150  Biso   1.000  H
  H28      1.0000 0.43030  0.01380  0.18150  Biso   1.000  H
  H29      1.0000 0.06970  0.01380  0.31850  Biso   1.000  H
  H30      1.0000 0.93030  0.48620  0.81850  Biso   1.000  H
  H31      1.0000 0.06970  0.98620  0.68150  Biso   1.000  H
  H32      1.0000 0.93030  0.51380  0.18150  Biso   1.000  H
