data_image0
_cell_length_a       6.9486
_cell_length_b       9.7226
_cell_length_c       15.602
_cell_angle_alpha    83.911
_cell_angle_beta     81.527
_cell_angle_gamma    70.4237

_symmetry_space_group_name_H-M    "P 1"
_symmetry_int_tables_number       1

loop_
  _symmetry_equiv_pos_as_xyz
  'x, y, z'

loop_
  _atom_site_label
  _atom_site_occupancy
  _atom_site_fract_x
  _atom_site_fract_y
  _atom_site_fract_z
  _atom_site_thermal_displace_type
  _atom_site_B_iso_or_equiv
  _atom_site_type_symbol
  Cu1      1.0000 0.52450  0.73500  0.65060  Biso   1.000  Cu
  Cu2      1.0000 0.47550  0.26500  0.34940  Biso   1.000  Cu
  Cu3      1.0000 0.35290  0.90150  0.15000  Biso   1.000  Cu
  Cu4      1.0000 0.64710  0.09850  0.85000  Biso   1.000  Cu
  Cu5      1.0000 0.68690  0.52200  0.94350  Biso   1.000  Cu
  Cu6      1.0000 0.31310  0.47800  0.05650  Biso   1.000  Cu
  Cu7      1.0000 0.13210  0.09090  0.44260  Biso   1.000  Cu
  Cu8      1.0000 0.86790  0.90910  0.55740  Biso   1.000  Cu
  C1       1.0000 0.02820  0.22170  0.94350  Biso   1.000  C
  C2       1.0000 0.97180  0.77830  0.05650  Biso   1.000  C
  N1       1.0000 0.90900  0.33810  0.98940  Biso   1.000  N
  N2       1.0000 0.09100  0.66190  0.01060  Biso   1.000  N
  C3       1.0000 0.16690  0.09700  0.98350  Biso   1.000  C
  C4       1.0000 0.83310  0.90300  0.01650  Biso   1.000  C
  C5       1.0000 0.72190  0.53940  0.48310  Biso   1.000  C
  C6       1.0000 0.27810  0.46060  0.51690  Biso   1.000  C
  C7       1.0000 0.85820  0.40630  0.35210  Biso   1.000  C
  C8       1.0000 0.14180  0.59370  0.64790  Biso   1.000  C
  N3       1.0000 0.93510  0.28480  0.49110  Biso   1.000  N
  N4       1.0000 0.06490  0.71520  0.50890  Biso   1.000  N
  N5       1.0000 0.69890  0.54640  0.57250  Biso   1.000  N
  N6       1.0000 0.30110  0.45360  0.42750  Biso   1.000  N
  C9       1.0000 0.84100  0.40740  0.44350  Biso   1.000  C
  C10      1.0000 0.15900  0.59260  0.55650  Biso   1.000  C
  C11      1.0000 0.78620  0.42300  0.61590  Biso   1.000  C
  C12      1.0000 0.21380  0.57700  0.38410  Biso   1.000  C
  C13      1.0000 0.06740  0.20580  0.11290  Biso   1.000  C
  C14      1.0000 0.93260  0.79420  0.88710  Biso   1.000  C
  N7       1.0000 0.18270  0.09050  0.07010  Biso   1.000  N
  N8       1.0000 0.81730  0.90950  0.92990  Biso   1.000  N
  C15      1.0000 0.01630  0.22450  0.85290  Biso   1.000  C
  C16      1.0000 0.98370  0.77550  0.14710  Biso   1.000  C
  C17      1.0000 0.28890  0.97940  0.93270  Biso   1.000  C
  C18      1.0000 0.71110  0.02060  0.06730  Biso   1.000  C
  C19      1.0000 0.62840  0.66690  0.43120  Biso   1.000  C
  C20      1.0000 0.37160  0.33310  0.56880  Biso   1.000  C
  C21      1.0000 0.90360  0.29340  0.57670  Biso   1.000  C
  C22      1.0000 0.09640  0.70660  0.42330  Biso   1.000  C
  C23      1.0000 0.13550  0.11130  0.80650  Biso   1.000  C
  C24      1.0000 0.86450  0.88870  0.19350  Biso   1.000  C
  C25      1.0000 0.76300  0.52940  0.30360  Biso   1.000  C
  C26      1.0000 0.23700  0.47060  0.69640  Biso   1.000  C
  C27      1.0000 0.92990  0.32870  0.07300  Biso   1.000  C
  C28      1.0000 0.07010  0.67130  0.92700  Biso   1.000  C
  C29      1.0000 0.65100  0.65960  0.34340  Biso   1.000  C
  C30      1.0000 0.34900  0.34040  0.65660  Biso   1.000  C
  C31      1.0000 0.27300  0.98720  0.84550  Biso   1.000  C
  C32      1.0000 0.72700  0.01280  0.15450  Biso   1.000  C
  C33      1.0000 0.57340  0.63410  0.04650  Biso   1.000  C
  C34      1.0000 0.42660  0.36590  0.95350  Biso   1.000  C
  N9       1.0000 0.49940  0.72900  0.09150  Biso   1.000  N
  N10      1.0000 0.50060  0.27100  0.90850  Biso   1.000  N
  C35      1.0000 0.21910  0.02720  0.32910  Biso   1.000  C
  C36      1.0000 0.78090  0.97280  0.67090  Biso   1.000  C
  C37      1.0000 0.64570  0.59970  0.82890  Biso   1.000  C
  C38      1.0000 0.35430  0.40030  0.17110  Biso   1.000  C
  N11      1.0000 0.34350  0.89720  0.59050  Biso   1.000  N
  N12      1.0000 0.65650  0.10280  0.40950  Biso   1.000  N
  C39      1.0000 0.24450  0.98200  0.54600  Biso   1.000  C
  C40      1.0000 0.75550  0.01800  0.45400  Biso   1.000  C
  N13      1.0000 0.27030  0.98090  0.26240  Biso   1.000  N
  N14      1.0000 0.72970  0.01910  0.73760  Biso   1.000  N
  N15      1.0000 0.60630  0.65210  0.76110  Biso   1.000  N
  N16      1.0000 0.39370  0.34790  0.23890  Biso   1.000  N
  H1       1.0000 0.92892  0.31643  0.32439  Biso   1.000  H
  H2       1.0000 0.07108  0.68357  0.67561  Biso   1.000  H
  H3       1.0000 0.76806  0.41716  0.67828  Biso   1.000  H
  H4       1.0000 0.23194  0.58284  0.32172  Biso   1.000  H
  H5       1.0000 0.07444  0.21098  0.17342  Biso   1.000  H
  H6       1.0000 0.92556  0.78902  0.82658  Biso   1.000  H
  H7       1.0000 0.92104  0.30565  0.82434  Biso   1.000  H
  H8       1.0000 0.07896  0.69435  0.17566  Biso   1.000  H
  H9       1.0000 0.38431  0.89568  0.95920  Biso   1.000  H
  H10      1.0000 0.61569  0.10432  0.04080  Biso   1.000  H
  H11      1.0000 0.55757  0.75797  0.45757  Biso   1.000  H
  H12      1.0000 0.44243  0.24203  0.54243  Biso   1.000  H
  H13      1.0000 0.96333  0.20797  0.61306  Biso   1.000  H
  H14      1.0000 0.03667  0.79203  0.38694  Biso   1.000  H
  H15      1.0000 0.12649  0.11586  0.74540  Biso   1.000  H
  H16      1.0000 0.87351  0.88414  0.25460  Biso   1.000  H
  H17      1.0000 0.77781  0.53316  0.24128  Biso   1.000  H
  H18      1.0000 0.22219  0.46684  0.75872  Biso   1.000  H
  H19      1.0000 0.84854  0.40512  0.11012  Biso   1.000  H
  H20      1.0000 0.15146  0.59488  0.88988  Biso   1.000  H
  H21      1.0000 0.58126  0.74025  0.30602  Biso   1.000  H
  H22      1.0000 0.41874  0.25975  0.69398  Biso   1.000  H
  H23      1.0000 0.35475  0.90811  0.81024  Biso   1.000  H
  H24      1.0000 0.64525  0.09189  0.18976  Biso   1.000  H
