data_image0
_cell_length_a       7.846
_cell_length_b       9.048
_cell_length_c       14.539
_cell_angle_alpha    76.4
_cell_angle_beta     88.062
_cell_angle_gamma    88.52

_symmetry_space_group_name_H-M    "P 1"
_symmetry_int_tables_number       1

loop_
  _symmetry_equiv_pos_as_xyz
  'x, y, z'

loop_
  _atom_site_label
  _atom_site_occupancy
  _atom_site_fract_x
  _atom_site_fract_y
  _atom_site_fract_z
  _atom_site_thermal_displace_type
  _atom_site_B_iso_or_equiv
  _atom_site_type_symbol
  Cu1      1.0000 0.21450  0.37990  0.61780  Biso   1.000  Cu
  Cu2      1.0000 0.78550  0.62010  0.38220  Biso   1.000  Cu
  Cu3      1.0000 0.46060  0.88950  0.57060  Biso   1.000  Cu
  Cu4      1.0000 0.53940  0.11050  0.42940  Biso   1.000  Cu
  Cu5      1.0000 0.18910  0.59610  0.80760  Biso   1.000  Cu
  Cu6      1.0000 0.81090  0.40390  0.19240  Biso   1.000  Cu
  Cu7      1.0000 0.43830  0.09320  0.79860  Biso   1.000  Cu
  Cu8      1.0000 0.56170  0.90680  0.20140  Biso   1.000  Cu
  N1       1.0000 0.31460  0.19370  0.59390  Biso   1.000  N
  N2       1.0000 0.68540  0.80630  0.40610  Biso   1.000  N
  N3       1.0000 0.34330  0.70210  0.57670  Biso   1.000  N
  N4       1.0000 0.65670  0.29790  0.42330  Biso   1.000  N
  N5       1.0000 0.28840  0.78150  0.82530  Biso   1.000  N
  N6       1.0000 0.71160  0.21850  0.17470  Biso   1.000  N
  N7       1.0000 0.33820  0.28090  0.82090  Biso   1.000  N
  N8       1.0000 0.66180  0.71910  0.17910  Biso   1.000  N
  N9       1.0000 0.67240  0.16960  0.74450  Biso   1.000  N
  N10      1.0000 0.32760  0.83040  0.25550  Biso   1.000  N
  N11      1.0000 0.98150  0.29820  0.67280  Biso   1.000  N
  N12      1.0000 0.01850  0.70180  0.32720  Biso   1.000  N
  N13      1.0000 0.67590  0.80630  0.64640  Biso   1.000  N
  N14      1.0000 0.32410  0.19370  0.35360  Biso   1.000  N
  N15      1.0000 0.96360  0.68170  0.74820  Biso   1.000  N
  N16      1.0000 0.03640  0.31830  0.25180  Biso   1.000  N
  C1       1.0000 0.37350  0.08440  0.57800  Biso   1.000  C
  C2       1.0000 0.62650  0.91560  0.42200  Biso   1.000  C
  C3       1.0000 0.28660  0.58110  0.59000  Biso   1.000  C
  C4       1.0000 0.71340  0.41890  0.41000  Biso   1.000  C
  C5       1.0000 0.34920  0.89630  0.82070  Biso   1.000  C
  C6       1.0000 0.65080  0.10370  0.17930  Biso   1.000  C
  C7       1.0000 0.27640  0.39730  0.82040  Biso   1.000  C
  C8       1.0000 0.72360  0.60270  0.17960  Biso   1.000  C
  C9       1.0000 0.68120  0.29170  0.67250  Biso   1.000  C
  C10      1.0000 0.31880  0.70830  0.32750  Biso   1.000  C
  C11      1.0000 0.83180  0.35750  0.63780  Biso   1.000  C
  C12      1.0000 0.16820  0.64250  0.36220  Biso   1.000  C
  C13      1.0000 0.97340  0.17260  0.74310  Biso   1.000  C
  C14      1.0000 0.02660  0.82740  0.25690  Biso   1.000  C
  C15      1.0000 0.82140  0.10860  0.78080  Biso   1.000  C
  C16      1.0000 0.17860  0.89140  0.21920  Biso   1.000  C
  C17      1.0000 0.81490  0.97580  0.86390  Biso   1.000  C
  C18      1.0000 0.18510  0.02420  0.13610  Biso   1.000  C
  C19      1.0000 0.76570  0.02160  0.95500  Biso   1.000  C
  C20      1.0000 0.23430  0.97840  0.04500  Biso   1.000  C
  C21      1.0000 0.66700  0.68350  0.71890  Biso   1.000  C
  C22      1.0000 0.33300  0.31650  0.28110  Biso   1.000  C
  C23      1.0000 0.80710  0.61870  0.76930  Biso   1.000  C
  C24      1.0000 0.19290  0.38130  0.23070  Biso   1.000  C
  C25      1.0000 0.79010  0.48500  0.85240  Biso   1.000  C
  C26      1.0000 0.20990  0.51500  0.14760  Biso   1.000  C
  C27      1.0000 0.76280  0.53390  0.94380  Biso   1.000  C
  C28      1.0000 0.23720  0.46610  0.05620  Biso   1.000  C
  C29      1.0000 0.83170  0.86830  0.62850  Biso   1.000  C
  C30      1.0000 0.16830  0.13170  0.37150  Biso   1.000  C
  C31      1.0000 0.97080  0.80620  0.67590  Biso   1.000  C
  C32      1.0000 0.02920  0.19380  0.32410  Biso   1.000  C
  H1       1.0000 0.58060  0.33370  0.64480  Biso   1.000  H
  H2       1.0000 0.41940  0.66630  0.35520  Biso   1.000  H
  H3       1.0000 0.83090  0.44490  0.58910  Biso   1.000  H
  H4       1.0000 0.16910  0.55510  0.41090  Biso   1.000  H
  H5       1.0000 0.07480  0.12650  0.76750  Biso   1.000  H
  H6       1.0000 0.92520  0.87350  0.23250  Biso   1.000  H
  H7       1.0000 0.92580  0.92510  0.87050  Biso   1.000  H
  H8       1.0000 0.07420  0.07490  0.12950  Biso   1.000  H
  H9       1.0000 0.73290  0.90400  0.85280  Biso   1.000  H
  H10      1.0000 0.26710  0.09600  0.14720  Biso   1.000  H
  H11      1.0000 0.76350  0.93280  0.00640  Biso   1.000  H
  H12      1.0000 0.23650  0.06720  0.99360  Biso   1.000  H
  H13      1.0000 0.65480  0.06970  0.94940  Biso   1.000  H
  H14      1.0000 0.34520  0.93030  0.05060  Biso   1.000  H
  H15      1.0000 0.84760  0.09130  0.96700  Biso   1.000  H
  H16      1.0000 0.15240  0.90870  0.03300  Biso   1.000  H
  H17      1.0000 0.56120  0.63980  0.73600  Biso   1.000  H
  H18      1.0000 0.43880  0.36020  0.26400  Biso   1.000  H
  H19      1.0000 0.89250  0.42170  0.85600  Biso   1.000  H
  H20      1.0000 0.10750  0.57830  0.14400  Biso   1.000  H
  H21      1.0000 0.69460  0.42450  0.84320  Biso   1.000  H
  H22      1.0000 0.30540  0.57550  0.15680  Biso   1.000  H
  H23      1.0000 0.75220  0.44570  0.99530  Biso   1.000  H
  H24      1.0000 0.24780  0.55430  0.00470  Biso   1.000  H
  H25      1.0000 0.66050  0.59520  0.94090  Biso   1.000  H
  H26      1.0000 0.33950  0.40480  0.05910  Biso   1.000  H
  H27      1.0000 0.85820  0.59210  0.95370  Biso   1.000  H
  H28      1.0000 0.14180  0.40790  0.04630  Biso   1.000  H
  H29      1.0000 0.84360  0.95750  0.58170  Biso   1.000  H
  H30      1.0000 0.15640  0.04250  0.41830  Biso   1.000  H
  H31      1.0000 0.07590  0.85090  0.65800  Biso   1.000  H
  H32      1.0000 0.92410  0.14910  0.34200  Biso   1.000  H
