data_image0
_cell_length_a       12.536
_cell_length_b       10.2034
_cell_length_c       5.5845
_cell_angle_alpha    90
_cell_angle_beta     93.544
_cell_angle_gamma    90

_symmetry_space_group_name_H-M    "P 1"
_symmetry_int_tables_number       1

loop_
  _symmetry_equiv_pos_as_xyz
  'x, y, z'

loop_
  _atom_site_label
  _atom_site_occupancy
  _atom_site_fract_x
  _atom_site_fract_y
  _atom_site_fract_z
  _atom_site_thermal_displace_type
  _atom_site_B_iso_or_equiv
  _atom_site_type_symbol
  Cu1      1.0000 0.30780  0.00000  0.59620  Biso   1.000  Cu
  Cu2      1.0000 0.69220  0.00000  0.40380  Biso   1.000  Cu
  Cu3      1.0000 0.80780  0.50000  0.59620  Biso   1.000  Cu
  Cu4      1.0000 0.19220  0.50000  0.40380  Biso   1.000  Cu
  Cu5      1.0000 0.00000  0.00000  0.00000  Biso   1.000  Cu
  Cu6      1.0000 0.50000  0.50000  0.00000  Biso   1.000  Cu
  N1       1.0000 0.27670  0.15450  0.83190  Biso   1.000  N
  N2       1.0000 0.72330  0.15450  0.16810  Biso   1.000  N
  N3       1.0000 0.77670  0.65450  0.83190  Biso   1.000  N
  N4       1.0000 0.22330  0.65450  0.16810  Biso   1.000  N
  N5       1.0000 0.72330  0.84550  0.16810  Biso   1.000  N
  N6       1.0000 0.27670  0.84550  0.83190  Biso   1.000  N
  N7       1.0000 0.22330  0.34550  0.16810  Biso   1.000  N
  N8       1.0000 0.77670  0.34550  0.83190  Biso   1.000  N
  N9       1.0000 0.18200  0.00000  0.37020  Biso   1.000  N
  N10      1.0000 0.81800  0.00000  0.62980  Biso   1.000  N
  N11      1.0000 0.68200  0.50000  0.37020  Biso   1.000  N
  N12      1.0000 0.31800  0.50000  0.62980  Biso   1.000  N
  C1       1.0000 0.45560  0.00000  0.52520  Biso   1.000  C
  C2       1.0000 0.54440  0.00000  0.47480  Biso   1.000  C
  C3       1.0000 0.95560  0.50000  0.52520  Biso   1.000  C
  C4       1.0000 0.04440  0.50000  0.47480  Biso   1.000  C
  C5       1.0000 0.11040  0.00000  0.23430  Biso   1.000  C
  C6       1.0000 0.88960  0.00000  0.76570  Biso   1.000  C
  C7       1.0000 0.61040  0.50000  0.23430  Biso   1.000  C
  C8       1.0000 0.38960  0.50000  0.76570  Biso   1.000  C
  C9       1.0000 0.18700  0.22690  0.80320  Biso   1.000  C
  C10      1.0000 0.81300  0.22690  0.19680  Biso   1.000  C
  C11      1.0000 0.68700  0.72690  0.80320  Biso   1.000  C
  C12      1.0000 0.31300  0.72690  0.19680  Biso   1.000  C
  C13      1.0000 0.81300  0.77310  0.19680  Biso   1.000  C
  C14      1.0000 0.18700  0.77310  0.80320  Biso   1.000  C
  C15      1.0000 0.31300  0.27310  0.19680  Biso   1.000  C
  C16      1.0000 0.68700  0.27310  0.80320  Biso   1.000  C
  C17      1.0000 0.33910  0.18120  0.02970  Biso   1.000  C
  C18      1.0000 0.66090  0.18120  0.97030  Biso   1.000  C
  C19      1.0000 0.83910  0.68120  0.02970  Biso   1.000  C
  C20      1.0000 0.16090  0.68120  0.97030  Biso   1.000  C
  C21      1.0000 0.66090  0.81880  0.97030  Biso   1.000  C
  C22      1.0000 0.33910  0.81880  0.02970  Biso   1.000  C
  C23      1.0000 0.16090  0.31880  0.97030  Biso   1.000  C
  C24      1.0000 0.83910  0.31880  0.02970  Biso   1.000  C
  H1       1.0000 0.14150  0.21450  0.66720  Biso   1.000  H
  H2       1.0000 0.85850  0.21450  0.33280  Biso   1.000  H
  H3       1.0000 0.64150  0.71450  0.66720  Biso   1.000  H
  H4       1.0000 0.35850  0.71450  0.33280  Biso   1.000  H
  H5       1.0000 0.85850  0.78550  0.33280  Biso   1.000  H
  H6       1.0000 0.14150  0.78550  0.66720  Biso   1.000  H
  H7       1.0000 0.35850  0.28550  0.33280  Biso   1.000  H
  H8       1.0000 0.64150  0.28550  0.66720  Biso   1.000  H
  H9       1.0000 0.40290  0.13540  0.05510  Biso   1.000  H
  H10      1.0000 0.59710  0.13540  0.94490  Biso   1.000  H
  H11      1.0000 0.90290  0.63540  0.05510  Biso   1.000  H
  H12      1.0000 0.09710  0.63540  0.94490  Biso   1.000  H
  H13      1.0000 0.59710  0.86460  0.94490  Biso   1.000  H
  H14      1.0000 0.40290  0.86460  0.05510  Biso   1.000  H
  H15      1.0000 0.09710  0.36460  0.94490  Biso   1.000  H
  H16      1.0000 0.90290  0.36460  0.05510  Biso   1.000  H
