data_image0
_cell_length_a       9.5676
_cell_length_b       12.8333
_cell_length_c       12.909
_cell_angle_alpha    80.392
_cell_angle_beta     85.036
_cell_angle_gamma    71.907

_symmetry_space_group_name_H-M    "P 1"
_symmetry_int_tables_number       1

loop_
  _symmetry_equiv_pos_as_xyz
  'x, y, z'

loop_
  _atom_site_label
  _atom_site_occupancy
  _atom_site_fract_x
  _atom_site_fract_y
  _atom_site_fract_z
  _atom_site_thermal_displace_type
  _atom_site_B_iso_or_equiv
  _atom_site_type_symbol
  Cu1      1.0000 0.57830  0.59230  0.50270  Biso   1.000  Cu
  Cu2      1.0000 0.42170  0.40770  0.49730  Biso   1.000  Cu
  Cu3      1.0000 0.83700  0.24220  0.36410  Biso   1.000  Cu
  Cu4      1.0000 0.16300  0.75780  0.63590  Biso   1.000  Cu
  Cu5      1.0000 0.32870  0.97250  0.32250  Biso   1.000  Cu
  Cu6      1.0000 0.67130  0.02750  0.67750  Biso   1.000  Cu
  Cu7      1.0000 0.12380  0.01060  0.17310  Biso   1.000  Cu
  Cu8      1.0000 0.87620  0.98940  0.82690  Biso   1.000  Cu
  Cu9      1.0000 0.84460  0.38340  0.99530  Biso   1.000  Cu
  Cu10     1.0000 0.15540  0.61660  0.00470  Biso   1.000  Cu
  Cu11     1.0000 0.61800  0.74310  0.12680  Biso   1.000  Cu
  Cu12     1.0000 0.38200  0.25690  0.87320  Biso   1.000  Cu
  N1       1.0000 0.70120  0.15870  0.32170  Biso   1.000  N
  N2       1.0000 0.29880  0.84130  0.67830  Biso   1.000  N
  N3       1.0000 0.49960  0.04550  0.30180  Biso   1.000  N
  N4       1.0000 0.50040  0.95450  0.69820  Biso   1.000  N
  N5       1.0000 0.75490  0.82470  0.16730  Biso   1.000  N
  N6       1.0000 0.24510  0.17530  0.83270  Biso   1.000  N
  N7       1.0000 0.95270  0.93740  0.19270  Biso   1.000  N
  N8       1.0000 0.04730  0.06260  0.80730  Biso   1.000  N
  N9       1.0000 0.78180  0.43730  0.84300  Biso   1.000  N
  N10      1.0000 0.21820  0.56270  0.15700  Biso   1.000  N
  N11      1.0000 0.65190  0.53910  0.65270  Biso   1.000  N
  N12      1.0000 0.34810  0.46090  0.34730  Biso   1.000  N
  N13      1.0000 0.68250  0.46290  0.43790  Biso   1.000  N
  N14      1.0000 0.31750  0.53710  0.56210  Biso   1.000  N
  N15      1.0000 0.74790  0.38170  0.40400  Biso   1.000  N
  N16      1.0000 0.25210  0.61830  0.59600  Biso   1.000  N
  N17      1.0000 0.02430  0.13220  0.36270  Biso   1.000  N
  N18      1.0000 0.97570  0.86780  0.63730  Biso   1.000  N
  N19      1.0000 0.13750  0.06960  0.34480  Biso   1.000  N
  N20      1.0000 0.86250  0.93040  0.65520  Biso   1.000  N
  N21      1.0000 0.42680  0.82600  0.39550  Biso   1.000  N
  N22      1.0000 0.57320  0.17400  0.60450  Biso   1.000  N
  N23      1.0000 0.48570  0.73870  0.43910  Biso   1.000  N
  N24      1.0000 0.51430  0.26130  0.56090  Biso   1.000  N
  N25      1.0000 0.42800  0.85260  0.13040  Biso   1.000  N
  N26      1.0000 0.57200  0.14740  0.86960  Biso   1.000  N
  N27      1.0000 0.31550  0.91380  0.15070  Biso   1.000  N
  N28      1.0000 0.68450  0.08620  0.84930  Biso   1.000  N
  N29      1.0000 0.02570  0.15660  0.09790  Biso   1.000  N
  N30      1.0000 0.97430  0.84340  0.90210  Biso   1.000  N
  N31      1.0000 0.96180  0.24310  0.05520  Biso   1.000  N
  N32      1.0000 0.03820  0.75690  0.94480  Biso   1.000  N
  N33      1.0000 0.73870  0.51660  0.05460  Biso   1.000  N
  N34      1.0000 0.26130  0.48340  0.94540  Biso   1.000  N
  N35      1.0000 0.68820  0.60220  0.08440  Biso   1.000  N
  N36      1.0000 0.31180  0.39780  0.91560  Biso   1.000  N
  C1       1.0000 0.60100  0.19670  0.24690  Biso   1.000  C
  C2       1.0000 0.39900  0.80330  0.75310  Biso   1.000  C
  C3       1.0000 0.49910  0.13970  0.23520  Biso   1.000  C
  C4       1.0000 0.50090  0.86030  0.76480  Biso   1.000  C
  C5       1.0000 0.60380  0.00720  0.37430  Biso   1.000  C
  C6       1.0000 0.39620  0.99280  0.62570  Biso   1.000  C
  C7       1.0000 0.70230  0.06320  0.38390  Biso   1.000  C
  C8       1.0000 0.29770  0.93680  0.61610  Biso   1.000  C
  C9       1.0000 0.60070  0.30130  0.17290  Biso   1.000  C
  C10      1.0000 0.39930  0.69870  0.82710  Biso   1.000  C
  C11      1.0000 0.39320  0.17820  0.14890  Biso   1.000  C
  C12      1.0000 0.60680  0.82180  0.85110  Biso   1.000  C
  C13      1.0000 0.85510  0.78530  0.24300  Biso   1.000  C
  C14      1.0000 0.14490  0.21470  0.75700  Biso   1.000  C
  C15      1.0000 0.95400  0.84380  0.25690  Biso   1.000  C
  C16      1.0000 0.04600  0.15620  0.74310  Biso   1.000  C
  C17      1.0000 0.85170  0.97650  0.11920  Biso   1.000  C
  C18      1.0000 0.14830  0.02350  0.88080  Biso   1.000  C
  C19      1.0000 0.75230  0.92150  0.10660  Biso   1.000  C
  C20      1.0000 0.24770  0.07850  0.89340  Biso   1.000  C
  C21      1.0000 0.85360  0.67920  0.31180  Biso   1.000  C
  C22      1.0000 0.14640  0.32080  0.68820  Biso   1.000  C
  C23      1.0000 0.06050  0.80280  0.34430  Biso   1.000  C
  C24      1.0000 0.93950  0.19720  0.65570  Biso   1.000  C
  C25      1.0000 0.67520  0.40590  0.80880  Biso   1.000  C
  C26      1.0000 0.32480  0.59410  0.19120  Biso   1.000  C
  C27      1.0000 0.61170  0.45520  0.71350  Biso   1.000  C
  C28      1.0000 0.38830  0.54480  0.28650  Biso   1.000  C
  C29      1.0000 0.82380  0.52040  0.78330  Biso   1.000  C
  C30      1.0000 0.17620  0.47960  0.21670  Biso   1.000  C
  C31      1.0000 0.94250  0.55470  0.82280  Biso   1.000  C
  C32      1.0000 0.05750  0.44530  0.17720  Biso   1.000  C
  C33      1.0000 0.75640  0.57210  0.68700  Biso   1.000  C
  C34      1.0000 0.24360  0.42790  0.31300  Biso   1.000  C
  C35      1.0000 0.80060  0.66530  0.62170  Biso   1.000  C
  C36      1.0000 0.19940  0.33470  0.37830  Biso   1.000  C
  H1       1.0000 0.60930  0.94120  0.41890  Biso   1.000  H
  H2       1.0000 0.39070  0.05880  0.58110  Biso   1.000  H
  H3       1.0000 0.77220  0.03410  0.43530  Biso   1.000  H
  H4       1.0000 0.22780  0.96590  0.56470  Biso   1.000  H
  H5       1.0000 0.67590  0.32920  0.19160  Biso   1.000  H
  H6       1.0000 0.32410  0.67080  0.80840  Biso   1.000  H
  H7       1.0000 0.50650  0.35610  0.17790  Biso   1.000  H
  H8       1.0000 0.49350  0.64390  0.82210  Biso   1.000  H
  H9       1.0000 0.61950  0.28520  0.10210  Biso   1.000  H
  H10      1.0000 0.38050  0.71480  0.89790  Biso   1.000  H
  H11      1.0000 0.33380  0.12940  0.15380  Biso   1.000  H
  H12      1.0000 0.66620  0.87060  0.84620  Biso   1.000  H
  H13      1.0000 0.44640  0.17810  0.08230  Biso   1.000  H
  H14      1.0000 0.55360  0.82190  0.91770  Biso   1.000  H
  H15      1.0000 0.33120  0.25190  0.15470  Biso   1.000  H
  H16      1.0000 0.66880  0.74810  0.84530  Biso   1.000  H
  H17      1.0000 0.84810  0.04250  0.07530  Biso   1.000  H
  H18      1.0000 0.15190  0.95750  0.92470  Biso   1.000  H
  H19      1.0000 0.68240  0.95190  0.05540  Biso   1.000  H
  H20      1.0000 0.31760  0.04810  0.94460  Biso   1.000  H
  H21      1.0000 0.77900  0.65290  0.28960  Biso   1.000  H
  H22      1.0000 0.22100  0.34710  0.71040  Biso   1.000  H
  H23      1.0000 0.83280  0.69210  0.38340  Biso   1.000  H
  H24      1.0000 0.16720  0.30790  0.61660  Biso   1.000  H
  H25      1.0000 0.94790  0.62470  0.30630  Biso   1.000  H
  H26      1.0000 0.05210  0.37530  0.69370  Biso   1.000  H
  H27      1.0000 0.11850  0.85230  0.34200  Biso   1.000  H
  H28      1.0000 0.88150  0.14770  0.65800  Biso   1.000  H
  H29      1.0000 0.12400  0.73000  0.33620  Biso   1.000  H
  H30      1.0000 0.87600  0.27000  0.66380  Biso   1.000  H
  H31      1.0000 0.00720  0.79980  0.41070  Biso   1.000  H
  H32      1.0000 0.99280  0.20020  0.58930  Biso   1.000  H
  H33      1.0000 0.64330  0.35020  0.84970  Biso   1.000  H
  H34      1.0000 0.35670  0.64980  0.15030  Biso   1.000  H
  H35      1.0000 0.54000  0.43030  0.69040  Biso   1.000  H
  H36      1.0000 0.46000  0.56970  0.30960  Biso   1.000  H
  H37      1.0000 0.97400  0.51010  0.88890  Biso   1.000  H
  H38      1.0000 0.02600  0.48990  0.11110  Biso   1.000  H
  H39      1.0000 0.90550  0.63130  0.83200  Biso   1.000  H
  H40      1.0000 0.09450  0.36870  0.16800  Biso   1.000  H
  H41      1.0000 0.02430  0.54470  0.77290  Biso   1.000  H
  H42      1.0000 0.97570  0.45530  0.22710  Biso   1.000  H
  H43      1.0000 0.74400  0.69040  0.55950  Biso   1.000  H
  H44      1.0000 0.25600  0.30960  0.44050  Biso   1.000  H
  H45      1.0000 0.90330  0.64010  0.60210  Biso   1.000  H
  H46      1.0000 0.09670  0.35990  0.39790  Biso   1.000  H
  H47      1.0000 0.78280  0.72530  0.66150  Biso   1.000  H
  H48      1.0000 0.21720  0.27470  0.33850  Biso   1.000  H
