data_image0
_cell_length_a       14.14
_cell_length_b       8.8882
_cell_length_c       7.2353
_cell_angle_alpha    90
_cell_angle_beta     97.584
_cell_angle_gamma    90

_symmetry_space_group_name_H-M    "P 1"
_symmetry_int_tables_number       1

loop_
  _symmetry_equiv_pos_as_xyz
  'x, y, z'

loop_
  _atom_site_label
  _atom_site_occupancy
  _atom_site_fract_x
  _atom_site_fract_y
  _atom_site_fract_z
  _atom_site_thermal_displace_type
  _atom_site_B_iso_or_equiv
  _atom_site_type_symbol
  Cu1      1.0000 0.29000  0.84620  0.12630  Biso   1.000  Cu
  Cu2      1.0000 0.71000  0.84620  0.37370  Biso   1.000  Cu
  Cu3      1.0000 0.79000  0.34620  0.12630  Biso   1.000  Cu
  Cu4      1.0000 0.21000  0.34620  0.37370  Biso   1.000  Cu
  Cu5      1.0000 0.71000  0.15380  0.87370  Biso   1.000  Cu
  Cu6      1.0000 0.29000  0.15380  0.62630  Biso   1.000  Cu
  Cu7      1.0000 0.21000  0.65380  0.87370  Biso   1.000  Cu
  Cu8      1.0000 0.79000  0.65380  0.62630  Biso   1.000  Cu
  N1       1.0000 0.41740  0.93220  0.04980  Biso   1.000  N
  N2       1.0000 0.58260  0.93220  0.45020  Biso   1.000  N
  N3       1.0000 0.91740  0.43220  0.04980  Biso   1.000  N
  N4       1.0000 0.08260  0.43220  0.45020  Biso   1.000  N
  N5       1.0000 0.58260  0.06780  0.95020  Biso   1.000  N
  N6       1.0000 0.41740  0.06780  0.54980  Biso   1.000  N
  N7       1.0000 0.08260  0.56780  0.95020  Biso   1.000  N
  N8       1.0000 0.91740  0.56780  0.54980  Biso   1.000  N
  N9       1.0000 0.26440  0.53260  0.28530  Biso   1.000  N
  N10      1.0000 0.73560  0.53260  0.21470  Biso   1.000  N
  N11      1.0000 0.76440  0.03260  0.28530  Biso   1.000  N
  N12      1.0000 0.23560  0.03260  0.21470  Biso   1.000  N
  N13      1.0000 0.73560  0.46740  0.71470  Biso   1.000  N
  N14      1.0000 0.26440  0.46740  0.78530  Biso   1.000  N
  N15      1.0000 0.23560  0.96740  0.71470  Biso   1.000  N
  N16      1.0000 0.76440  0.96740  0.78530  Biso   1.000  N
  N17      1.0000 0.27500  0.64720  0.21600  Biso   1.000  N
  N18      1.0000 0.72500  0.64720  0.28400  Biso   1.000  N
  N19      1.0000 0.77500  0.14720  0.21600  Biso   1.000  N
  N20      1.0000 0.22500  0.14720  0.28400  Biso   1.000  N
  N21      1.0000 0.72500  0.35280  0.78400  Biso   1.000  N
  N22      1.0000 0.27500  0.35280  0.71600  Biso   1.000  N
  N23      1.0000 0.22500  0.85280  0.78400  Biso   1.000  N
  N24      1.0000 0.77500  0.85280  0.71600  Biso   1.000  N
  C1       1.0000 0.42890  0.08230  0.04730  Biso   1.000  C
  C2       1.0000 0.57110  0.08230  0.45270  Biso   1.000  C
  C3       1.0000 0.92890  0.58230  0.04730  Biso   1.000  C
  C4       1.0000 0.07110  0.58230  0.45270  Biso   1.000  C
  C5       1.0000 0.57110  0.91770  0.95270  Biso   1.000  C
  C6       1.0000 0.42890  0.91770  0.54730  Biso   1.000  C
  C7       1.0000 0.07110  0.41770  0.95270  Biso   1.000  C
  C8       1.0000 0.92890  0.41770  0.54730  Biso   1.000  C
  C9       1.0000 0.48960  0.84840  0.00070  Biso   1.000  C
  C10      1.0000 0.51040  0.84840  0.49930  Biso   1.000  C
  C11      1.0000 0.98960  0.34840  0.00070  Biso   1.000  C
  C12      1.0000 0.01040  0.34840  0.49930  Biso   1.000  C
  C13      1.0000 0.51040  0.15160  0.99930  Biso   1.000  C
  C14      1.0000 0.48960  0.15160  0.50070  Biso   1.000  C
  C15      1.0000 0.01040  0.65160  0.99930  Biso   1.000  C
  C16      1.0000 0.98960  0.65160  0.50070  Biso   1.000  C
  C17      1.0000 0.47950  0.68090  0.99320  Biso   1.000  C
  C18      1.0000 0.52050  0.68090  0.50680  Biso   1.000  C
  C19      1.0000 0.97950  0.18090  0.99320  Biso   1.000  C
  C20      1.0000 0.02050  0.18090  0.50680  Biso   1.000  C
  C21      1.0000 0.52050  0.31910  0.00680  Biso   1.000  C
  C22      1.0000 0.47950  0.31910  0.49320  Biso   1.000  C
  C23      1.0000 0.02050  0.81910  0.00680  Biso   1.000  C
  C24      1.0000 0.97950  0.81910  0.49320  Biso   1.000  C
  H1       1.0000 0.53700  0.63800  0.98600  Biso   1.000  H
  H2       1.0000 0.46300  0.63800  0.51400  Biso   1.000  H
  H3       1.0000 0.03700  0.13800  0.98600  Biso   1.000  H
  H4       1.0000 0.96300  0.13800  0.51400  Biso   1.000  H
  H5       1.0000 0.46300  0.36200  0.01400  Biso   1.000  H
  H6       1.0000 0.53700  0.36200  0.48600  Biso   1.000  H
  H7       1.0000 0.96300  0.86200  0.01400  Biso   1.000  H
  H8       1.0000 0.03700  0.86200  0.48600  Biso   1.000  H
  H9       1.0000 0.38400  0.13900  0.07000  Biso   1.000  H
  H10      1.0000 0.61600  0.13900  0.43000  Biso   1.000  H
  H11      1.0000 0.88400  0.63900  0.07000  Biso   1.000  H
  H12      1.0000 0.11600  0.63900  0.43000  Biso   1.000  H
  H13      1.0000 0.61600  0.86100  0.93000  Biso   1.000  H
  H14      1.0000 0.38400  0.86100  0.57000  Biso   1.000  H
  H15      1.0000 0.11600  0.36100  0.93000  Biso   1.000  H
  H16      1.0000 0.88400  0.36100  0.57000  Biso   1.000  H
  H17      1.0000 0.43200  0.64400  0.89500  Biso   1.000  H
  H18      1.0000 0.56800  0.64400  0.60500  Biso   1.000  H
  H19      1.0000 0.93200  0.14400  0.89500  Biso   1.000  H
  H20      1.0000 0.06800  0.14400  0.60500  Biso   1.000  H
  H21      1.0000 0.56800  0.35600  0.10500  Biso   1.000  H
  H22      1.0000 0.43200  0.35600  0.39500  Biso   1.000  H
  H23      1.0000 0.06800  0.85600  0.10500  Biso   1.000  H
  H24      1.0000 0.93200  0.85600  0.39500  Biso   1.000  H
  H25      1.0000 0.45100  0.64600  0.10100  Biso   1.000  H
  H26      1.0000 0.54900  0.64600  0.39900  Biso   1.000  H
  H27      1.0000 0.95100  0.14600  0.10100  Biso   1.000  H
  H28      1.0000 0.04900  0.14600  0.39900  Biso   1.000  H
  H29      1.0000 0.54900  0.35400  0.89900  Biso   1.000  H
  H30      1.0000 0.45100  0.35400  0.60100  Biso   1.000  H
  H31      1.0000 0.04900  0.85400  0.89900  Biso   1.000  H
  H32      1.0000 0.95100  0.85400  0.60100  Biso   1.000  H
