data_image0
_cell_length_a       9.6328
_cell_length_b       23.4438
_cell_length_c       6.8997
_cell_angle_alpha    90
_cell_angle_beta     98.826
_cell_angle_gamma    90

_symmetry_space_group_name_H-M    "P 1"
_symmetry_int_tables_number       1

loop_
  _symmetry_equiv_pos_as_xyz
  'x, y, z'

loop_
  _atom_site_label
  _atom_site_occupancy
  _atom_site_fract_x
  _atom_site_fract_y
  _atom_site_fract_z
  _atom_site_thermal_displace_type
  _atom_site_B_iso_or_equiv
  _atom_site_type_symbol
  Cu1      1.0000 0.00906  0.29763  0.35600  Biso   1.000  Cu
  Cu2      1.0000 0.99094  0.79763  0.14400  Biso   1.000  Cu
  Cu3      1.0000 0.99094  0.70237  0.64400  Biso   1.000  Cu
  Cu4      1.0000 0.00906  0.20237  0.85600  Biso   1.000  Cu
  Cu5      1.0000 0.32845  0.44430  0.65365  Biso   1.000  Cu
  Cu6      1.0000 0.67155  0.94430  0.84635  Biso   1.000  Cu
  Cu7      1.0000 0.67155  0.55570  0.34635  Biso   1.000  Cu
  Cu8      1.0000 0.32845  0.05570  0.15365  Biso   1.000  Cu
  Cu9      1.0000 0.15408  0.46562  0.27905  Biso   1.000  Cu
  Cu10     1.0000 0.84592  0.96562  0.22095  Biso   1.000  Cu
  Cu11     1.0000 0.84592  0.53438  0.72095  Biso   1.000  Cu
  Cu12     1.0000 0.15408  0.03438  0.77905  Biso   1.000  Cu
  N1       1.0000 0.80150  0.32425  0.27940  Biso   1.000  N
  N2       1.0000 0.19850  0.82425  0.22060  Biso   1.000  N
  N3       1.0000 0.19850  0.67575  0.72060  Biso   1.000  N
  N4       1.0000 0.80150  0.17575  0.77940  Biso   1.000  N
  N5       1.0000 0.92210  0.22040  0.32260  Biso   1.000  N
  N6       1.0000 0.07790  0.72040  0.17740  Biso   1.000  N
  N7       1.0000 0.07790  0.77960  0.67740  Biso   1.000  N
  N8       1.0000 0.92210  0.27960  0.82260  Biso   1.000  N
  N9       1.0000 0.23720  0.37806  0.50310  Biso   1.000  N
  N10      1.0000 0.76280  0.87806  0.99690  Biso   1.000  N
  N11      1.0000 0.76280  0.62194  0.49690  Biso   1.000  N
  N12      1.0000 0.23720  0.12194  0.00310  Biso   1.000  N
  N13      1.0000 0.45860  0.48689  0.53350  Biso   1.000  N
  N14      1.0000 0.54140  0.98689  0.96650  Biso   1.000  N
  N15      1.0000 0.54140  0.51311  0.46650  Biso   1.000  N
  N16      1.0000 0.45860  0.01311  0.03350  Biso   1.000  N
  N17      1.0000 0.03810  0.49187  0.44890  Biso   1.000  N
  N18      1.0000 0.96190  0.99187  0.05110  Biso   1.000  N
  N19      1.0000 0.96190  0.50813  0.55110  Biso   1.000  N
  N20      1.0000 0.03810  0.00813  0.94890  Biso   1.000  N
  C1       1.0000 0.74160  0.37528  0.25780  Biso   1.000  C
  C2       1.0000 0.25840  0.87528  0.24220  Biso   1.000  C
  C3       1.0000 0.25840  0.62472  0.74220  Biso   1.000  C
  C4       1.0000 0.74160  0.12472  0.75780  Biso   1.000  C
  H1       1.0000 0.79950  0.40720  0.27670  Biso   1.000  H
  H2       1.0000 0.20050  0.90720  0.22330  Biso   1.000  H
  H3       1.0000 0.20050  0.59280  0.72330  Biso   1.000  H
  H4       1.0000 0.79950  0.09280  0.77670  Biso   1.000  H
  C5       1.0000 0.59910  0.38397  0.20910  Biso   1.000  C
  C6       1.0000 0.40090  0.88397  0.29090  Biso   1.000  C
  C7       1.0000 0.40090  0.61603  0.79090  Biso   1.000  C
  C8       1.0000 0.59910  0.11603  0.70910  Biso   1.000  C
  H5       1.0000 0.56280  0.42080  0.19550  Biso   1.000  H
  H6       1.0000 0.43720  0.92080  0.30450  Biso   1.000  H
  H7       1.0000 0.43720  0.57920  0.80450  Biso   1.000  H
  H8       1.0000 0.56280  0.07920  0.69550  Biso   1.000  H
  C9       1.0000 0.51200  0.33792  0.18100  Biso   1.000  C
  C10      1.0000 0.48800  0.83792  0.31900  Biso   1.000  C
  C11      1.0000 0.48800  0.66208  0.81900  Biso   1.000  C
  C12      1.0000 0.51200  0.16208  0.68100  Biso   1.000  C
  H9       1.0000 0.41550  0.34300  0.14770  Biso   1.000  H
  H10      1.0000 0.58450  0.84300  0.35230  Biso   1.000  H
  H11      1.0000 0.58450  0.65700  0.85230  Biso   1.000  H
  H12      1.0000 0.41550  0.15700  0.64770  Biso   1.000  H
  C13      1.0000 0.56920  0.28278  0.20260  Biso   1.000  C
  C14      1.0000 0.43080  0.78278  0.29740  Biso   1.000  C
  C15      1.0000 0.43080  0.71722  0.79740  Biso   1.000  C
  C16      1.0000 0.56920  0.21722  0.70260  Biso   1.000  C
  C17      1.0000 0.48770  0.23120  0.17550  Biso   1.000  C
  C18      1.0000 0.51230  0.73120  0.32450  Biso   1.000  C
  C19      1.0000 0.51230  0.76880  0.82450  Biso   1.000  C
  C20      1.0000 0.48770  0.26880  0.67550  Biso   1.000  C
  H13      1.0000 0.39060  0.23350  0.14270  Biso   1.000  H
  H14      1.0000 0.60940  0.73350  0.35730  Biso   1.000  H
  H15      1.0000 0.60940  0.76650  0.85730  Biso   1.000  H
  H16      1.0000 0.39060  0.26650  0.64270  Biso   1.000  H
  C21      1.0000 0.54850  0.18045  0.19640  Biso   1.000  C
  C22      1.0000 0.45150  0.68045  0.30360  Biso   1.000  C
  C23      1.0000 0.45150  0.81955  0.80360  Biso   1.000  C
  C24      1.0000 0.54850  0.31955  0.69640  Biso   1.000  C
  H17      1.0000 0.49230  0.14810  0.17820  Biso   1.000  H
  H18      1.0000 0.50770  0.64810  0.32180  Biso   1.000  H
  H19      1.0000 0.50770  0.85190  0.82180  Biso   1.000  H
  H20      1.0000 0.49230  0.35190  0.67820  Biso   1.000  H
  C25      1.0000 0.69730  0.17341  0.24580  Biso   1.000  C
  C26      1.0000 0.30270  0.67341  0.25420  Biso   1.000  C
  C27      1.0000 0.30270  0.82659  0.75420  Biso   1.000  C
  C28      1.0000 0.69730  0.32659  0.74580  Biso   1.000  C
  C29      1.0000 0.76640  0.12091  0.26990  Biso   1.000  C
  C30      1.0000 0.23360  0.62091  0.23010  Biso   1.000  C
  C31      1.0000 0.23360  0.87909  0.73010  Biso   1.000  C
  C32      1.0000 0.76640  0.37909  0.76990  Biso   1.000  C
  H21      1.0000 0.71470  0.08730  0.25180  Biso   1.000  H
  H22      1.0000 0.28530  0.58730  0.24820  Biso   1.000  H
  H23      1.0000 0.28530  0.91270  0.74820  Biso   1.000  H
  H24      1.0000 0.71470  0.41270  0.75180  Biso   1.000  H
  C33      1.0000 0.90730  0.11850  0.31920  Biso   1.000  C
  C34      1.0000 0.09270  0.61850  0.18080  Biso   1.000  C
  C35      1.0000 0.09270  0.88150  0.68080  Biso   1.000  C
  C36      1.0000 0.90730  0.38150  0.81920  Biso   1.000  C
  H25      1.0000 0.95310  0.08350  0.33590  Biso   1.000  H
  H26      1.0000 0.04690  0.58350  0.16410  Biso   1.000  H
  H27      1.0000 0.04690  0.91650  0.66410  Biso   1.000  H
  H28      1.0000 0.95310  0.41650  0.83590  Biso   1.000  H
  C37      1.0000 0.98290  0.16929  0.34460  Biso   1.000  C
  C38      1.0000 0.01710  0.66929  0.15540  Biso   1.000  C
  C39      1.0000 0.01710  0.83071  0.65540  Biso   1.000  C
  C40      1.0000 0.98290  0.33071  0.84460  Biso   1.000  C
  H29      1.0000 0.08010  0.16740  0.37830  Biso   1.000  H
  H30      1.0000 0.91990  0.66740  0.12170  Biso   1.000  H
  H31      1.0000 0.91990  0.83260  0.62170  Biso   1.000  H
  H32      1.0000 0.08010  0.33260  0.87830  Biso   1.000  H
  C41      1.0000 0.78060  0.22272  0.27400  Biso   1.000  C
  C42      1.0000 0.21940  0.72272  0.22600  Biso   1.000  C
  C43      1.0000 0.21940  0.77728  0.72600  Biso   1.000  C
  C44      1.0000 0.78060  0.27728  0.77400  Biso   1.000  C
  C45      1.0000 0.71550  0.27799  0.25060  Biso   1.000  C
  C46      1.0000 0.28450  0.77799  0.24940  Biso   1.000  C
  C47      1.0000 0.28450  0.72201  0.74940  Biso   1.000  C
  C48      1.0000 0.71550  0.22201  0.75060  Biso   1.000  C
  C49      1.0000 0.15960  0.34458  0.43920  Biso   1.000  C
  C50      1.0000 0.84040  0.84458  0.06080  Biso   1.000  C
  C51      1.0000 0.84040  0.65542  0.56080  Biso   1.000  C
  C52      1.0000 0.15960  0.15542  0.93920  Biso   1.000  C
  C53      1.0000 0.27460  0.45087  0.90680  Biso   1.000  C
  C54      1.0000 0.72540  0.95087  0.59320  Biso   1.000  C
  C55      1.0000 0.72540  0.54913  0.09320  Biso   1.000  C
  C56      1.0000 0.27460  0.04913  0.40680  Biso   1.000  C
  C57      1.0000 0.23360  0.45573  0.05400  Biso   1.000  C
  C58      1.0000 0.76640  0.95573  0.44600  Biso   1.000  C
  C59      1.0000 0.76640  0.54427  0.94600  Biso   1.000  C
  C60      1.0000 0.23360  0.04427  0.55400  Biso   1.000  C
