data_image0
_cell_length_a       6.79
_cell_length_b       24.642
_cell_length_c       18.136
_cell_angle_alpha    90
_cell_angle_beta     99.43
_cell_angle_gamma    90

_symmetry_space_group_name_H-M    "P 1"
_symmetry_int_tables_number       1

loop_
  _symmetry_equiv_pos_as_xyz
  'x, y, z'

loop_
  _atom_site_label
  _atom_site_occupancy
  _atom_site_fract_x
  _atom_site_fract_y
  _atom_site_fract_z
  _atom_site_thermal_displace_type
  _atom_site_B_iso_or_equiv
  _atom_site_type_symbol
  Cu1      1.0000 0.63781  0.57896  0.44086  Biso   1.000  Cu
  Cu2      1.0000 0.13781  0.07896  0.44086  Biso   1.000  Cu
  Cu3      1.0000 0.36219  0.57896  0.05914  Biso   1.000  Cu
  Cu4      1.0000 0.86219  0.07896  0.05914  Biso   1.000  Cu
  Cu5      1.0000 0.36219  0.42104  0.55914  Biso   1.000  Cu
  Cu6      1.0000 0.86219  0.92104  0.55914  Biso   1.000  Cu
  Cu7      1.0000 0.63781  0.42104  0.94086  Biso   1.000  Cu
  Cu8      1.0000 0.13781  0.92104  0.94086  Biso   1.000  Cu
  Cu9      1.0000 0.25966  0.57965  0.33521  Biso   1.000  Cu
  Cu10     1.0000 0.75966  0.07965  0.33521  Biso   1.000  Cu
  Cu11     1.0000 0.74034  0.57965  0.16479  Biso   1.000  Cu
  Cu12     1.0000 0.24034  0.07965  0.16479  Biso   1.000  Cu
  Cu13     1.0000 0.74034  0.42035  0.66479  Biso   1.000  Cu
  Cu14     1.0000 0.24034  0.92035  0.66479  Biso   1.000  Cu
  Cu15     1.0000 0.25966  0.42035  0.83521  Biso   1.000  Cu
  Cu16     1.0000 0.75966  0.92035  0.83521  Biso   1.000  Cu
  Cu17     1.0000 0.32909  0.75378  0.37598  Biso   1.000  Cu
  Cu18     1.0000 0.82909  0.25378  0.37598  Biso   1.000  Cu
  Cu19     1.0000 0.67091  0.75378  0.12402  Biso   1.000  Cu
  Cu20     1.0000 0.17091  0.25378  0.12402  Biso   1.000  Cu
  Cu21     1.0000 0.67091  0.24622  0.62402  Biso   1.000  Cu
  Cu22     1.0000 0.17091  0.74622  0.62402  Biso   1.000  Cu
  Cu23     1.0000 0.32909  0.24622  0.87598  Biso   1.000  Cu
  Cu24     1.0000 0.82909  0.74622  0.87598  Biso   1.000  Cu
  N1       1.0000 0.88720  0.58110  0.40480  Biso   1.000  N
  N2       1.0000 0.38720  0.08110  0.40480  Biso   1.000  N
  N3       1.0000 0.11280  0.58110  0.09520  Biso   1.000  N
  N4       1.0000 0.61280  0.08110  0.09520  Biso   1.000  N
  N5       1.0000 0.11280  0.41890  0.59520  Biso   1.000  N
  N6       1.0000 0.61280  0.91890  0.59520  Biso   1.000  N
  N7       1.0000 0.88720  0.41890  0.90480  Biso   1.000  N
  N8       1.0000 0.38720  0.91890  0.90480  Biso   1.000  N
  N9       1.0000 0.48940  0.64630  0.43520  Biso   1.000  N
  N10      1.0000 0.98940  0.14630  0.43520  Biso   1.000  N
  N11      1.0000 0.51060  0.64630  0.06480  Biso   1.000  N
  N12      1.0000 0.01060  0.14630  0.06480  Biso   1.000  N
  N13      1.0000 0.51060  0.35370  0.56480  Biso   1.000  N
  N14      1.0000 0.01060  0.85370  0.56480  Biso   1.000  N
  N15      1.0000 0.48940  0.35370  0.93520  Biso   1.000  N
  N16      1.0000 0.98940  0.85370  0.93520  Biso   1.000  N
  N17      1.0000 0.24940  0.75790  0.26030  Biso   1.000  N
  N18      1.0000 0.74940  0.25790  0.26030  Biso   1.000  N
  N19      1.0000 0.75060  0.75790  0.23970  Biso   1.000  N
  N20      1.0000 0.25060  0.25790  0.23970  Biso   1.000  N
  N21      1.0000 0.75060  0.24210  0.73970  Biso   1.000  N
  N22      1.0000 0.25060  0.74210  0.73970  Biso   1.000  N
  N23      1.0000 0.24940  0.24210  0.76030  Biso   1.000  N
  N24      1.0000 0.74940  0.74210  0.76030  Biso   1.000  N
  N25      1.0000 0.31390  0.83420  0.36780  Biso   1.000  N
  N26      1.0000 0.81390  0.33420  0.36780  Biso   1.000  N
  N27      1.0000 0.68610  0.83420  0.13220  Biso   1.000  N
  N28      1.0000 0.18610  0.33420  0.13220  Biso   1.000  N
  N29      1.0000 0.68610  0.16580  0.63220  Biso   1.000  N
  N30      1.0000 0.18610  0.66580  0.63220  Biso   1.000  N
  N31      1.0000 0.31390  0.16580  0.86780  Biso   1.000  N
  N32      1.0000 0.81390  0.66580  0.86780  Biso   1.000  N
  C1       1.0000 0.53160  0.51850  0.48560  Biso   1.000  C
  C2       1.0000 0.03160  0.01850  0.48560  Biso   1.000  C
  C3       1.0000 0.46840  0.51850  0.01440  Biso   1.000  C
  C4       1.0000 0.96840  0.01850  0.01440  Biso   1.000  C
  C5       1.0000 0.46840  0.48150  0.51440  Biso   1.000  C
  C6       1.0000 0.96840  0.98150  0.51440  Biso   1.000  C
  C7       1.0000 0.53160  0.48150  0.98560  Biso   1.000  C
  C8       1.0000 0.03160  0.98150  0.98560  Biso   1.000  C
  C9       1.0000 0.03380  0.58010  0.38030  Biso   1.000  C
  C10      1.0000 0.53380  0.08010  0.38030  Biso   1.000  C
  C11      1.0000 0.96620  0.58010  0.11970  Biso   1.000  C
  C12      1.0000 0.46620  0.08010  0.11970  Biso   1.000  C
  C13      1.0000 0.96620  0.41990  0.61970  Biso   1.000  C
  C14      1.0000 0.46620  0.91990  0.61970  Biso   1.000  C
  C15      1.0000 0.03380  0.41990  0.88030  Biso   1.000  C
  C16      1.0000 0.53380  0.91990  0.88030  Biso   1.000  C
  C17      1.0000 0.44280  0.57440  0.27070  Biso   1.000  C
  C18      1.0000 0.94280  0.07440  0.27070  Biso   1.000  C
  C19      1.0000 0.55720  0.57440  0.22930  Biso   1.000  C
  C20      1.0000 0.05720  0.07440  0.22930  Biso   1.000  C
  C21      1.0000 0.55720  0.42560  0.72930  Biso   1.000  C
  C22      1.0000 0.05720  0.92560  0.72930  Biso   1.000  C
  C23      1.0000 0.44280  0.42560  0.77070  Biso   1.000  C
  C24      1.0000 0.94280  0.92560  0.77070  Biso   1.000  C
  C25      1.0000 0.41350  0.68740  0.41950  Biso   1.000  C
  C26      1.0000 0.91350  0.18740  0.41950  Biso   1.000  C
  C27      1.0000 0.58650  0.68740  0.08050  Biso   1.000  C
  C28      1.0000 0.08650  0.18740  0.08050  Biso   1.000  C
  C29      1.0000 0.58650  0.31260  0.58050  Biso   1.000  C
  C30      1.0000 0.08650  0.81260  0.58050  Biso   1.000  C
  C31      1.0000 0.41350  0.31260  0.91950  Biso   1.000  C
  C32      1.0000 0.91350  0.81260  0.91950  Biso   1.000  C
  C33      1.0000 0.21100  0.71960  0.20860  Biso   1.000  C
  C34      1.0000 0.71100  0.21960  0.20860  Biso   1.000  C
  C35      1.0000 0.78900  0.71960  0.29140  Biso   1.000  C
  C36      1.0000 0.28900  0.21960  0.29140  Biso   1.000  C
  C37      1.0000 0.78900  0.28040  0.79140  Biso   1.000  C
  C38      1.0000 0.28900  0.78040  0.79140  Biso   1.000  C
  C39      1.0000 0.21100  0.28040  0.70860  Biso   1.000  C
  C40      1.0000 0.71100  0.78040  0.70860  Biso   1.000  C
  C41      1.0000 0.15850  0.73090  0.13240  Biso   1.000  C
  C42      1.0000 0.65850  0.23090  0.13240  Biso   1.000  C
  C43      1.0000 0.84150  0.73090  0.36760  Biso   1.000  C
  C44      1.0000 0.34150  0.23090  0.36760  Biso   1.000  C
  C45      1.0000 0.84150  0.26910  0.86760  Biso   1.000  C
  C46      1.0000 0.34150  0.76910  0.86760  Biso   1.000  C
  C47      1.0000 0.15850  0.26910  0.63240  Biso   1.000  C
  C48      1.0000 0.65850  0.76910  0.63240  Biso   1.000  C
  C49      1.0000 0.15020  0.78360  0.10970  Biso   1.000  C
  C50      1.0000 0.65020  0.28360  0.10970  Biso   1.000  C
  C51      1.0000 0.84980  0.78360  0.39030  Biso   1.000  C
  C52      1.0000 0.34980  0.28360  0.39030  Biso   1.000  C
  C53      1.0000 0.84980  0.21640  0.89030  Biso   1.000  C
  C54      1.0000 0.34980  0.71640  0.89030  Biso   1.000  C
  C55      1.0000 0.15020  0.21640  0.60970  Biso   1.000  C
  C56      1.0000 0.65020  0.71640  0.60970  Biso   1.000  C
  C57      1.0000 0.19110  0.82580  0.16270  Biso   1.000  C
  C58      1.0000 0.69110  0.32580  0.16270  Biso   1.000  C
  C59      1.0000 0.80890  0.82580  0.33730  Biso   1.000  C
  C60      1.0000 0.30890  0.32580  0.33730  Biso   1.000  C
  C61      1.0000 0.80890  0.17420  0.83730  Biso   1.000  C
  C62      1.0000 0.30890  0.67420  0.83730  Biso   1.000  C
  C63      1.0000 0.19110  0.17420  0.66270  Biso   1.000  C
  C64      1.0000 0.69110  0.67420  0.66270  Biso   1.000  C
  C65      1.0000 0.18370  0.88200  0.14440  Biso   1.000  C
  C66      1.0000 0.68370  0.38200  0.14440  Biso   1.000  C
  C67      1.0000 0.81630  0.88200  0.35560  Biso   1.000  C
  C68      1.0000 0.31630  0.38200  0.35560  Biso   1.000  C
  C69      1.0000 0.81630  0.11800  0.85560  Biso   1.000  C
  C70      1.0000 0.31630  0.61800  0.85560  Biso   1.000  C
  C71      1.0000 0.18370  0.11800  0.64440  Biso   1.000  C
  C72      1.0000 0.68370  0.61800  0.64440  Biso   1.000  C
  C73      1.0000 0.21750  0.92050  0.19700  Biso   1.000  C
  C74      1.0000 0.71750  0.42050  0.19700  Biso   1.000  C
  C75      1.0000 0.78250  0.92050  0.30300  Biso   1.000  C
  C76      1.0000 0.28250  0.42050  0.30300  Biso   1.000  C
  C77      1.0000 0.78250  0.07950  0.80300  Biso   1.000  C
  C78      1.0000 0.28250  0.57950  0.80300  Biso   1.000  C
  C79      1.0000 0.21750  0.07950  0.69700  Biso   1.000  C
  C80      1.0000 0.71750  0.57950  0.69700  Biso   1.000  C
  C81      1.0000 0.26500  0.90650  0.27600  Biso   1.000  C
  C82      1.0000 0.76500  0.40650  0.27600  Biso   1.000  C
  C83      1.0000 0.73500  0.90650  0.22400  Biso   1.000  C
  C84      1.0000 0.23500  0.40650  0.22400  Biso   1.000  C
  C85      1.0000 0.73500  0.09350  0.72400  Biso   1.000  C
  C86      1.0000 0.23500  0.59350  0.72400  Biso   1.000  C
  C87      1.0000 0.26500  0.09350  0.77600  Biso   1.000  C
  C88      1.0000 0.76500  0.59350  0.77600  Biso   1.000  C
  C89      1.0000 0.29920  0.94500  0.33370  Biso   1.000  C
  C90      1.0000 0.79920  0.44500  0.33370  Biso   1.000  C
  C91      1.0000 0.70080  0.94500  0.16630  Biso   1.000  C
  C92      1.0000 0.20080  0.44500  0.16630  Biso   1.000  C
  C93      1.0000 0.70080  0.05500  0.66630  Biso   1.000  C
  C94      1.0000 0.20080  0.55500  0.66630  Biso   1.000  C
  C95      1.0000 0.29920  0.05500  0.83370  Biso   1.000  C
  C96      1.0000 0.79920  0.55500  0.83370  Biso   1.000  C
  C97      1.0000 0.33810  0.92730  0.40580  Biso   1.000  C
  C98      1.0000 0.83810  0.42730  0.40580  Biso   1.000  C
  C99      1.0000 0.66190  0.92730  0.09420  Biso   1.000  C
  C100     1.0000 0.16190  0.42730  0.09420  Biso   1.000  C
  C101     1.0000 0.66190  0.07270  0.59420  Biso   1.000  C
  C102     1.0000 0.16190  0.57270  0.59420  Biso   1.000  C
  C103     1.0000 0.33810  0.07270  0.90580  Biso   1.000  C
  C104     1.0000 0.83810  0.57270  0.90580  Biso   1.000  C
  C105     1.0000 0.34670  0.87160  0.42100  Biso   1.000  C
  C106     1.0000 0.84670  0.37160  0.42100  Biso   1.000  C
  C107     1.0000 0.65330  0.87160  0.07900  Biso   1.000  C
  C108     1.0000 0.15330  0.37160  0.07900  Biso   1.000  C
  C109     1.0000 0.65330  0.12840  0.57900  Biso   1.000  C
  C110     1.0000 0.15330  0.62840  0.57900  Biso   1.000  C
  C111     1.0000 0.34670  0.12840  0.92100  Biso   1.000  C
  C112     1.0000 0.84670  0.62840  0.92100  Biso   1.000  C
  C113     1.0000 0.27360  0.85120  0.29510  Biso   1.000  C
  C114     1.0000 0.77360  0.35120  0.29510  Biso   1.000  C
  C115     1.0000 0.72640  0.85120  0.20490  Biso   1.000  C
  C116     1.0000 0.22640  0.35120  0.20490  Biso   1.000  C
  C117     1.0000 0.72640  0.14880  0.70490  Biso   1.000  C
  C118     1.0000 0.22640  0.64880  0.70490  Biso   1.000  C
  C119     1.0000 0.27360  0.14880  0.79510  Biso   1.000  C
  C120     1.0000 0.77360  0.64880  0.79510  Biso   1.000  C
  C121     1.0000 0.23760  0.81050  0.23800  Biso   1.000  C
  C122     1.0000 0.73760  0.31050  0.23800  Biso   1.000  C
  C123     1.0000 0.76240  0.81050  0.26200  Biso   1.000  C
  C124     1.0000 0.26240  0.31050  0.26200  Biso   1.000  C
  C125     1.0000 0.76240  0.18950  0.76200  Biso   1.000  C
  C126     1.0000 0.26240  0.68950  0.76200  Biso   1.000  C
  C127     1.0000 0.23760  0.18950  0.73800  Biso   1.000  C
  C128     1.0000 0.73760  0.68950  0.73800  Biso   1.000  C
  H1       1.0000 0.21940  0.68350  0.22370  Biso   1.000  H
  H2       1.0000 0.71940  0.18350  0.22370  Biso   1.000  H
  H3       1.0000 0.78060  0.68350  0.27630  Biso   1.000  H
  H4       1.0000 0.28060  0.18350  0.27630  Biso   1.000  H
  H5       1.0000 0.78060  0.31650  0.77630  Biso   1.000  H
  H6       1.0000 0.28060  0.81650  0.77630  Biso   1.000  H
  H7       1.0000 0.21940  0.31650  0.72370  Biso   1.000  H
  H8       1.0000 0.71940  0.81650  0.72370  Biso   1.000  H
  H9       1.0000 0.12980  0.70290  0.09790  Biso   1.000  H
  H10      1.0000 0.62980  0.20290  0.09790  Biso   1.000  H
  H11      1.0000 0.87020  0.70290  0.40210  Biso   1.000  H
  H12      1.0000 0.37020  0.20290  0.40210  Biso   1.000  H
  H13      1.0000 0.87020  0.29710  0.90210  Biso   1.000  H
  H14      1.0000 0.37020  0.79710  0.90210  Biso   1.000  H
  H15      1.0000 0.12980  0.29710  0.59790  Biso   1.000  H
  H16      1.0000 0.62980  0.79710  0.59790  Biso   1.000  H
  H17      1.0000 0.11740  0.79190  0.05920  Biso   1.000  H
  H18      1.0000 0.61740  0.29190  0.05920  Biso   1.000  H
  H19      1.0000 0.88260  0.79190  0.44080  Biso   1.000  H
  H20      1.0000 0.38260  0.29190  0.44080  Biso   1.000  H
  H21      1.0000 0.88260  0.20810  0.94080  Biso   1.000  H
  H22      1.0000 0.38260  0.70810  0.94080  Biso   1.000  H
  H23      1.0000 0.11740  0.20810  0.55920  Biso   1.000  H
  H24      1.0000 0.61740  0.70810  0.55920  Biso   1.000  H
  H25      1.0000 0.15470  0.89230  0.09440  Biso   1.000  H
  H26      1.0000 0.65470  0.39230  0.09440  Biso   1.000  H
  H27      1.0000 0.84530  0.89230  0.40560  Biso   1.000  H
  H28      1.0000 0.34530  0.39230  0.40560  Biso   1.000  H
  H29      1.0000 0.84530  0.10770  0.90560  Biso   1.000  H
  H30      1.0000 0.34530  0.60770  0.90560  Biso   1.000  H
  H31      1.0000 0.15470  0.10770  0.59440  Biso   1.000  H
  H32      1.0000 0.65470  0.60770  0.59440  Biso   1.000  H
  H33      1.0000 0.21040  0.95680  0.18300  Biso   1.000  H
  H34      1.0000 0.71040  0.45680  0.18300  Biso   1.000  H
  H35      1.0000 0.78960  0.95680  0.31700  Biso   1.000  H
  H36      1.0000 0.28960  0.45680  0.31700  Biso   1.000  H
  H37      1.0000 0.78960  0.04320  0.81700  Biso   1.000  H
  H38      1.0000 0.28960  0.54320  0.81700  Biso   1.000  H
  H39      1.0000 0.21040  0.04320  0.68300  Biso   1.000  H
  H40      1.0000 0.71040  0.54320  0.68300  Biso   1.000  H
  H41      1.0000 0.29540  0.98190  0.32290  Biso   1.000  H
  H42      1.0000 0.79540  0.48190  0.32290  Biso   1.000  H
  H43      1.0000 0.70460  0.98190  0.17710  Biso   1.000  H
  H44      1.0000 0.20460  0.48190  0.17710  Biso   1.000  H
  H45      1.0000 0.70460  0.01810  0.67710  Biso   1.000  H
  H46      1.0000 0.20460  0.51810  0.67710  Biso   1.000  H
  H47      1.0000 0.29540  0.01810  0.82290  Biso   1.000  H
  H48      1.0000 0.79540  0.51810  0.82290  Biso   1.000  H
  H49      1.0000 0.35890  0.95220  0.44480  Biso   1.000  H
  H50      1.0000 0.85890  0.45220  0.44480  Biso   1.000  H
  H51      1.0000 0.64110  0.95220  0.05520  Biso   1.000  H
  H52      1.0000 0.14110  0.45220  0.05520  Biso   1.000  H
  H53      1.0000 0.64110  0.04780  0.55520  Biso   1.000  H
  H54      1.0000 0.14110  0.54780  0.55520  Biso   1.000  H
  H55      1.0000 0.35890  0.04780  0.94480  Biso   1.000  H
  H56      1.0000 0.85890  0.54780  0.94480  Biso   1.000  H
  H57      1.0000 0.37660  0.86030  0.47050  Biso   1.000  H
  H58      1.0000 0.87660  0.36030  0.47050  Biso   1.000  H
  H59      1.0000 0.62340  0.86030  0.02950  Biso   1.000  H
  H60      1.0000 0.12340  0.36030  0.02950  Biso   1.000  H
  H61      1.0000 0.62340  0.13970  0.52950  Biso   1.000  H
  H62      1.0000 0.12340  0.63970  0.52950  Biso   1.000  H
  H63      1.0000 0.37660  0.13970  0.97050  Biso   1.000  H
  H64      1.0000 0.87660  0.63970  0.97050  Biso   1.000  H
