data_image0
_cell_length_a       9.6979
_cell_length_b       23.5984
_cell_length_c       6.8989
_cell_angle_alpha    90
_cell_angle_beta     99.263
_cell_angle_gamma    90

_symmetry_space_group_name_H-M    "P 1"
_symmetry_int_tables_number       1

loop_
  _symmetry_equiv_pos_as_xyz
  'x, y, z'

loop_
  _atom_site_label
  _atom_site_occupancy
  _atom_site_fract_x
  _atom_site_fract_y
  _atom_site_fract_z
  _atom_site_thermal_displace_type
  _atom_site_B_iso_or_equiv
  _atom_site_type_symbol
  Cu1      1.0000 0.48970  0.29390  0.64070  Biso   1.000  Cu
  Cu2      1.0000 0.51030  0.79390  0.85930  Biso   1.000  Cu
  Cu3      1.0000 0.51030  0.70610  0.35930  Biso   1.000  Cu
  Cu4      1.0000 0.48970  0.20610  0.14070  Biso   1.000  Cu
  Cu5      1.0000 0.17180  0.44370  0.34830  Biso   1.000  Cu
  Cu6      1.0000 0.82820  0.94370  0.15170  Biso   1.000  Cu
  Cu7      1.0000 0.82820  0.55630  0.65170  Biso   1.000  Cu
  Cu8      1.0000 0.17180  0.05630  0.84830  Biso   1.000  Cu
  Cu9      1.0000 0.34440  0.46360  0.71740  Biso   1.000  Cu
  Cu10     1.0000 0.65560  0.96360  0.78260  Biso   1.000  Cu
  Cu11     1.0000 0.65560  0.53640  0.28260  Biso   1.000  Cu
  Cu12     1.0000 0.34440  0.03640  0.21740  Biso   1.000  Cu
  N1       1.0000 0.69740  0.32190  0.71560  Biso   1.000  N
  N2       1.0000 0.30260  0.82190  0.78440  Biso   1.000  N
  N3       1.0000 0.30260  0.67810  0.28440  Biso   1.000  N
  N4       1.0000 0.69740  0.17810  0.21560  Biso   1.000  N
  N5       1.0000 0.57880  0.21730  0.67310  Biso   1.000  N
  N6       1.0000 0.42120  0.71730  0.82690  Biso   1.000  N
  N7       1.0000 0.42120  0.78270  0.32690  Biso   1.000  N
  N8       1.0000 0.57880  0.28270  0.17310  Biso   1.000  N
  C1       1.0000 0.75330  0.37320  0.73350  Biso   1.000  C
  C2       1.0000 0.24670  0.87320  0.76650  Biso   1.000  C
  C3       1.0000 0.24670  0.62680  0.26650  Biso   1.000  C
  C4       1.0000 0.75330  0.12680  0.23350  Biso   1.000  C
  C5       1.0000 0.89780  0.38280  0.77980  Biso   1.000  C
  C6       1.0000 0.10220  0.88280  0.72020  Biso   1.000  C
  C7       1.0000 0.10220  0.61720  0.22020  Biso   1.000  C
  C8       1.0000 0.89780  0.11720  0.27980  Biso   1.000  C
  C9       1.0000 0.98800  0.33750  0.80410  Biso   1.000  C
  C10      1.0000 0.01200  0.83750  0.69590  Biso   1.000  C
  C11      1.0000 0.01200  0.66250  0.19590  Biso   1.000  C
  C12      1.0000 0.98800  0.16250  0.30410  Biso   1.000  C
  C13      1.0000 0.93220  0.28210  0.78720  Biso   1.000  C
  C14      1.0000 0.06780  0.78210  0.71280  Biso   1.000  C
  C15      1.0000 0.06780  0.71790  0.21280  Biso   1.000  C
  C16      1.0000 0.93220  0.21790  0.28720  Biso   1.000  C
  C17      1.0000 0.78590  0.27630  0.73930  Biso   1.000  C
  C18      1.0000 0.21410  0.77630  0.76070  Biso   1.000  C
  C19      1.0000 0.21410  0.72370  0.26070  Biso   1.000  C
  C20      1.0000 0.78590  0.22370  0.23930  Biso   1.000  C
  C21      1.0000 0.01550  0.23090  0.81230  Biso   1.000  C
  C22      1.0000 0.98450  0.73090  0.68770  Biso   1.000  C
  C23      1.0000 0.98450  0.76910  0.18770  Biso   1.000  C
  C24      1.0000 0.01550  0.26910  0.31230  Biso   1.000  C
  C25      1.0000 0.95720  0.17880  0.79260  Biso   1.000  C
  C26      1.0000 0.04280  0.67880  0.70740  Biso   1.000  C
  C27      1.0000 0.04280  0.82120  0.20740  Biso   1.000  C
  C28      1.0000 0.95720  0.32120  0.29260  Biso   1.000  C
  C29      1.0000 0.80690  0.17170  0.74450  Biso   1.000  C
  C30      1.0000 0.19310  0.67170  0.75550  Biso   1.000  C
  C31      1.0000 0.19310  0.82830  0.25550  Biso   1.000  C
  C32      1.0000 0.80690  0.32830  0.24450  Biso   1.000  C
  C33      1.0000 0.72220  0.22040  0.71950  Biso   1.000  C
  C34      1.0000 0.27780  0.72040  0.78050  Biso   1.000  C
  C35      1.0000 0.27780  0.77960  0.28050  Biso   1.000  C
  C36      1.0000 0.72220  0.27960  0.21950  Biso   1.000  C
  C37      1.0000 0.74020  0.11840  0.72350  Biso   1.000  C
  C38      1.0000 0.25980  0.61840  0.77650  Biso   1.000  C
  C39      1.0000 0.25980  0.88160  0.27650  Biso   1.000  C
  C40      1.0000 0.74020  0.38160  0.22350  Biso   1.000  C
  C41      1.0000 0.59610  0.11550  0.67630  Biso   1.000  C
  C42      1.0000 0.40390  0.61550  0.82370  Biso   1.000  C
  C43      1.0000 0.40390  0.88450  0.32370  Biso   1.000  C
  C44      1.0000 0.59610  0.38450  0.17630  Biso   1.000  C
  C45      1.0000 0.51930  0.16600  0.65200  Biso   1.000  C
  C46      1.0000 0.48070  0.66600  0.84800  Biso   1.000  C
  C47      1.0000 0.48070  0.83400  0.34800  Biso   1.000  C
  C48      1.0000 0.51930  0.33400  0.15200  Biso   1.000  C
  C49      1.0000 0.33990  0.34320  0.55830  Biso   1.000  C
  C50      1.0000 0.66010  0.84320  0.94170  Biso   1.000  C
  C51      1.0000 0.66010  0.65680  0.44170  Biso   1.000  C
  C52      1.0000 0.33990  0.15680  0.05830  Biso   1.000  C
  C53      1.0000 0.26290  0.37850  0.49880  Biso   1.000  C
  C54      1.0000 0.73710  0.87850  0.00120  Biso   1.000  C
  C55      1.0000 0.73710  0.62150  0.50120  Biso   1.000  C
  C56      1.0000 0.26290  0.12150  0.99880  Biso   1.000  C
  C57      1.0000 0.22300  0.44930  0.09170  Biso   1.000  C
  C58      1.0000 0.77700  0.94930  0.40830  Biso   1.000  C
  C59      1.0000 0.77700  0.55070  0.90830  Biso   1.000  C
  C60      1.0000 0.22300  0.05070  0.59170  Biso   1.000  C
  C61      1.0000 0.26490  0.45400  0.94440  Biso   1.000  C
  C62      1.0000 0.73510  0.95400  0.55560  Biso   1.000  C
  C63      1.0000 0.73510  0.54600  0.05560  Biso   1.000  C
  C64      1.0000 0.26490  0.04600  0.44440  Biso   1.000  C
  C65      1.0000 0.46210  0.49120  0.55080  Biso   1.000  C
  C66      1.0000 0.53790  0.99120  0.94920  Biso   1.000  C
  C67      1.0000 0.53790  0.50880  0.44920  Biso   1.000  C
  C68      1.0000 0.46210  0.00880  0.05080  Biso   1.000  C
  C69      1.0000 0.04200  0.48710  0.46660  Biso   1.000  C
  C70      1.0000 0.95800  0.98710  0.03340  Biso   1.000  C
  C71      1.0000 0.95800  0.51290  0.53340  Biso   1.000  C
  C72      1.0000 0.04200  0.01290  0.96660  Biso   1.000  C
  H1       1.0000 0.69400  0.40440  0.71450  Biso   1.000  H
  H2       1.0000 0.30600  0.90440  0.78550  Biso   1.000  H
  H3       1.0000 0.30600  0.59560  0.28550  Biso   1.000  H
  H4       1.0000 0.69400  0.09560  0.21450  Biso   1.000  H
  H5       1.0000 0.93220  0.41960  0.79390  Biso   1.000  H
  H6       1.0000 0.06780  0.91960  0.70610  Biso   1.000  H
  H7       1.0000 0.06780  0.58040  0.20610  Biso   1.000  H
  H8       1.0000 0.93220  0.08040  0.29390  Biso   1.000  H
  H9       1.0000 0.08410  0.34320  0.83120  Biso   1.000  H
  H10      1.0000 0.91590  0.84320  0.66880  Biso   1.000  H
  H11      1.0000 0.91590  0.65680  0.16880  Biso   1.000  H
  H12      1.0000 0.08410  0.15680  0.33120  Biso   1.000  H
  H13      1.0000 0.11220  0.23400  0.84300  Biso   1.000  H
  H14      1.0000 0.88780  0.73400  0.65700  Biso   1.000  H
  H15      1.0000 0.88780  0.76600  0.15700  Biso   1.000  H
  H16      1.0000 0.11220  0.26600  0.34300  Biso   1.000  H
  H17      1.0000 0.01430  0.14700  0.81000  Biso   1.000  H
  H18      1.0000 0.98570  0.64700  0.69000  Biso   1.000  H
  H19      1.0000 0.98570  0.85300  0.19000  Biso   1.000  H
  H20      1.0000 0.01430  0.35300  0.31000  Biso   1.000  H
  H21      1.0000 0.79280  0.08540  0.74140  Biso   1.000  H
  H22      1.0000 0.20720  0.58540  0.75860  Biso   1.000  H
  H23      1.0000 0.20720  0.91460  0.25860  Biso   1.000  H
  H24      1.0000 0.79280  0.41460  0.24140  Biso   1.000  H
  H25      1.0000 0.55110  0.08070  0.66090  Biso   1.000  H
  H26      1.0000 0.44890  0.58070  0.83910  Biso   1.000  H
  H27      1.0000 0.44890  0.91930  0.33910  Biso   1.000  H
  H28      1.0000 0.55110  0.41930  0.16090  Biso   1.000  H
  H29      1.0000 0.42260  0.16370  0.61980  Biso   1.000  H
  H30      1.0000 0.57740  0.66370  0.88020  Biso   1.000  H
  H31      1.0000 0.57740  0.83630  0.38020  Biso   1.000  H
  H32      1.0000 0.42260  0.33630  0.11980  Biso   1.000  H
