data_image0
_cell_length_a       9.602
_cell_length_b       23.373
_cell_length_c       6.8885
_cell_angle_alpha    90
_cell_angle_beta     98.749
_cell_angle_gamma    90

_symmetry_space_group_name_H-M    "P 1"
_symmetry_int_tables_number       1

loop_
  _symmetry_equiv_pos_as_xyz
  'x, y, z'

loop_
  _atom_site_label
  _atom_site_occupancy
  _atom_site_fract_x
  _atom_site_fract_y
  _atom_site_fract_z
  _atom_site_thermal_displace_type
  _atom_site_B_iso_or_equiv
  _atom_site_type_symbol
  Cu1      1.0000 0.17210  0.55594  0.84699  Biso   1.000  Cu
  Cu2      1.0000 0.82790  0.05594  0.65301  Biso   1.000  Cu
  Cu3      1.0000 0.82790  0.44406  0.15301  Biso   1.000  Cu
  Cu4      1.0000 0.17210  0.94406  0.34699  Biso   1.000  Cu
  Cu5      1.0000 0.34574  0.53428  0.22115  Biso   1.000  Cu
  Cu6      1.0000 0.65426  0.03428  0.27885  Biso   1.000  Cu
  Cu7      1.0000 0.65426  0.46572  0.77885  Biso   1.000  Cu
  Cu8      1.0000 0.34574  0.96572  0.72115  Biso   1.000  Cu
  Cu9      1.0000 0.49083  0.70232  0.14416  Biso   1.000  Cu
  Cu10     1.0000 0.50917  0.20232  0.35584  Biso   1.000  Cu
  Cu11     1.0000 0.50917  0.29768  0.85584  Biso   1.000  Cu
  Cu12     1.0000 0.49083  0.79768  0.64416  Biso   1.000  Cu
  N1       1.0000 0.57890  0.77907  0.17890  Biso   1.000  N
  N2       1.0000 0.42110  0.27907  0.32110  Biso   1.000  N
  N3       1.0000 0.42110  0.22093  0.82110  Biso   1.000  N
  N4       1.0000 0.57890  0.72093  0.67890  Biso   1.000  N
  C1       1.0000 0.78500  0.72230  0.24680  Biso   1.000  C
  C2       1.0000 0.21500  0.22230  0.25320  Biso   1.000  C
  C3       1.0000 0.21500  0.27770  0.75320  Biso   1.000  C
  C4       1.0000 0.78500  0.77770  0.74680  Biso   1.000  C
  C5       1.0000 0.01070  0.76870  0.32380  Biso   1.000  C
  C6       1.0000 0.98930  0.26870  0.17620  Biso   1.000  C
  C7       1.0000 0.98930  0.23130  0.67620  Biso   1.000  C
  C8       1.0000 0.01070  0.73130  0.82380  Biso   1.000  C
  H1       1.0000 0.10820  0.76700  0.35640  Biso   1.000  H
  H2       1.0000 0.89180  0.26700  0.14360  Biso   1.000  H
  H3       1.0000 0.89180  0.23300  0.64360  Biso   1.000  H
  H4       1.0000 0.10820  0.73300  0.85640  Biso   1.000  H
  N5       1.0000 0.22480  0.54950  0.59250  Biso   1.000  N
  N6       1.0000 0.77520  0.04950  0.90750  Biso   1.000  N
  N7       1.0000 0.77520  0.45050  0.40750  Biso   1.000  N
  N8       1.0000 0.22480  0.95050  0.09250  Biso   1.000  N
  N9       1.0000 0.26270  0.62125  0.99630  Biso   1.000  N
  N10      1.0000 0.73730  0.12125  0.50370  Biso   1.000  N
  N11      1.0000 0.73730  0.37875  0.00370  Biso   1.000  N
  N12      1.0000 0.26270  0.87875  0.49630  Biso   1.000  N
  C9       1.0000 0.80200  0.82610  0.25260  Biso   1.000  C
  C10      1.0000 0.19800  0.32610  0.24740  Biso   1.000  C
  C11      1.0000 0.19800  0.17390  0.74740  Biso   1.000  C
  C12      1.0000 0.80200  0.67390  0.75260  Biso   1.000  C
  C13      1.0000 0.94880  0.82010  0.30190  Biso   1.000  C
  C14      1.0000 0.05120  0.32010  0.19810  Biso   1.000  C
  C15      1.0000 0.05120  0.17990  0.69810  Biso   1.000  C
  C16      1.0000 0.94880  0.67990  0.80190  Biso   1.000  C
  H5       1.0000 0.00440  0.85290  0.31830  Biso   1.000  H
  H6       1.0000 0.99560  0.35290  0.18170  Biso   1.000  H
  H7       1.0000 0.99560  0.14710  0.68170  Biso   1.000  H
  H8       1.0000 0.00440  0.64710  0.81830  Biso   1.000  H
  C17      1.0000 0.72230  0.77760  0.22610  Biso   1.000  C
  C18      1.0000 0.27770  0.27760  0.27390  Biso   1.000  C
  C19      1.0000 0.27770  0.22240  0.77390  Biso   1.000  C
  C20      1.0000 0.72230  0.72240  0.72610  Biso   1.000  C
  N13      1.0000 0.69910  0.67536  0.22040  Biso   1.000  N
  N14      1.0000 0.30090  0.17536  0.27960  Biso   1.000  N
  N15      1.0000 0.30090  0.32464  0.77960  Biso   1.000  N
  N16      1.0000 0.69910  0.82464  0.72040  Biso   1.000  N
  C21      1.0000 0.73450  0.87900  0.23090  Biso   1.000  C
  C22      1.0000 0.26550  0.37900  0.26910  Biso   1.000  C
  C23      1.0000 0.26550  0.12100  0.76910  Biso   1.000  C
  C24      1.0000 0.73450  0.62100  0.73090  Biso   1.000  C
  H9       1.0000 0.78620  0.91270  0.24840  Biso   1.000  H
  H10      1.0000 0.21380  0.41270  0.25160  Biso   1.000  H
  H11      1.0000 0.21380  0.08730  0.75160  Biso   1.000  H
  H12      1.0000 0.78620  0.58730  0.74840  Biso   1.000  H
  C25      1.0000 0.34120  0.65490  0.06020  Biso   1.000  C
  C26      1.0000 0.65880  0.15490  0.43980  Biso   1.000  C
  C27      1.0000 0.65880  0.34510  0.93980  Biso   1.000  C
  C28      1.0000 0.34120  0.84510  0.56020  Biso   1.000  C
  C29      1.0000 0.93150  0.71700  0.29580  Biso   1.000  C
  C30      1.0000 0.06850  0.21700  0.20420  Biso   1.000  C
  C31      1.0000 0.06850  0.28300  0.70420  Biso   1.000  C
  C32      1.0000 0.93150  0.78300  0.79580  Biso   1.000  C
  C33      1.0000 0.90340  0.61640  0.29020  Biso   1.000  C
  C34      1.0000 0.09660  0.11640  0.20980  Biso   1.000  C
  C35      1.0000 0.09660  0.38360  0.70980  Biso   1.000  C
  C36      1.0000 0.90340  0.88360  0.79020  Biso   1.000  C
  H13      1.0000 0.94000  0.57950  0.30260  Biso   1.000  H
  H14      1.0000 0.06000  0.07950  0.19740  Biso   1.000  H
  H15      1.0000 0.06000  0.42050  0.69740  Biso   1.000  H
  H16      1.0000 0.94000  0.92050  0.80260  Biso   1.000  H
  N17      1.0000 0.04170  0.51315  0.96250  Biso   1.000  N
  N18      1.0000 0.95830  0.01315  0.53750  Biso   1.000  N
  N19      1.0000 0.95830  0.48685  0.03750  Biso   1.000  N
  N20      1.0000 0.04170  0.98685  0.46250  Biso   1.000  N
  C37      1.0000 0.75750  0.62600  0.24280  Biso   1.000  C
  C38      1.0000 0.24250  0.12600  0.25720  Biso   1.000  C
  C39      1.0000 0.24250  0.37400  0.75720  Biso   1.000  C
  C40      1.0000 0.75750  0.87400  0.74280  Biso   1.000  C
  H17      1.0000 0.69850  0.59420  0.22440  Biso   1.000  H
  H18      1.0000 0.30150  0.09420  0.27560  Biso   1.000  H
  H19      1.0000 0.30150  0.40580  0.77560  Biso   1.000  H
  H20      1.0000 0.69850  0.90580  0.72440  Biso   1.000  H
  C41      1.0000 0.51790  0.83060  0.15320  Biso   1.000  C
  C42      1.0000 0.48210  0.33060  0.34680  Biso   1.000  C
  C43      1.0000 0.48210  0.16940  0.84680  Biso   1.000  C
  C44      1.0000 0.51790  0.66940  0.65320  Biso   1.000  C
  H21      1.0000 0.42090  0.83280  0.11450  Biso   1.000  H
  H22      1.0000 0.57910  0.33280  0.38550  Biso   1.000  H
  H23      1.0000 0.57910  0.16720  0.88550  Biso   1.000  H
  H24      1.0000 0.42090  0.66720  0.61450  Biso   1.000  H
  C45      1.0000 0.59320  0.88080  0.18260  Biso   1.000  C
  C46      1.0000 0.40680  0.38080  0.31740  Biso   1.000  C
  C47      1.0000 0.40680  0.11920  0.81740  Biso   1.000  C
  C48      1.0000 0.59320  0.61920  0.68260  Biso   1.000  C
  H25      1.0000 0.54690  0.91580  0.16900  Biso   1.000  H
  H26      1.0000 0.45310  0.41580  0.33100  Biso   1.000  H
  H27      1.0000 0.45310  0.08420  0.83100  Biso   1.000  H
  H28      1.0000 0.54690  0.58420  0.66900  Biso   1.000  H
  C49      1.0000 0.98540  0.66230  0.31930  Biso   1.000  C
  C50      1.0000 0.01460  0.16230  0.18070  Biso   1.000  C
  C51      1.0000 0.01460  0.33770  0.68070  Biso   1.000  C
  C52      1.0000 0.98540  0.83770  0.81930  Biso   1.000  C
  H29      1.0000 0.08210  0.65740  0.35420  Biso   1.000  H
  H30      1.0000 0.91790  0.15740  0.14580  Biso   1.000  H
  H31      1.0000 0.91790  0.34260  0.64580  Biso   1.000  H
  H32      1.0000 0.08210  0.84260  0.85420  Biso   1.000  H
  C53      1.0000 0.46220  0.50830  0.04960  Biso   1.000  C
  C54      1.0000 0.53780  0.00830  0.45040  Biso   1.000  C
  C55      1.0000 0.53780  0.49170  0.95040  Biso   1.000  C
  C56      1.0000 0.46220  0.99170  0.54960  Biso   1.000  C
  C57      1.0000 0.26560  0.54370  0.44310  Biso   1.000  C
  C58      1.0000 0.73440  0.04370  0.05690  Biso   1.000  C
  C59      1.0000 0.73440  0.45630  0.55690  Biso   1.000  C
  C60      1.0000 0.26560  0.95630  0.94310  Biso   1.000  C
