data_image0
_cell_length_a       10.128
_cell_length_b       13.659
_cell_length_c       11.012
_cell_angle_alpha    90
_cell_angle_beta     109.663
_cell_angle_gamma    90

_symmetry_space_group_name_H-M    "P 1"
_symmetry_int_tables_number       1

loop_
  _symmetry_equiv_pos_as_xyz
  'x, y, z'

loop_
  _atom_site_label
  _atom_site_occupancy
  _atom_site_fract_x
  _atom_site_fract_y
  _atom_site_fract_z
  _atom_site_thermal_displace_type
  _atom_site_B_iso_or_equiv
  _atom_site_type_symbol
  Cu1      1.0000 0.27030  0.76510  0.49980  Biso   1.000  Cu
  Cu2      1.0000 0.22970  0.26510  0.00020  Biso   1.000  Cu
  Cu3      1.0000 0.72970  0.23490  0.50020  Biso   1.000  Cu
  Cu4      1.0000 0.77030  0.73490  0.99980  Biso   1.000  Cu
  Cu5      1.0000 0.02690  0.57890  0.74180  Biso   1.000  Cu
  Cu6      1.0000 0.47310  0.07890  0.75820  Biso   1.000  Cu
  Cu7      1.0000 0.97310  0.42110  0.25820  Biso   1.000  Cu
  Cu8      1.0000 0.52690  0.92110  0.24180  Biso   1.000  Cu
  Cu9      1.0000 0.97680  0.22410  0.78900  Biso   1.000  Cu
  Cu10     1.0000 0.52320  0.72410  0.71100  Biso   1.000  Cu
  Cu11     1.0000 0.02320  0.77590  0.21100  Biso   1.000  Cu
  Cu12     1.0000 0.47680  0.27590  0.28900  Biso   1.000  Cu
  C1       1.0000 0.12560  0.65220  0.65220  Biso   1.000  C
  C2       1.0000 0.37440  0.15220  0.84780  Biso   1.000  C
  C3       1.0000 0.87440  0.34780  0.34780  Biso   1.000  C
  C4       1.0000 0.62560  0.84780  0.15220  Biso   1.000  C
  C5       1.0000 0.17900  0.69730  0.59340  Biso   1.000  C
  C6       1.0000 0.32100  0.19730  0.90660  Biso   1.000  C
  C7       1.0000 0.82100  0.30270  0.40660  Biso   1.000  C
  C8       1.0000 0.67900  0.80270  0.09340  Biso   1.000  C
  C9       1.0000 0.35950  0.82610  0.39900  Biso   1.000  C
  C10      1.0000 0.14050  0.32610  0.10100  Biso   1.000  C
  C11      1.0000 0.64050  0.17390  0.60100  Biso   1.000  C
  C12      1.0000 0.85950  0.67390  0.89900  Biso   1.000  C
  C13      1.0000 0.42210  0.86200  0.33990  Biso   1.000  C
  C14      1.0000 0.07790  0.36200  0.16010  Biso   1.000  C
  C15      1.0000 0.57790  0.13800  0.66010  Biso   1.000  C
  C16      1.0000 0.92210  0.63800  0.83990  Biso   1.000  C
  C17      1.0000 0.02830  0.43660  0.74980  Biso   1.000  C
  C18      1.0000 0.47170  0.93660  0.75020  Biso   1.000  C
  C19      1.0000 0.97170  0.56340  0.25020  Biso   1.000  C
  C20      1.0000 0.52830  0.06340  0.24980  Biso   1.000  C
  C21      1.0000 0.51130  0.14620  0.25940  Biso   1.000  C
  C22      1.0000 0.98870  0.64620  0.24060  Biso   1.000  C
  C23      1.0000 0.48870  0.85380  0.74060  Biso   1.000  C
  C24      1.0000 0.01130  0.35380  0.75940  Biso   1.000  C
  C25      1.0000 0.80910  0.22190  0.97520  Biso   1.000  C
  C26      1.0000 0.69090  0.72190  0.52480  Biso   1.000  C
  C27      1.0000 0.19090  0.77810  0.02480  Biso   1.000  C
  C28      1.0000 0.30910  0.27810  0.47520  Biso   1.000  C
  C29      1.0000 0.72670  0.17930  0.03820  Biso   1.000  C
  C30      1.0000 0.77330  0.67930  0.46180  Biso   1.000  C
  C31      1.0000 0.27330  0.82070  0.96180  Biso   1.000  C
  C32      1.0000 0.22670  0.32070  0.53820  Biso   1.000  C
  C33      1.0000 0.70550  0.07850  0.02760  Biso   1.000  C
  C34      1.0000 0.79450  0.57850  0.47240  Biso   1.000  C
  C35      1.0000 0.29450  0.92150  0.97240  Biso   1.000  C
  C36      1.0000 0.20550  0.42150  0.52760  Biso   1.000  C
  C37      1.0000 0.76710  0.02480  0.95520  Biso   1.000  C
  C38      1.0000 0.73290  0.52480  0.54480  Biso   1.000  C
  C39      1.0000 0.23290  0.97520  0.04480  Biso   1.000  C
  C40      1.0000 0.26710  0.47520  0.45520  Biso   1.000  C
  C41      1.0000 0.84790  0.07280  0.89300  Biso   1.000  C
  C42      1.0000 0.65210  0.57280  0.60700  Biso   1.000  C
  C43      1.0000 0.15210  0.92720  0.10700  Biso   1.000  C
  C44      1.0000 0.34790  0.42720  0.39300  Biso   1.000  C
  C45      1.0000 0.91510  0.02230  0.81000  Biso   1.000  C
  C46      1.0000 0.58490  0.52230  0.69000  Biso   1.000  C
  C47      1.0000 0.08490  0.97770  0.19000  Biso   1.000  C
  C48      1.0000 0.41510  0.47770  0.31000  Biso   1.000  C
  C49      1.0000 0.90700  0.92110  0.78910  Biso   1.000  C
  C50      1.0000 0.59300  0.42110  0.71090  Biso   1.000  C
  C51      1.0000 0.09300  0.07890  0.21090  Biso   1.000  C
  C52      1.0000 0.40700  0.57890  0.28910  Biso   1.000  C
  C53      1.0000 0.97790  0.87910  0.71420  Biso   1.000  C
  C54      1.0000 0.52210  0.37910  0.78580  Biso   1.000  C
  C55      1.0000 0.02210  0.12090  0.28580  Biso   1.000  C
  C56      1.0000 0.47790  0.62090  0.21420  Biso   1.000  C
  C57      1.0000 0.05500  0.93900  0.66060  Biso   1.000  C
  C58      1.0000 0.44500  0.43900  0.83940  Biso   1.000  C
  C59      1.0000 0.94500  0.06100  0.33940  Biso   1.000  C
  C60      1.0000 0.55500  0.56100  0.16060  Biso   1.000  C
  C61      1.0000 0.05650  0.03910  0.68300  Biso   1.000  C
  C62      1.0000 0.44350  0.53910  0.81700  Biso   1.000  C
  C63      1.0000 0.94350  0.96090  0.31700  Biso   1.000  C
  C64      1.0000 0.55650  0.46090  0.18300  Biso   1.000  C
  N1       1.0000 0.86940  0.17080  0.90400  Biso   1.000  N
  N2       1.0000 0.63060  0.67080  0.59600  Biso   1.000  N
  N3       1.0000 0.13060  0.82920  0.09600  Biso   1.000  N
  N4       1.0000 0.36940  0.32920  0.40400  Biso   1.000  N
  N5       1.0000 0.98820  0.08050  0.75540  Biso   1.000  N
  N6       1.0000 0.51180  0.58050  0.74460  Biso   1.000  N
  N7       1.0000 0.01180  0.91950  0.24460  Biso   1.000  N
  N8       1.0000 0.48820  0.41950  0.25540  Biso   1.000  N
  O1       1.0000 0.72270  0.98010  0.49600  Biso   1.000  O
  O2       1.0000 0.77730  0.48010  0.00400  Biso   1.000  O
  O3       1.0000 0.27730  0.01990  0.50400  Biso   1.000  O
  O4       1.0000 0.22270  0.51990  0.99600  Biso   1.000  O
  H1       1.0000 0.82710  0.28170  0.97520  Biso   1.000  H
  H2       1.0000 0.67290  0.78170  0.52480  Biso   1.000  H
  H3       1.0000 0.17290  0.71830  0.02480  Biso   1.000  H
  H4       1.0000 0.32710  0.21830  0.47520  Biso   1.000  H
  H5       1.0000 0.68270  0.22470  0.09080  Biso   1.000  H
  H6       1.0000 0.81730  0.72470  0.40920  Biso   1.000  H
  H7       1.0000 0.31730  0.77530  0.90920  Biso   1.000  H
  H8       1.0000 0.18270  0.27530  0.59080  Biso   1.000  H
  H9       1.0000 0.65720  0.05500  0.06270  Biso   1.000  H
  H10      1.0000 0.84280  0.55500  0.43730  Biso   1.000  H
  H11      1.0000 0.34280  0.94500  0.93730  Biso   1.000  H
  H12      1.0000 0.15720  0.44500  0.56270  Biso   1.000  H
  H13      1.0000 0.74770  0.95860  0.94640  Biso   1.000  H
  H14      1.0000 0.75230  0.45860  0.55360  Biso   1.000  H
  H15      1.0000 0.25230  0.04140  0.05360  Biso   1.000  H
  H16      1.0000 0.24770  0.54140  0.44640  Biso   1.000  H
  H17      1.0000 0.85000  0.87440  0.83500  Biso   1.000  H
  H18      1.0000 0.65000  0.37440  0.66500  Biso   1.000  H
  H19      1.0000 0.15000  0.12560  0.16500  Biso   1.000  H
  H20      1.0000 0.35000  0.62560  0.33500  Biso   1.000  H
  H21      1.0000 0.98230  0.81450  0.70490  Biso   1.000  H
  H22      1.0000 0.51770  0.31450  0.79510  Biso   1.000  H
  H23      1.0000 0.01770  0.18550  0.29510  Biso   1.000  H
  H24      1.0000 0.48230  0.68550  0.20490  Biso   1.000  H
  H25      1.0000 0.11070  0.91480  0.60440  Biso   1.000  H
  H26      1.0000 0.38930  0.41480  0.89560  Biso   1.000  H
  H27      1.0000 0.88930  0.08520  0.39560  Biso   1.000  H
  H28      1.0000 0.61070  0.58520  0.10440  Biso   1.000  H
  H29      1.0000 0.10270  0.07840  0.64630  Biso   1.000  H
  H30      1.0000 0.39730  0.57840  0.85370  Biso   1.000  H
  H31      1.0000 0.89730  0.92160  0.35370  Biso   1.000  H
  H32      1.0000 0.60270  0.42160  0.14630  Biso   1.000  H
