data_image0
_cell_length_a       6.861
_cell_length_b       9.329
_cell_length_c       11.793
_cell_angle_alpha    97.908
_cell_angle_beta     99.529
_cell_angle_gamma    109.624

_symmetry_space_group_name_H-M    "P 1"
_symmetry_int_tables_number       1

loop_
  _symmetry_equiv_pos_as_xyz
  'x, y, z'

loop_
  _atom_site_label
  _atom_site_occupancy
  _atom_site_fract_x
  _atom_site_fract_y
  _atom_site_fract_z
  _atom_site_thermal_displace_type
  _atom_site_B_iso_or_equiv
  _atom_site_type_symbol
  Cu1      1.0000 0.15540  0.27410  0.10100  Biso   1.000  Cu
  Cu2      1.0000 0.84460  0.72590  0.89900  Biso   1.000  Cu
  Cu3      1.0000 0.61260  0.42000  0.49450  Biso   1.000  Cu
  Cu4      1.0000 0.38740  0.58000  0.50550  Biso   1.000  Cu
  N1       1.0000 0.22080  0.45320  0.01650  Biso   1.000  N
  N2       1.0000 0.77920  0.54680  0.98350  Biso   1.000  N
  N3       1.0000 0.50970  0.23570  0.57750  Biso   1.000  N
  N4       1.0000 0.49030  0.76430  0.42250  Biso   1.000  N
  N5       1.0000 0.03200  0.06570  0.02150  Biso   1.000  N
  N6       1.0000 0.96800  0.93430  0.97850  Biso   1.000  N
  N7       1.0000 0.28480  0.35380  0.26450  Biso   1.000  N
  N8       1.0000 0.71520  0.64620  0.73550  Biso   1.000  N
  N9       1.0000 0.39210  0.39540  0.35820  Biso   1.000  N
  N10      1.0000 0.60790  0.60460  0.64180  Biso   1.000  N
  N11      1.0000 0.91050  0.47980  0.49880  Biso   1.000  N
  N12      1.0000 0.08950  0.52020  0.50120  Biso   1.000  N
  C1       1.0000 0.35840  0.59540  0.07430  Biso   1.000  C
  C2       1.0000 0.64160  0.40460  0.92570  Biso   1.000  C
  C3       1.0000 0.42210  0.72020  0.01980  Biso   1.000  C
  C4       1.0000 0.57790  0.27980  0.98020  Biso   1.000  C
  C5       1.0000 0.14110  0.43510  0.90040  Biso   1.000  C
  C6       1.0000 0.85890  0.56490  0.09960  Biso   1.000  C
  C7       1.0000 0.19310  0.55450  0.83980  Biso   1.000  C
  C8       1.0000 0.80690  0.44550  0.16020  Biso   1.000  C
  C9       1.0000 0.33880  0.70270  0.90010  Biso   1.000  C
  C10      1.0000 0.66120  0.29730  0.09990  Biso   1.000  C
  C11      1.0000 0.40730  0.83290  0.84120  Biso   1.000  C
  C12      1.0000 0.59270  0.16710  0.15880  Biso   1.000  C
  C13      1.0000 0.28910  0.85220  0.74680  Biso   1.000  C
  C14      1.0000 0.71090  0.14780  0.25320  Biso   1.000  C
  C15      1.0000 0.36550  0.98300  0.68810  Biso   1.000  C
  C16      1.0000 0.63450  0.01700  0.31190  Biso   1.000  C
  C17      1.0000 0.57880  0.04820  0.68260  Biso   1.000  C
  C18      1.0000 0.42120  0.95180  0.31740  Biso   1.000  C
  C19      1.0000 0.64300  0.17140  0.62720  Biso   1.000  C
  C20      1.0000 0.35700  0.82860  0.37280  Biso   1.000  C
  C21      1.0000 0.22790  0.04780  0.63540  Biso   1.000  C
  C22      1.0000 0.77210  0.95220  0.36460  Biso   1.000  C
  C23      1.0000 0.30500  0.17290  0.58290  Biso   1.000  C
  C24      1.0000 0.69500  0.82710  0.41710  Biso   1.000  C
  H1       1.0000 0.41310  0.61050  0.15450  Biso   1.000  H
  H2       1.0000 0.58690  0.38950  0.84550  Biso   1.000  H
  H3       1.0000 0.52030  0.81580  0.06280  Biso   1.000  H
  H4       1.0000 0.47970  0.18420  0.93720  Biso   1.000  H
  H5       1.0000 0.04650  0.33740  0.85910  Biso   1.000  H
  H6       1.0000 0.95350  0.66260  0.14090  Biso   1.000  H
  H7       1.0000 0.13250  0.53700  0.76020  Biso   1.000  H
  H8       1.0000 0.86750  0.46300  0.23980  Biso   1.000  H
  H9       1.0000 0.54280  0.90770  0.87170  Biso   1.000  H
  H10      1.0000 0.45720  0.09230  0.12830  Biso   1.000  H
  H11      1.0000 0.15210  0.77960  0.71670  Biso   1.000  H
  H12      1.0000 0.84790  0.22040  0.28330  Biso   1.000  H
  H13      1.0000 0.67690  0.00870  0.71610  Biso   1.000  H
  H14      1.0000 0.32310  0.99130  0.28390  Biso   1.000  H
  H15      1.0000 0.78520  0.21240  0.62390  Biso   1.000  H
  H16      1.0000 0.21480  0.78760  0.37610  Biso   1.000  H
  H17      1.0000 0.08420  0.00710  0.63540  Biso   1.000  H
  H18      1.0000 0.91580  0.99290  0.36460  Biso   1.000  H
  H19      1.0000 0.21050  0.21560  0.54980  Biso   1.000  H
  H20      1.0000 0.78950  0.78440  0.45020  Biso   1.000  H
