data_image0
_cell_length_a       16.553
_cell_length_b       7.773
_cell_length_c       18.025
_cell_angle_alpha    90
_cell_angle_beta     116.051
_cell_angle_gamma    90

_symmetry_space_group_name_H-M    "P 1"
_symmetry_int_tables_number       1

loop_
  _symmetry_equiv_pos_as_xyz
  'x, y, z'

loop_
  _atom_site_label
  _atom_site_occupancy
  _atom_site_fract_x
  _atom_site_fract_y
  _atom_site_fract_z
  _atom_site_thermal_displace_type
  _atom_site_B_iso_or_equiv
  _atom_site_type_symbol
  Cu1      1.0000 0.19280  0.02110  0.40120  Biso   1.000  Cu
  Cu2      1.0000 0.80720  0.02110  0.09880  Biso   1.000  Cu
  Cu3      1.0000 0.69280  0.52110  0.40120  Biso   1.000  Cu
  Cu4      1.0000 0.30720  0.52110  0.09880  Biso   1.000  Cu
  Cu5      1.0000 0.80720  0.97890  0.59880  Biso   1.000  Cu
  Cu6      1.0000 0.19280  0.97890  0.90120  Biso   1.000  Cu
  Cu7      1.0000 0.30720  0.47890  0.59880  Biso   1.000  Cu
  Cu8      1.0000 0.69280  0.47890  0.90120  Biso   1.000  Cu
  Cu9      1.0000 0.01560  0.33790  0.00150  Biso   1.000  Cu
  Cu10     1.0000 0.98440  0.33790  0.49850  Biso   1.000  Cu
  Cu11     1.0000 0.51560  0.83790  0.00150  Biso   1.000  Cu
  Cu12     1.0000 0.48440  0.83790  0.49850  Biso   1.000  Cu
  Cu13     1.0000 0.98440  0.66210  0.99850  Biso   1.000  Cu
  Cu14     1.0000 0.01560  0.66210  0.50150  Biso   1.000  Cu
  Cu15     1.0000 0.48440  0.16210  0.99850  Biso   1.000  Cu
  Cu16     1.0000 0.51560  0.16210  0.50150  Biso   1.000  Cu
  N1       1.0000 0.07820  0.25440  0.12420  Biso   1.000  N
  N2       1.0000 0.92180  0.25440  0.37580  Biso   1.000  N
  N3       1.0000 0.57820  0.75440  0.12420  Biso   1.000  N
  N4       1.0000 0.42180  0.75440  0.37580  Biso   1.000  N
  N5       1.0000 0.92180  0.74560  0.87580  Biso   1.000  N
  N6       1.0000 0.07820  0.74560  0.62420  Biso   1.000  N
  N7       1.0000 0.42180  0.24560  0.87580  Biso   1.000  N
  N8       1.0000 0.57820  0.24560  0.62420  Biso   1.000  N
  N9       1.0000 0.14320  0.12290  0.28290  Biso   1.000  N
  N10      1.0000 0.85680  0.12290  0.21710  Biso   1.000  N
  N11      1.0000 0.64320  0.62290  0.28290  Biso   1.000  N
  N12      1.0000 0.35680  0.62290  0.21710  Biso   1.000  N
  N13      1.0000 0.85680  0.87710  0.71710  Biso   1.000  N
  N14      1.0000 0.14320  0.87710  0.78290  Biso   1.000  N
  N15      1.0000 0.35680  0.37710  0.71710  Biso   1.000  N
  N16      1.0000 0.64320  0.37710  0.78290  Biso   1.000  N
  N17      1.0000 0.31700  0.07930  0.44430  Biso   1.000  N
  N18      1.0000 0.68300  0.07930  0.05570  Biso   1.000  N
  N19      1.0000 0.81700  0.57930  0.44430  Biso   1.000  N
  N20      1.0000 0.18300  0.57930  0.05570  Biso   1.000  N
  N21      1.0000 0.68300  0.92070  0.55570  Biso   1.000  N
  N22      1.0000 0.31700  0.92070  0.94430  Biso   1.000  N
  N23      1.0000 0.18300  0.42070  0.55570  Biso   1.000  N
  N24      1.0000 0.81700  0.42070  0.94430  Biso   1.000  N
  N25      1.0000 0.11780  0.88910  0.43230  Biso   1.000  N
  N26      1.0000 0.88220  0.88910  0.06770  Biso   1.000  N
  N27      1.0000 0.61780  0.38910  0.43230  Biso   1.000  N
  N28      1.0000 0.38220  0.38910  0.06770  Biso   1.000  N
  N29      1.0000 0.88220  0.11090  0.56770  Biso   1.000  N
  N30      1.0000 0.11780  0.11090  0.93230  Biso   1.000  N
  N31      1.0000 0.38220  0.61090  0.56770  Biso   1.000  N
  N32      1.0000 0.61780  0.61090  0.93230  Biso   1.000  N
  N33      1.0000 0.07390  0.80270  0.45130  Biso   1.000  N
  N34      1.0000 0.92610  0.80270  0.04870  Biso   1.000  N
  N35      1.0000 0.57390  0.30270  0.45130  Biso   1.000  N
  N36      1.0000 0.42610  0.30270  0.04870  Biso   1.000  N
  N37      1.0000 0.92610  0.19730  0.54870  Biso   1.000  N
  N38      1.0000 0.07390  0.19730  0.95130  Biso   1.000  N
  N39      1.0000 0.42610  0.69730  0.54870  Biso   1.000  N
  N40      1.0000 0.57390  0.69730  0.95130  Biso   1.000  N
  N41      1.0000 0.39330  0.09790  0.46620  Biso   1.000  N
  N42      1.0000 0.60670  0.09790  0.03380  Biso   1.000  N
  N43      1.0000 0.89330  0.59790  0.46620  Biso   1.000  N
  N44      1.0000 0.10670  0.59790  0.03380  Biso   1.000  N
  N45      1.0000 0.60670  0.90210  0.53380  Biso   1.000  N
  N46      1.0000 0.39330  0.90210  0.96620  Biso   1.000  N
  N47      1.0000 0.10670  0.40210  0.53380  Biso   1.000  N
  N48      1.0000 0.89330  0.40210  0.96620  Biso   1.000  N
  C1       1.0000 0.08900  0.35420  0.18850  Biso   1.000  C
  C2       1.0000 0.91100  0.35420  0.31150  Biso   1.000  C
  C3       1.0000 0.58900  0.85420  0.18850  Biso   1.000  C
  C4       1.0000 0.41100  0.85420  0.31150  Biso   1.000  C
  C5       1.0000 0.91100  0.64580  0.81150  Biso   1.000  C
  C6       1.0000 0.08900  0.64580  0.68850  Biso   1.000  C
  C7       1.0000 0.41100  0.14580  0.81150  Biso   1.000  C
  C8       1.0000 0.58900  0.14580  0.68850  Biso   1.000  C
  C9       1.0000 0.10170  0.08950  0.14020  Biso   1.000  C
  C10      1.0000 0.89830  0.08950  0.35980  Biso   1.000  C
  C11      1.0000 0.60170  0.58950  0.14020  Biso   1.000  C
  C12      1.0000 0.39830  0.58950  0.35980  Biso   1.000  C
  C13      1.0000 0.89830  0.91050  0.85980  Biso   1.000  C
  C14      1.0000 0.10170  0.91050  0.64020  Biso   1.000  C
  C15      1.0000 0.39830  0.41050  0.85980  Biso   1.000  C
  C16      1.0000 0.60170  0.41050  0.64020  Biso   1.000  C
  C17      1.0000 0.13380  0.02130  0.21930  Biso   1.000  C
  C18      1.0000 0.86620  0.02130  0.28070  Biso   1.000  C
  C19      1.0000 0.63380  0.52130  0.21930  Biso   1.000  C
  C20      1.0000 0.36620  0.52130  0.28070  Biso   1.000  C
  C21      1.0000 0.86620  0.97870  0.78070  Biso   1.000  C
  C22      1.0000 0.13380  0.97870  0.71930  Biso   1.000  C
  C23      1.0000 0.36620  0.47870  0.78070  Biso   1.000  C
  C24      1.0000 0.63380  0.47870  0.71930  Biso   1.000  C
  C25      1.0000 0.12250  0.28980  0.26840  Biso   1.000  C
  C26      1.0000 0.87750  0.28980  0.23160  Biso   1.000  C
  C27      1.0000 0.62250  0.78980  0.26840  Biso   1.000  C
  C28      1.0000 0.37750  0.78980  0.23160  Biso   1.000  C
  C29      1.0000 0.87750  0.71020  0.73160  Biso   1.000  C
  C30      1.0000 0.12250  0.71020  0.76840  Biso   1.000  C
  C31      1.0000 0.37750  0.21020  0.73160  Biso   1.000  C
  C32      1.0000 0.62250  0.21020  0.76840  Biso   1.000  C
  C33      1.0000 0.15540  0.83500  0.23600  Biso   1.000  C
  C34      1.0000 0.84460  0.83500  0.26400  Biso   1.000  C
  C35      1.0000 0.65540  0.33500  0.23600  Biso   1.000  C
  C36      1.0000 0.34460  0.33500  0.26400  Biso   1.000  C
  C37      1.0000 0.84460  0.16500  0.76400  Biso   1.000  C
  C38      1.0000 0.15540  0.16500  0.73600  Biso   1.000  C
  C39      1.0000 0.34460  0.66500  0.76400  Biso   1.000  C
  C40      1.0000 0.65540  0.66500  0.73600  Biso   1.000  C
  C41      1.0000 0.13810  0.40140  0.34200  Biso   1.000  C
  C42      1.0000 0.86190  0.40140  0.15800  Biso   1.000  C
  C43      1.0000 0.63810  0.90140  0.34200  Biso   1.000  C
  C44      1.0000 0.36190  0.90140  0.15800  Biso   1.000  C
  C45      1.0000 0.86190  0.59860  0.65800  Biso   1.000  C
  C46      1.0000 0.13810  0.59860  0.84200  Biso   1.000  C
  C47      1.0000 0.36190  0.09860  0.65800  Biso   1.000  C
  C48      1.0000 0.63810  0.09860  0.84200  Biso   1.000  C
  H1       1.0000 0.07370  0.47000  0.17940  Biso   1.000  H
  H2       1.0000 0.92630  0.47000  0.32060  Biso   1.000  H
  H3       1.0000 0.57370  0.97000  0.17940  Biso   1.000  H
  H4       1.0000 0.42630  0.97000  0.32060  Biso   1.000  H
  H5       1.0000 0.92630  0.53000  0.82060  Biso   1.000  H
  H6       1.0000 0.07370  0.53000  0.67940  Biso   1.000  H
  H7       1.0000 0.42630  0.03000  0.82060  Biso   1.000  H
  H8       1.0000 0.57370  0.03000  0.67940  Biso   1.000  H
  H9       1.0000 0.09640  0.01770  0.09700  Biso   1.000  H
  H10      1.0000 0.90360  0.01770  0.40300  Biso   1.000  H
  H11      1.0000 0.59640  0.51770  0.09700  Biso   1.000  H
  H12      1.0000 0.40360  0.51770  0.40300  Biso   1.000  H
  H13      1.0000 0.90360  0.98230  0.90300  Biso   1.000  H
  H14      1.0000 0.09640  0.98230  0.59700  Biso   1.000  H
  H15      1.0000 0.40360  0.48230  0.90300  Biso   1.000  H
  H16      1.0000 0.59640  0.48230  0.59700  Biso   1.000  H
  H17      1.0000 0.17640  0.81290  0.29390  Biso   1.000  H
  H18      1.0000 0.82360  0.81290  0.20610  Biso   1.000  H
  H19      1.0000 0.67640  0.31290  0.29390  Biso   1.000  H
  H20      1.0000 0.32360  0.31290  0.20610  Biso   1.000  H
  H21      1.0000 0.82360  0.18710  0.70610  Biso   1.000  H
  H22      1.0000 0.17640  0.18710  0.79390  Biso   1.000  H
  H23      1.0000 0.32360  0.68710  0.70610  Biso   1.000  H
  H24      1.0000 0.67640  0.68710  0.79390  Biso   1.000  H
  H25      1.0000 0.10240  0.76790  0.20520  Biso   1.000  H
  H26      1.0000 0.89760  0.76790  0.29480  Biso   1.000  H
  H27      1.0000 0.60240  0.26790  0.20520  Biso   1.000  H
  H28      1.0000 0.39760  0.26790  0.29480  Biso   1.000  H
  H29      1.0000 0.89760  0.23210  0.79480  Biso   1.000  H
  H30      1.0000 0.10240  0.23210  0.70520  Biso   1.000  H
  H31      1.0000 0.39760  0.73210  0.79480  Biso   1.000  H
  H32      1.0000 0.60240  0.73210  0.70520  Biso   1.000  H
  H33      1.0000 0.20140  0.80410  0.21960  Biso   1.000  H
  H34      1.0000 0.79860  0.80410  0.28040  Biso   1.000  H
  H35      1.0000 0.70140  0.30410  0.21960  Biso   1.000  H
  H36      1.0000 0.29860  0.30410  0.28040  Biso   1.000  H
  H37      1.0000 0.79860  0.19590  0.78040  Biso   1.000  H
  H38      1.0000 0.20140  0.19590  0.71960  Biso   1.000  H
  H39      1.0000 0.29860  0.69590  0.78040  Biso   1.000  H
  H40      1.0000 0.70140  0.69590  0.71960  Biso   1.000  H
  H41      1.0000 0.16140  0.33230  0.39110  Biso   1.000  H
  H42      1.0000 0.83860  0.33230  0.10890  Biso   1.000  H
  H43      1.0000 0.66140  0.83230  0.39110  Biso   1.000  H
  H44      1.0000 0.33860  0.83230  0.10890  Biso   1.000  H
  H45      1.0000 0.83860  0.66770  0.60890  Biso   1.000  H
  H46      1.0000 0.16140  0.66770  0.89110  Biso   1.000  H
  H47      1.0000 0.33860  0.16770  0.60890  Biso   1.000  H
  H48      1.0000 0.66140  0.16770  0.89110  Biso   1.000  H
  H49      1.0000 0.18060  0.49010  0.34720  Biso   1.000  H
  H50      1.0000 0.81940  0.49010  0.15280  Biso   1.000  H
  H51      1.0000 0.68060  0.99010  0.34720  Biso   1.000  H
  H52      1.0000 0.31940  0.99010  0.15280  Biso   1.000  H
  H53      1.0000 0.81940  0.50990  0.65280  Biso   1.000  H
  H54      1.0000 0.18060  0.50990  0.84720  Biso   1.000  H
  H55      1.0000 0.31940  0.00990  0.65280  Biso   1.000  H
  H56      1.0000 0.68060  0.00990  0.84720  Biso   1.000  H
  H57      1.0000 0.08240  0.45290  0.33460  Biso   1.000  H
  H58      1.0000 0.91760  0.45290  0.16540  Biso   1.000  H
  H59      1.0000 0.58240  0.95290  0.33460  Biso   1.000  H
  H60      1.0000 0.41760  0.95290  0.16540  Biso   1.000  H
  H61      1.0000 0.91760  0.54710  0.66540  Biso   1.000  H
  H62      1.0000 0.08240  0.54710  0.83460  Biso   1.000  H
  H63      1.0000 0.41760  0.04710  0.66540  Biso   1.000  H
  H64      1.0000 0.58240  0.04710  0.83460  Biso   1.000  H
