data_image0
_cell_length_a       9.631
_cell_length_b       23.4531
_cell_length_c       6.9018
_cell_angle_alpha    90
_cell_angle_beta     98.717
_cell_angle_gamma    90

_symmetry_space_group_name_H-M    "P 1"
_symmetry_int_tables_number       1

loop_
  _symmetry_equiv_pos_as_xyz
  'x, y, z'

loop_
  _atom_site_label
  _atom_site_occupancy
  _atom_site_fract_x
  _atom_site_fract_y
  _atom_site_fract_z
  _atom_site_thermal_displace_type
  _atom_site_B_iso_or_equiv
  _atom_site_type_symbol
  C1       1.0000 0.34150  0.65560  0.06120  Biso   1.000  C
  C2       1.0000 0.65850  0.15560  0.43880  Biso   1.000  C
  C3       1.0000 0.65850  0.34440  0.93880  Biso   1.000  C
  C4       1.0000 0.34150  0.84440  0.56120  Biso   1.000  C
  Cu1      1.0000 0.17190  0.55580  0.84709  Biso   1.000  Cu
  Cu2      1.0000 0.82810  0.05580  0.65291  Biso   1.000  Cu
  Cu3      1.0000 0.82810  0.44420  0.15291  Biso   1.000  Cu
  Cu4      1.0000 0.17190  0.94420  0.34709  Biso   1.000  Cu
  Cu5      1.0000 0.34583  0.53428  0.22142  Biso   1.000  Cu
  Cu6      1.0000 0.65417  0.03428  0.27858  Biso   1.000  Cu
  Cu7      1.0000 0.65417  0.46572  0.77858  Biso   1.000  Cu
  Cu8      1.0000 0.34583  0.96572  0.72142  Biso   1.000  Cu
  Cu9      1.0000 0.49081  0.70232  0.14401  Biso   1.000  Cu
  Cu10     1.0000 0.50919  0.20232  0.35599  Biso   1.000  Cu
  Cu11     1.0000 0.50919  0.29768  0.85599  Biso   1.000  Cu
  Cu12     1.0000 0.49081  0.79768  0.64401  Biso   1.000  Cu
  C5       1.0000 0.01100  0.76880  0.32240  Biso   1.000  C
  C6       1.0000 0.98900  0.26880  0.17760  Biso   1.000  C
  C7       1.0000 0.98900  0.23120  0.67760  Biso   1.000  C
  C8       1.0000 0.01100  0.73120  0.82240  Biso   1.000  C
  H1       1.0000 0.10820  0.76630  0.35300  Biso   1.000  H
  H2       1.0000 0.89180  0.26630  0.14700  Biso   1.000  H
  H3       1.0000 0.89180  0.23370  0.64700  Biso   1.000  H
  H4       1.0000 0.10820  0.73370  0.85300  Biso   1.000  H
  C9       1.0000 0.78560  0.72214  0.24730  Biso   1.000  C
  C10      1.0000 0.21440  0.22214  0.25270  Biso   1.000  C
  C11      1.0000 0.21440  0.27786  0.75270  Biso   1.000  C
  C12      1.0000 0.78560  0.77786  0.74730  Biso   1.000  C
  C13      1.0000 0.80300  0.82653  0.25220  Biso   1.000  C
  C14      1.0000 0.19700  0.32653  0.24780  Biso   1.000  C
  C15      1.0000 0.19700  0.17347  0.74780  Biso   1.000  C
  C16      1.0000 0.80300  0.67347  0.75220  Biso   1.000  C
  C17      1.0000 0.71960  0.77735  0.22520  Biso   1.000  C
  C18      1.0000 0.28040  0.27735  0.27480  Biso   1.000  C
  C19      1.0000 0.28040  0.22265  0.77480  Biso   1.000  C
  C20      1.0000 0.71960  0.72265  0.72520  Biso   1.000  C
  C21      1.0000 0.95100  0.82010  0.30410  Biso   1.000  C
  C22      1.0000 0.04900  0.32010  0.19590  Biso   1.000  C
  C23      1.0000 0.04900  0.17990  0.69590  Biso   1.000  C
  C24      1.0000 0.95100  0.67990  0.80410  Biso   1.000  C
  H5       1.0000 0.00710  0.85240  0.32580  Biso   1.000  H
  H6       1.0000 0.99290  0.35240  0.17420  Biso   1.000  H
  H7       1.0000 0.99290  0.14760  0.67420  Biso   1.000  H
  H8       1.0000 0.00710  0.64760  0.82580  Biso   1.000  H
  C25      1.0000 0.93020  0.71780  0.29620  Biso   1.000  C
  C26      1.0000 0.06980  0.21780  0.20380  Biso   1.000  C
  C27      1.0000 0.06980  0.28220  0.70380  Biso   1.000  C
  C28      1.0000 0.93020  0.78220  0.79620  Biso   1.000  C
  C29      1.0000 0.73390  0.87930  0.22910  Biso   1.000  C
  C30      1.0000 0.26610  0.37930  0.27090  Biso   1.000  C
  C31      1.0000 0.26610  0.12070  0.77090  Biso   1.000  C
  C32      1.0000 0.73390  0.62070  0.72910  Biso   1.000  C
  H9       1.0000 0.78560  0.91290  0.24780  Biso   1.000  H
  H10      1.0000 0.21440  0.41290  0.25220  Biso   1.000  H
  H11      1.0000 0.21440  0.08710  0.75220  Biso   1.000  H
  H12      1.0000 0.78560  0.58710  0.74780  Biso   1.000  H
  C33      1.0000 0.90090  0.61610  0.28820  Biso   1.000  C
  C34      1.0000 0.09910  0.11610  0.21180  Biso   1.000  C
  C35      1.0000 0.09910  0.38390  0.71180  Biso   1.000  C
  C36      1.0000 0.90090  0.88390  0.78820  Biso   1.000  C
  H13      1.0000 0.93710  0.57930  0.30030  Biso   1.000  H
  H14      1.0000 0.06290  0.07930  0.19970  Biso   1.000  H
  H15      1.0000 0.06290  0.42070  0.69970  Biso   1.000  H
  H16      1.0000 0.93710  0.92070  0.80030  Biso   1.000  H
  C37      1.0000 0.59210  0.88170  0.17960  Biso   1.000  C
  C38      1.0000 0.40790  0.38170  0.32040  Biso   1.000  C
  C39      1.0000 0.40790  0.11830  0.82040  Biso   1.000  C
  C40      1.0000 0.59210  0.61830  0.67960  Biso   1.000  C
  H17      1.0000 0.54580  0.91660  0.16240  Biso   1.000  H
  H18      1.0000 0.45420  0.41660  0.33760  Biso   1.000  H
  H19      1.0000 0.45420  0.08340  0.83760  Biso   1.000  H
  H20      1.0000 0.54580  0.58340  0.66240  Biso   1.000  H
  C41      1.0000 0.75910  0.62520  0.24110  Biso   1.000  C
  C42      1.0000 0.24090  0.12520  0.25890  Biso   1.000  C
  C43      1.0000 0.24090  0.37480  0.75890  Biso   1.000  C
  C44      1.0000 0.75910  0.87480  0.74110  Biso   1.000  C
  H21      1.0000 0.70140  0.59320  0.22240  Biso   1.000  H
  H22      1.0000 0.29860  0.09320  0.27760  Biso   1.000  H
  H23      1.0000 0.29860  0.40680  0.77760  Biso   1.000  H
  H24      1.0000 0.70140  0.90680  0.72240  Biso   1.000  H
  C45      1.0000 0.51790  0.83080  0.15520  Biso   1.000  C
  C46      1.0000 0.48210  0.33080  0.34480  Biso   1.000  C
  C47      1.0000 0.48210  0.16920  0.84480  Biso   1.000  C
  C48      1.0000 0.51790  0.66920  0.65520  Biso   1.000  C
  H25      1.0000 0.42080  0.83250  0.12100  Biso   1.000  H
  H26      1.0000 0.57920  0.33250  0.37900  Biso   1.000  H
  H27      1.0000 0.57920  0.16750  0.87900  Biso   1.000  H
  H28      1.0000 0.42080  0.66750  0.62100  Biso   1.000  H
  C49      1.0000 0.98730  0.66220  0.31670  Biso   1.000  C
  C50      1.0000 0.01270  0.16220  0.18330  Biso   1.000  C
  C51      1.0000 0.01270  0.33780  0.68330  Biso   1.000  C
  C52      1.0000 0.98730  0.83780  0.81670  Biso   1.000  C
  H29      1.0000 0.08380  0.65720  0.34970  Biso   1.000  H
  H30      1.0000 0.91620  0.15720  0.15030  Biso   1.000  H
  H31      1.0000 0.91620  0.34280  0.65030  Biso   1.000  H
  H32      1.0000 0.08380  0.84280  0.84970  Biso   1.000  H
  N1       1.0000 0.57770  0.77949  0.17790  Biso   1.000  N
  N2       1.0000 0.42230  0.27949  0.32210  Biso   1.000  N
  N3       1.0000 0.42230  0.22051  0.82210  Biso   1.000  N
  N4       1.0000 0.57770  0.72051  0.67790  Biso   1.000  N
  N5       1.0000 0.69770  0.67594  0.22020  Biso   1.000  N
  N6       1.0000 0.30230  0.17594  0.27980  Biso   1.000  N
  N7       1.0000 0.30230  0.32406  0.77980  Biso   1.000  N
  N8       1.0000 0.69770  0.82406  0.72020  Biso   1.000  N
  N9       1.0000 0.26220  0.62151  0.99700  Biso   1.000  N
  N10      1.0000 0.73780  0.12151  0.50300  Biso   1.000  N
  N11      1.0000 0.73780  0.37849  0.00300  Biso   1.000  N
  N12      1.0000 0.26220  0.87849  0.49700  Biso   1.000  N
  C53      1.0000 0.26800  0.54426  0.44510  Biso   1.000  C
  C54      1.0000 0.73200  0.04426  0.05490  Biso   1.000  C
  C55      1.0000 0.73200  0.45574  0.55490  Biso   1.000  C
  C56      1.0000 0.26800  0.95574  0.94510  Biso   1.000  C
  N13      1.0000 0.46210  0.50776  0.05250  Biso   1.000  N
  N14      1.0000 0.53790  0.00776  0.44750  Biso   1.000  N
  N15      1.0000 0.53790  0.49224  0.94750  Biso   1.000  N
  N16      1.0000 0.46210  0.99224  0.55250  Biso   1.000  N
  C57      1.0000 0.04030  0.51270  0.96660  Biso   1.000  C
  C58      1.0000 0.95970  0.01270  0.53340  Biso   1.000  C
  C59      1.0000 0.95970  0.48730  0.03340  Biso   1.000  C
  C60      1.0000 0.04030  0.98730  0.46660  Biso   1.000  C
  N17      1.0000 0.22580  0.54930  0.59100  Biso   1.000  N
  N18      1.0000 0.77420  0.04930  0.90900  Biso   1.000  N
  N19      1.0000 0.77420  0.45070  0.40900  Biso   1.000  N
  N20      1.0000 0.22580  0.95070  0.09100  Biso   1.000  N
