data_image0
_cell_length_a       25.5335
_cell_length_b       9.7098
_cell_length_c       7.6381
_cell_angle_alpha    90
_cell_angle_beta     90
_cell_angle_gamma    90

_symmetry_space_group_name_H-M    "P 1"
_symmetry_int_tables_number       1

loop_
  _symmetry_equiv_pos_as_xyz
  'x, y, z'

loop_
  _atom_site_label
  _atom_site_occupancy
  _atom_site_fract_x
  _atom_site_fract_y
  _atom_site_fract_z
  _atom_site_thermal_displace_type
  _atom_site_B_iso_or_equiv
  _atom_site_type_symbol
  Cu1      1.0000 0.50000  0.16390  0.38040  Biso   1.000  Cu
  Cu2      1.0000 0.50000  0.83610  0.88040  Biso   1.000  Cu
  Cu3      1.0000 0.00000  0.66390  0.38040  Biso   1.000  Cu
  Cu4      1.0000 0.00000  0.33610  0.88040  Biso   1.000  Cu
  N1       1.0000 0.55210  0.32770  0.39180  Biso   1.000  N
  N2       1.0000 0.44790  0.67230  0.89180  Biso   1.000  N
  N3       1.0000 0.44790  0.32770  0.39180  Biso   1.000  N
  N4       1.0000 0.55210  0.67230  0.89180  Biso   1.000  N
  N5       1.0000 0.05210  0.82770  0.39180  Biso   1.000  N
  N6       1.0000 0.94790  0.17230  0.89180  Biso   1.000  N
  N7       1.0000 0.94790  0.82770  0.39180  Biso   1.000  N
  N8       1.0000 0.05210  0.17230  0.89180  Biso   1.000  N
  N9       1.0000 0.50000  0.05930  0.16930  Biso   1.000  N
  N10      1.0000 0.50000  0.94070  0.66930  Biso   1.000  N
  N11      1.0000 0.00000  0.55930  0.16930  Biso   1.000  N
  N12      1.0000 0.00000  0.44070  0.66930  Biso   1.000  N
  N13      1.0000 0.50000  0.03200  0.56720  Biso   1.000  N
  N14      1.0000 0.50000  0.96800  0.06720  Biso   1.000  N
  N15      1.0000 0.00000  0.53200  0.56720  Biso   1.000  N
  N16      1.0000 0.00000  0.46800  0.06720  Biso   1.000  N
  C1       1.0000 0.60430  0.32720  0.40290  Biso   1.000  C
  C2       1.0000 0.39570  0.67280  0.90290  Biso   1.000  C
  C3       1.0000 0.39570  0.32720  0.40290  Biso   1.000  C
  C4       1.0000 0.60430  0.67280  0.90290  Biso   1.000  C
  C5       1.0000 0.10430  0.82720  0.40290  Biso   1.000  C
  C6       1.0000 0.89570  0.17280  0.90290  Biso   1.000  C
  C7       1.0000 0.89570  0.82720  0.40290  Biso   1.000  C
  C8       1.0000 0.10430  0.17280  0.90290  Biso   1.000  C
  C9       1.0000 0.63420  0.44640  0.40190  Biso   1.000  C
  C10      1.0000 0.36580  0.55360  0.90190  Biso   1.000  C
  C11      1.0000 0.36580  0.44640  0.40190  Biso   1.000  C
  C12      1.0000 0.63420  0.55360  0.90190  Biso   1.000  C
  C13      1.0000 0.13420  0.94640  0.40190  Biso   1.000  C
  C14      1.0000 0.86580  0.05360  0.90190  Biso   1.000  C
  C15      1.0000 0.86580  0.94640  0.40190  Biso   1.000  C
  C16      1.0000 0.13420  0.05360  0.90190  Biso   1.000  C
  C17      1.0000 0.61150  0.57560  0.38620  Biso   1.000  C
  C18      1.0000 0.38850  0.42440  0.88620  Biso   1.000  C
  C19      1.0000 0.38850  0.57560  0.38620  Biso   1.000  C
  C20      1.0000 0.61150  0.42440  0.88620  Biso   1.000  C
  C21      1.0000 0.11150  0.07560  0.38620  Biso   1.000  C
  C22      1.0000 0.88850  0.92440  0.88620  Biso   1.000  C
  C23      1.0000 0.88850  0.07560  0.38620  Biso   1.000  C
  C24      1.0000 0.11150  0.92440  0.88620  Biso   1.000  C
  C25      1.0000 0.55590  0.57960  0.36630  Biso   1.000  C
  C26      1.0000 0.44410  0.42040  0.86630  Biso   1.000  C
  C27      1.0000 0.44410  0.57960  0.36630  Biso   1.000  C
  C28      1.0000 0.55590  0.42040  0.86630  Biso   1.000  C
  C29      1.0000 0.05590  0.07960  0.36630  Biso   1.000  C
  C30      1.0000 0.94410  0.92040  0.86630  Biso   1.000  C
  C31      1.0000 0.94410  0.07960  0.36630  Biso   1.000  C
  C32      1.0000 0.05590  0.92040  0.86630  Biso   1.000  C
  C33      1.0000 0.52820  0.45320  0.37720  Biso   1.000  C
  C34      1.0000 0.47180  0.54680  0.87720  Biso   1.000  C
  C35      1.0000 0.47180  0.45320  0.37720  Biso   1.000  C
  C36      1.0000 0.52820  0.54680  0.87720  Biso   1.000  C
  C37      1.0000 0.02820  0.95320  0.37720  Biso   1.000  C
  C38      1.0000 0.97180  0.04680  0.87720  Biso   1.000  C
  C39      1.0000 0.97180  0.95320  0.37720  Biso   1.000  C
  C40      1.0000 0.02820  0.04680  0.87720  Biso   1.000  C
  C41      1.0000 0.64400  0.70170  0.39400  Biso   1.000  C
  C42      1.0000 0.35600  0.29830  0.89400  Biso   1.000  C
  C43      1.0000 0.35600  0.70170  0.39400  Biso   1.000  C
  C44      1.0000 0.64400  0.29830  0.89400  Biso   1.000  C
  C45      1.0000 0.14400  0.20170  0.39400  Biso   1.000  C
  C46      1.0000 0.85600  0.79830  0.89400  Biso   1.000  C
  C47      1.0000 0.85600  0.20170  0.39400  Biso   1.000  C
  C48      1.0000 0.14400  0.79830  0.89400  Biso   1.000  C
  C49      1.0000 0.69210  0.70880  0.30430  Biso   1.000  C
  C50      1.0000 0.30790  0.29120  0.80430  Biso   1.000  C
  C51      1.0000 0.30790  0.70880  0.30430  Biso   1.000  C
  C52      1.0000 0.69210  0.29120  0.80430  Biso   1.000  C
  C53      1.0000 0.19210  0.20880  0.30430  Biso   1.000  C
  C54      1.0000 0.80790  0.79120  0.80430  Biso   1.000  C
  C55      1.0000 0.80790  0.20880  0.30430  Biso   1.000  C
  C56      1.0000 0.19210  0.79120  0.80430  Biso   1.000  C
  C57      1.0000 0.72410  0.82380  0.32050  Biso   1.000  C
  C58      1.0000 0.27590  0.17620  0.82050  Biso   1.000  C
  C59      1.0000 0.27590  0.82380  0.32050  Biso   1.000  C
  C60      1.0000 0.72410  0.17620  0.82050  Biso   1.000  C
  C61      1.0000 0.22410  0.32380  0.32050  Biso   1.000  C
  C62      1.0000 0.77590  0.67620  0.82050  Biso   1.000  C
  C63      1.0000 0.77590  0.32380  0.32050  Biso   1.000  C
  C64      1.0000 0.22410  0.67620  0.82050  Biso   1.000  C
  C65      1.0000 0.70930  0.93240  0.42670  Biso   1.000  C
  C66      1.0000 0.29070  0.06760  0.92670  Biso   1.000  C
  C67      1.0000 0.29070  0.93240  0.42670  Biso   1.000  C
  C68      1.0000 0.70930  0.06760  0.92670  Biso   1.000  C
  C69      1.0000 0.20930  0.43240  0.42670  Biso   1.000  C
  C70      1.0000 0.79070  0.56760  0.92670  Biso   1.000  C
  C71      1.0000 0.79070  0.43240  0.42670  Biso   1.000  C
  C72      1.0000 0.20930  0.56760  0.92670  Biso   1.000  C
  C73      1.0000 0.66210  0.92800  0.51680  Biso   1.000  C
  C74      1.0000 0.33790  0.07200  0.01680  Biso   1.000  C
  C75      1.0000 0.33790  0.92800  0.51680  Biso   1.000  C
  C76      1.0000 0.66210  0.07200  0.01680  Biso   1.000  C
  C77      1.0000 0.16210  0.42800  0.51680  Biso   1.000  C
  C78      1.0000 0.83790  0.57200  0.01680  Biso   1.000  C
  C79      1.0000 0.83790  0.42800  0.51680  Biso   1.000  C
  C80      1.0000 0.16210  0.57200  0.01680  Biso   1.000  C
  C81      1.0000 0.62920  0.81290  0.50030  Biso   1.000  C
  C82      1.0000 0.37080  0.18710  0.00030  Biso   1.000  C
  C83      1.0000 0.37080  0.81290  0.50030  Biso   1.000  C
  C84      1.0000 0.62920  0.18710  0.00030  Biso   1.000  C
  C85      1.0000 0.12920  0.31290  0.50030  Biso   1.000  C
  C86      1.0000 0.87080  0.68710  0.00030  Biso   1.000  C
  C87      1.0000 0.87080  0.31290  0.50030  Biso   1.000  C
  C88      1.0000 0.12920  0.68710  0.00030  Biso   1.000  C
  C89      1.0000 0.52650  0.70280  0.33460  Biso   1.000  C
  C90      1.0000 0.47350  0.29720  0.83460  Biso   1.000  C
  C91      1.0000 0.47350  0.70280  0.33460  Biso   1.000  C
  C92      1.0000 0.52650  0.29720  0.83460  Biso   1.000  C
  C93      1.0000 0.02650  0.20280  0.33460  Biso   1.000  C
  C94      1.0000 0.97350  0.79720  0.83460  Biso   1.000  C
  C95      1.0000 0.97350  0.20280  0.33460  Biso   1.000  C
  C96      1.0000 0.02650  0.79720  0.83460  Biso   1.000  C
  H1       1.0000 0.62140  0.24290  0.41170  Biso   1.000  H
  H2       1.0000 0.37860  0.75710  0.91170  Biso   1.000  H
  H3       1.0000 0.37860  0.24290  0.41170  Biso   1.000  H
  H4       1.0000 0.62140  0.75710  0.91170  Biso   1.000  H
  H5       1.0000 0.12140  0.74290  0.41170  Biso   1.000  H
  H6       1.0000 0.87860  0.25710  0.91170  Biso   1.000  H
  H7       1.0000 0.87860  0.74290  0.41170  Biso   1.000  H
  H8       1.0000 0.12140  0.25710  0.91170  Biso   1.000  H
  H9       1.0000 0.67040  0.43950  0.41210  Biso   1.000  H
  H10      1.0000 0.32960  0.56050  0.91210  Biso   1.000  H
  H11      1.0000 0.32960  0.43950  0.41210  Biso   1.000  H
  H12      1.0000 0.67040  0.56050  0.91210  Biso   1.000  H
  H13      1.0000 0.17040  0.93950  0.41210  Biso   1.000  H
  H14      1.0000 0.82960  0.06050  0.91210  Biso   1.000  H
  H15      1.0000 0.82960  0.93950  0.41210  Biso   1.000  H
  H16      1.0000 0.17040  0.06050  0.91210  Biso   1.000  H
  H17      1.0000 0.70260  0.63590  0.23360  Biso   1.000  H
  H18      1.0000 0.29740  0.36410  0.73360  Biso   1.000  H
  H19      1.0000 0.29740  0.63590  0.23360  Biso   1.000  H
  H20      1.0000 0.70260  0.36410  0.73360  Biso   1.000  H
  H21      1.0000 0.20260  0.13590  0.23360  Biso   1.000  H
  H22      1.0000 0.79740  0.86410  0.73360  Biso   1.000  H
  H23      1.0000 0.79740  0.13590  0.23360  Biso   1.000  H
  H24      1.0000 0.20260  0.86410  0.73360  Biso   1.000  H
  H25      1.0000 0.75550  0.82780  0.25960  Biso   1.000  H
  H26      1.0000 0.24450  0.17220  0.75960  Biso   1.000  H
  H27      1.0000 0.24450  0.82780  0.25960  Biso   1.000  H
  H28      1.0000 0.75550  0.17220  0.75960  Biso   1.000  H
  H29      1.0000 0.25550  0.32780  0.25960  Biso   1.000  H
  H30      1.0000 0.74450  0.67220  0.75960  Biso   1.000  H
  H31      1.0000 0.74450  0.32780  0.25960  Biso   1.000  H
  H32      1.0000 0.25550  0.67220  0.75960  Biso   1.000  H
  H33      1.0000 0.73110  0.00870  0.43790  Biso   1.000  H
  H34      1.0000 0.26890  0.99130  0.93790  Biso   1.000  H
  H35      1.0000 0.26890  0.00870  0.43790  Biso   1.000  H
  H36      1.0000 0.73110  0.99130  0.93790  Biso   1.000  H
  H37      1.0000 0.23110  0.50870  0.43790  Biso   1.000  H
  H38      1.0000 0.76890  0.49130  0.93790  Biso   1.000  H
  H39      1.0000 0.76890  0.50870  0.43790  Biso   1.000  H
  H40      1.0000 0.23110  0.49130  0.93790  Biso   1.000  H
  H41      1.0000 0.65230  0.00130  0.58800  Biso   1.000  H
  H42      1.0000 0.34770  0.99870  0.08800  Biso   1.000  H
  H43      1.0000 0.34770  0.00130  0.58800  Biso   1.000  H
  H44      1.0000 0.65230  0.99870  0.08800  Biso   1.000  H
  H45      1.0000 0.15230  0.50130  0.58800  Biso   1.000  H
  H46      1.0000 0.84770  0.49870  0.08800  Biso   1.000  H
  H47      1.0000 0.84770  0.50130  0.58800  Biso   1.000  H
  H48      1.0000 0.15230  0.49870  0.08800  Biso   1.000  H
  H49      1.0000 0.59750  0.81030  0.56010  Biso   1.000  H
  H50      1.0000 0.40250  0.18970  0.06010  Biso   1.000  H
  H51      1.0000 0.40250  0.81030  0.56010  Biso   1.000  H
  H52      1.0000 0.59750  0.18970  0.06010  Biso   1.000  H
  H53      1.0000 0.09750  0.31030  0.56010  Biso   1.000  H
  H54      1.0000 0.90250  0.68970  0.06010  Biso   1.000  H
  H55      1.0000 0.90250  0.31030  0.56010  Biso   1.000  H
  H56      1.0000 0.09750  0.68970  0.06010  Biso   1.000  H
  H57      1.0000 0.54430  0.78470  0.31350  Biso   1.000  H
  H58      1.0000 0.45570  0.21530  0.81350  Biso   1.000  H
  H59      1.0000 0.45570  0.78470  0.31350  Biso   1.000  H
  H60      1.0000 0.54430  0.21530  0.81350  Biso   1.000  H
  H61      1.0000 0.04430  0.28470  0.31350  Biso   1.000  H
  H62      1.0000 0.95570  0.71530  0.81350  Biso   1.000  H
  H63      1.0000 0.95570  0.28470  0.31350  Biso   1.000  H
  H64      1.0000 0.04430  0.71530  0.81350  Biso   1.000  H
