data_image0
_cell_length_a       12.112
_cell_length_b       9.9414
_cell_length_c       16.308
_cell_angle_alpha    90
_cell_angle_beta     93.743
_cell_angle_gamma    90

_symmetry_space_group_name_H-M    "P 1"
_symmetry_int_tables_number       1

loop_
  _symmetry_equiv_pos_as_xyz
  'x, y, z'

loop_
  _atom_site_label
  _atom_site_occupancy
  _atom_site_fract_x
  _atom_site_fract_y
  _atom_site_fract_z
  _atom_site_thermal_displace_type
  _atom_site_B_iso_or_equiv
  _atom_site_type_symbol
  Cu1      1.0000 0.24260  0.01900  0.49340  Biso   1.000  Cu
  Cu2      1.0000 0.75740  0.51900  0.00660  Biso   1.000  Cu
  Cu3      1.0000 0.75740  0.98100  0.50660  Biso   1.000  Cu
  Cu4      1.0000 0.24260  0.48100  0.99340  Biso   1.000  Cu
  Cu5      1.0000 0.23330  0.79200  0.22470  Biso   1.000  Cu
  Cu6      1.0000 0.76670  0.29200  0.27530  Biso   1.000  Cu
  Cu7      1.0000 0.76670  0.20800  0.77530  Biso   1.000  Cu
  Cu8      1.0000 0.23330  0.70800  0.72470  Biso   1.000  Cu
  N1       1.0000 0.13880  0.17810  0.52570  Biso   1.000  N
  N2       1.0000 0.86120  0.67810  0.97430  Biso   1.000  N
  N3       1.0000 0.86120  0.82190  0.47430  Biso   1.000  N
  N4       1.0000 0.13880  0.32190  0.02570  Biso   1.000  N
  N5       1.0000 0.34260  0.18560  0.47420  Biso   1.000  N
  N6       1.0000 0.65740  0.68560  0.02580  Biso   1.000  N
  N7       1.0000 0.65740  0.81440  0.52580  Biso   1.000  N
  N8       1.0000 0.34260  0.31440  0.97420  Biso   1.000  N
  N9       1.0000 0.25580  0.89520  0.58320  Biso   1.000  N
  N10      1.0000 0.74420  0.39520  0.91680  Biso   1.000  N
  N11      1.0000 0.74420  0.10480  0.41680  Biso   1.000  N
  N12      1.0000 0.25580  0.60480  0.08320  Biso   1.000  N
  N13      1.0000 0.21970  0.95200  0.38010  Biso   1.000  N
  N14      1.0000 0.78030  0.45200  0.11990  Biso   1.000  N
  N15      1.0000 0.78030  0.04800  0.61990  Biso   1.000  N
  N16      1.0000 0.21970  0.54800  0.88010  Biso   1.000  N
  N17      1.0000 0.22110  0.89810  0.31710  Biso   1.000  N
  N18      1.0000 0.77890  0.39810  0.18290  Biso   1.000  N
  N19      1.0000 0.77890  0.10190  0.68290  Biso   1.000  N
  N20      1.0000 0.22110  0.60190  0.81710  Biso   1.000  N
  N21      1.0000 0.25340  0.67900  0.13800  Biso   1.000  N
  N22      1.0000 0.74660  0.17900  0.36200  Biso   1.000  N
  N23      1.0000 0.74660  0.32100  0.86200  Biso   1.000  N
  N24      1.0000 0.25340  0.82100  0.63800  Biso   1.000  N
  C1       1.0000 0.01680  0.65040  0.61930  Biso   1.000  C
  C2       1.0000 0.98320  0.15040  0.88070  Biso   1.000  C
  C3       1.0000 0.98320  0.34960  0.38070  Biso   1.000  C
  C4       1.0000 0.01680  0.84960  0.11930  Biso   1.000  C
  C5       1.0000 0.96680  0.75780  0.65730  Biso   1.000  C
  C6       1.0000 0.03320  0.25780  0.84270  Biso   1.000  C
  C7       1.0000 0.03320  0.24220  0.34270  Biso   1.000  C
  C8       1.0000 0.96680  0.74220  0.15730  Biso   1.000  C
  C9       1.0000 0.89080  0.73530  0.71470  Biso   1.000  C
  C10      1.0000 0.10920  0.23530  0.78530  Biso   1.000  C
  C11      1.0000 0.10920  0.26470  0.28530  Biso   1.000  C
  C12      1.0000 0.89080  0.76470  0.21470  Biso   1.000  C
  C13      1.0000 0.86460  0.60480  0.73570  Biso   1.000  C
  C14      1.0000 0.13540  0.10480  0.76430  Biso   1.000  C
  C15      1.0000 0.13540  0.39520  0.26430  Biso   1.000  C
  C16      1.0000 0.86460  0.89520  0.23570  Biso   1.000  C
  C17      1.0000 0.91310  0.49680  0.69810  Biso   1.000  C
  C18      1.0000 0.08690  0.99680  0.80190  Biso   1.000  C
  C19      1.0000 0.08690  0.50320  0.30190  Biso   1.000  C
  C20      1.0000 0.91310  0.00320  0.19810  Biso   1.000  C
  C21      1.0000 0.99000  0.51760  0.63900  Biso   1.000  C
  C22      1.0000 0.01000  0.01760  0.86100  Biso   1.000  C
  C23      1.0000 0.01000  0.48240  0.36100  Biso   1.000  C
  C24      1.0000 0.99000  0.98240  0.13900  Biso   1.000  C
  C25      1.0000 0.04140  0.40270  0.59740  Biso   1.000  C
  C26      1.0000 0.95860  0.90270  0.90260  Biso   1.000  C
  C27      1.0000 0.95860  0.59730  0.40260  Biso   1.000  C
  C28      1.0000 0.04140  0.09730  0.09740  Biso   1.000  C
  C29      1.0000 0.98940  0.27730  0.59360  Biso   1.000  C
  C30      1.0000 0.01060  0.77730  0.90640  Biso   1.000  C
  C31      1.0000 0.01060  0.72270  0.40640  Biso   1.000  C
  C32      1.0000 0.98940  0.22270  0.09360  Biso   1.000  C
  C33      1.0000 0.04140  0.16950  0.55980  Biso   1.000  C
  C34      1.0000 0.95860  0.66950  0.94020  Biso   1.000  C
  C35      1.0000 0.95860  0.83050  0.44020  Biso   1.000  C
  C36      1.0000 0.04140  0.33050  0.05980  Biso   1.000  C
  C37      1.0000 0.14240  0.41180  0.56210  Biso   1.000  C
  C38      1.0000 0.85760  0.91180  0.93790  Biso   1.000  C
  C39      1.0000 0.85760  0.58820  0.43790  Biso   1.000  C
  C40      1.0000 0.14240  0.08820  0.06210  Biso   1.000  C
  C41      1.0000 0.18800  0.30050  0.52530  Biso   1.000  C
  C42      1.0000 0.81200  0.80050  0.97470  Biso   1.000  C
  C43      1.0000 0.81200  0.69950  0.47470  Biso   1.000  C
  C44      1.0000 0.18800  0.19950  0.02530  Biso   1.000  C
  C45      1.0000 0.29210  0.30620  0.48270  Biso   1.000  C
  C46      1.0000 0.70790  0.80620  0.01730  Biso   1.000  C
  C47      1.0000 0.70790  0.69380  0.51730  Biso   1.000  C
  C48      1.0000 0.29210  0.19380  0.98270  Biso   1.000  C
  C49      1.0000 0.43770  0.18610  0.43680  Biso   1.000  C
  C50      1.0000 0.56230  0.68610  0.06320  Biso   1.000  C
  C51      1.0000 0.56230  0.81390  0.56320  Biso   1.000  C
  C52      1.0000 0.43770  0.31390  0.93680  Biso   1.000  C
  C53      1.0000 0.48370  0.29950  0.40460  Biso   1.000  C
  C54      1.0000 0.51630  0.79950  0.09540  Biso   1.000  C
  C55      1.0000 0.51630  0.70050  0.59540  Biso   1.000  C
  C56      1.0000 0.48370  0.20050  0.90460  Biso   1.000  C
  C57      1.0000 0.43000  0.42340  0.40960  Biso   1.000  C
  C58      1.0000 0.57000  0.92340  0.09040  Biso   1.000  C
  C59      1.0000 0.57000  0.57660  0.59040  Biso   1.000  C
  C60      1.0000 0.43000  0.07660  0.90960  Biso   1.000  C
  C61      1.0000 0.33290  0.42420  0.45010  Biso   1.000  C
  C62      1.0000 0.66710  0.92420  0.04990  Biso   1.000  C
  C63      1.0000 0.66710  0.57580  0.54990  Biso   1.000  C
  C64      1.0000 0.33290  0.07580  0.95010  Biso   1.000  C
  C65      1.0000 0.47630  0.54630  0.37250  Biso   1.000  C
  C66      1.0000 0.52370  0.04630  0.12750  Biso   1.000  C
  C67      1.0000 0.52370  0.45370  0.62750  Biso   1.000  C
  C68      1.0000 0.47630  0.95370  0.87250  Biso   1.000  C
  C69      1.0000 0.56010  0.53820  0.31780  Biso   1.000  C
  C70      1.0000 0.43990  0.03820  0.18220  Biso   1.000  C
  C71      1.0000 0.43990  0.46180  0.68220  Biso   1.000  C
  C72      1.0000 0.56010  0.96180  0.81780  Biso   1.000  C
  C73      1.0000 0.60640  0.65140  0.28520  Biso   1.000  C
  C74      1.0000 0.39360  0.15140  0.21480  Biso   1.000  C
  C75      1.0000 0.39360  0.34860  0.71480  Biso   1.000  C
  C76      1.0000 0.60640  0.84860  0.78520  Biso   1.000  C
  C77      1.0000 0.56960  0.77780  0.30600  Biso   1.000  C
  C78      1.0000 0.43040  0.27780  0.19400  Biso   1.000  C
  C79      1.0000 0.43040  0.22220  0.69400  Biso   1.000  C
  C80      1.0000 0.56960  0.72220  0.80600  Biso   1.000  C
  C81      1.0000 0.48480  0.78860  0.35810  Biso   1.000  C
  C82      1.0000 0.51520  0.28860  0.14190  Biso   1.000  C
  C83      1.0000 0.51520  0.21140  0.64190  Biso   1.000  C
  C84      1.0000 0.48480  0.71140  0.85810  Biso   1.000  C
  C85      1.0000 0.43830  0.67500  0.39060  Biso   1.000  C
  C86      1.0000 0.56170  0.17500  0.10940  Biso   1.000  C
  C87      1.0000 0.56170  0.32500  0.60940  Biso   1.000  C
  C88      1.0000 0.43830  0.82500  0.89060  Biso   1.000  C
  H1       1.0000 0.06820  0.66690  0.58070  Biso   1.000  H
  H2       1.0000 0.93180  0.16690  0.91930  Biso   1.000  H
  H3       1.0000 0.93180  0.33310  0.41930  Biso   1.000  H
  H4       1.0000 0.06820  0.83310  0.08070  Biso   1.000  H
  H5       1.0000 0.98510  0.84550  0.64360  Biso   1.000  H
  H6       1.0000 0.01490  0.34550  0.85640  Biso   1.000  H
  H7       1.0000 0.01490  0.15450  0.35640  Biso   1.000  H
  H8       1.0000 0.98510  0.65450  0.14360  Biso   1.000  H
  H9       1.0000 0.85710  0.80750  0.73930  Biso   1.000  H
  H10      1.0000 0.14290  0.30750  0.76070  Biso   1.000  H
  H11      1.0000 0.14290  0.19250  0.26070  Biso   1.000  H
  H12      1.0000 0.85710  0.69250  0.23930  Biso   1.000  H
  H13      1.0000 0.81410  0.58940  0.77520  Biso   1.000  H
  H14      1.0000 0.18590  0.08940  0.72480  Biso   1.000  H
  H15      1.0000 0.18590  0.41060  0.22480  Biso   1.000  H
  H16      1.0000 0.81410  0.91060  0.27520  Biso   1.000  H
  H17      1.0000 0.89430  0.40950  0.71220  Biso   1.000  H
  H18      1.0000 0.10570  0.90950  0.78780  Biso   1.000  H
  H19      1.0000 0.10570  0.59050  0.28780  Biso   1.000  H
  H20      1.0000 0.89430  0.09050  0.21220  Biso   1.000  H
  H21      1.0000 0.91980  0.26660  0.61380  Biso   1.000  H
  H22      1.0000 0.08020  0.76660  0.88620  Biso   1.000  H
  H23      1.0000 0.08020  0.73340  0.38620  Biso   1.000  H
  H24      1.0000 0.91980  0.23340  0.11380  Biso   1.000  H
  H25      1.0000 0.00690  0.08600  0.56060  Biso   1.000  H
  H26      1.0000 0.99310  0.58600  0.93940  Biso   1.000  H
  H27      1.0000 0.99310  0.91400  0.43940  Biso   1.000  H
  H28      1.0000 0.00690  0.41400  0.06060  Biso   1.000  H
  H29      1.0000 0.18000  0.49340  0.56310  Biso   1.000  H
  H30      1.0000 0.82000  0.99340  0.93690  Biso   1.000  H
  H31      1.0000 0.82000  0.50660  0.43690  Biso   1.000  H
  H32      1.0000 0.18000  0.00660  0.06310  Biso   1.000  H
  H33      1.0000 0.47500  0.10490  0.43240  Biso   1.000  H
  H34      1.0000 0.52500  0.60490  0.06760  Biso   1.000  H
  H35      1.0000 0.52500  0.89510  0.56760  Biso   1.000  H
  H36      1.0000 0.47500  0.39510  0.93240  Biso   1.000  H
  H37      1.0000 0.55040  0.29360  0.37950  Biso   1.000  H
  H38      1.0000 0.44960  0.79360  0.12050  Biso   1.000  H
  H39      1.0000 0.44960  0.70640  0.62050  Biso   1.000  H
  H40      1.0000 0.55040  0.20640  0.87950  Biso   1.000  H
  H41      1.0000 0.29460  0.50440  0.45560  Biso   1.000  H
  H42      1.0000 0.70540  0.00440  0.04440  Biso   1.000  H
  H43      1.0000 0.70540  0.49560  0.54440  Biso   1.000  H
  H44      1.0000 0.29460  0.99560  0.95560  Biso   1.000  H
  H45      1.0000 0.58540  0.45400  0.30290  Biso   1.000  H
  H46      1.0000 0.41460  0.95400  0.19710  Biso   1.000  H
  H47      1.0000 0.41460  0.54600  0.69710  Biso   1.000  H
  H48      1.0000 0.58540  0.04600  0.80290  Biso   1.000  H
  H49      1.0000 0.66240  0.64270  0.24920  Biso   1.000  H
  H50      1.0000 0.33760  0.14270  0.25080  Biso   1.000  H
  H51      1.0000 0.33760  0.35730  0.75080  Biso   1.000  H
  H52      1.0000 0.66240  0.85730  0.74920  Biso   1.000  H
  H53      1.0000 0.60170  0.85450  0.28510  Biso   1.000  H
  H54      1.0000 0.39830  0.35450  0.21490  Biso   1.000  H
  H55      1.0000 0.39830  0.14550  0.71490  Biso   1.000  H
  H56      1.0000 0.60170  0.64550  0.78510  Biso   1.000  H
  H57      1.0000 0.45860  0.87320  0.37150  Biso   1.000  H
  H58      1.0000 0.54140  0.37320  0.12850  Biso   1.000  H
  H59      1.0000 0.54140  0.12680  0.62850  Biso   1.000  H
  H60      1.0000 0.45860  0.62680  0.87150  Biso   1.000  H
  H61      1.0000 0.38070  0.68440  0.42510  Biso   1.000  H
  H62      1.0000 0.61930  0.18440  0.07490  Biso   1.000  H
  H63      1.0000 0.61930  0.31560  0.57490  Biso   1.000  H
  H64      1.0000 0.38070  0.81560  0.92510  Biso   1.000  H
