data_image0
_cell_length_a       23.92
_cell_length_b       13.1187
_cell_length_c       19.689
_cell_angle_alpha    90
_cell_angle_beta     90
_cell_angle_gamma    90

_symmetry_space_group_name_H-M    "P 1"
_symmetry_int_tables_number       1

loop_
  _symmetry_equiv_pos_as_xyz
  'x, y, z'

loop_
  _atom_site_label
  _atom_site_occupancy
  _atom_site_fract_x
  _atom_site_fract_y
  _atom_site_fract_z
  _atom_site_thermal_displace_type
  _atom_site_B_iso_or_equiv
  _atom_site_type_symbol
  V1       1.0000 0.46028  0.15805  0.66521  Biso   1.000  V
  V2       1.0000 0.53972  0.84195  0.16521  Biso   1.000  V
  V3       1.0000 0.96028  0.84195  0.66521  Biso   1.000  V
  V4       1.0000 0.03972  0.15805  0.16521  Biso   1.000  V
  V5       1.0000 0.53266  0.33730  0.57218  Biso   1.000  V
  V6       1.0000 0.46734  0.66270  0.07218  Biso   1.000  V
  V7       1.0000 0.03266  0.66270  0.57218  Biso   1.000  V
  V8       1.0000 0.96734  0.33730  0.07218  Biso   1.000  V
  V9       1.0000 0.46628  0.55876  0.62295  Biso   1.000  V
  V10      1.0000 0.53372  0.44124  0.12295  Biso   1.000  V
  V11      1.0000 0.96628  0.44124  0.62295  Biso   1.000  V
  V12      1.0000 0.03372  0.55876  0.12295  Biso   1.000  V
  V13      1.0000 0.53115  0.74999  0.71313  Biso   1.000  V
  V14      1.0000 0.46885  0.25001  0.21313  Biso   1.000  V
  V15      1.0000 0.03115  0.25001  0.71313  Biso   1.000  V
  V16      1.0000 0.96885  0.74999  0.21313  Biso   1.000  V
  V17      1.0000 0.47307  0.92165  0.61570  Biso   1.000  V
  V18      1.0000 0.52693  0.07835  0.11570  Biso   1.000  V
  V19      1.0000 0.97307  0.07835  0.61570  Biso   1.000  V
  V20      1.0000 0.02693  0.92165  0.11570  Biso   1.000  V
  V21      1.0000 0.38683  0.74186  0.56647  Biso   1.000  V
  V22      1.0000 0.61317  0.25814  0.06647  Biso   1.000  V
  V23      1.0000 0.88683  0.25814  0.56647  Biso   1.000  V
  V24      1.0000 0.11317  0.74186  0.06647  Biso   1.000  V
  Cu1      1.0000 0.50465  0.13970  0.83792  Biso   1.000  Cu
  Cu2      1.0000 0.49535  0.86030  0.33792  Biso   1.000  Cu
  Cu3      1.0000 0.00465  0.86030  0.83792  Biso   1.000  Cu
  Cu4      1.0000 0.99535  0.13970  0.33792  Biso   1.000  Cu
  Cu5      1.0000 0.67342  0.29380  0.62355  Biso   1.000  Cu
  Cu6      1.0000 0.32658  0.70620  0.12355  Biso   1.000  Cu
  Cu7      1.0000 0.17342  0.70620  0.62355  Biso   1.000  Cu
  Cu8      1.0000 0.82658  0.29380  0.12355  Biso   1.000  Cu
  Cu9      1.0000 0.54846  0.37165  0.38899  Biso   1.000  Cu
  Cu10     1.0000 0.45154  0.62835  0.88899  Biso   1.000  Cu
  Cu11     1.0000 0.04846  0.62835  0.38899  Biso   1.000  Cu
  Cu12     1.0000 0.95154  0.37165  0.88899  Biso   1.000  Cu
  Cu13     1.0000 0.02418  0.20374  0.90048  Biso   1.000  Cu
  Cu14     1.0000 0.97582  0.79626  0.40048  Biso   1.000  Cu
  Cu15     1.0000 0.52418  0.79626  0.90048  Biso   1.000  Cu
  Cu16     1.0000 0.47582  0.20374  0.40048  Biso   1.000  Cu
  O1       1.0000 0.49660  0.14250  0.73420  Biso   1.000  O
  O2       1.0000 0.50340  0.85750  0.23420  Biso   1.000  O
  O3       1.0000 0.99660  0.85750  0.73420  Biso   1.000  O
  O4       1.0000 0.00340  0.14250  0.23420  Biso   1.000  O
  O5       1.0000 0.44250  0.03920  0.62780  Biso   1.000  O
  O6       1.0000 0.55750  0.96080  0.12780  Biso   1.000  O
  O7       1.0000 0.94250  0.96080  0.62780  Biso   1.000  O
  O8       1.0000 0.05750  0.03920  0.12780  Biso   1.000  O
  O9       1.0000 0.40050  0.19650  0.68550  Biso   1.000  O
  O10      1.0000 0.59950  0.80350  0.18550  Biso   1.000  O
  O11      1.0000 0.90050  0.80350  0.68550  Biso   1.000  O
  O12      1.0000 0.09950  0.19650  0.18550  Biso   1.000  O
  O13      1.0000 0.49180  0.24400  0.60770  Biso   1.000  O
  O14      1.0000 0.50820  0.75600  0.10770  Biso   1.000  O
  O15      1.0000 0.99180  0.75600  0.60770  Biso   1.000  O
  O16      1.0000 0.00820  0.24400  0.10770  Biso   1.000  O
  O17      1.0000 0.59370  0.33170  0.60500  Biso   1.000  O
  O18      1.0000 0.40630  0.66830  0.10500  Biso   1.000  O
  O19      1.0000 0.09370  0.66830  0.60500  Biso   1.000  O
  O20      1.0000 0.90630  0.33170  0.10500  Biso   1.000  O
  O21      1.0000 0.53410  0.31850  0.49080  Biso   1.000  O
  O22      1.0000 0.46590  0.68150  0.99080  Biso   1.000  O
  O23      1.0000 0.03410  0.68150  0.49080  Biso   1.000  O
  O24      1.0000 0.96590  0.31850  0.99080  Biso   1.000  O
  O25      1.0000 0.50420  0.46170  0.58520  Biso   1.000  O
  O26      1.0000 0.49580  0.53830  0.08520  Biso   1.000  O
  O27      1.0000 0.00420  0.53830  0.58520  Biso   1.000  O
  O28      1.0000 0.99580  0.46170  0.08520  Biso   1.000  O
  O29      1.0000 0.51340  0.63960  0.66140  Biso   1.000  O
  O30      1.0000 0.48660  0.36040  0.16140  Biso   1.000  O
  O31      1.0000 0.01340  0.36040  0.66140  Biso   1.000  O
  O32      1.0000 0.98660  0.63960  0.16140  Biso   1.000  O
  O33      1.0000 0.42590  0.51330  0.67760  Biso   1.000  O
  O34      1.0000 0.57410  0.48670  0.17760  Biso   1.000  O
  O35      1.0000 0.92590  0.48670  0.67760  Biso   1.000  O
  O36      1.0000 0.07410  0.51330  0.17760  Biso   1.000  O
  O37      1.0000 0.42750  0.62660  0.56240  Biso   1.000  O
  O38      1.0000 0.57250  0.37340  0.06240  Biso   1.000  O
  O39      1.0000 0.92750  0.37340  0.56240  Biso   1.000  O
  O40      1.0000 0.07250  0.62660  0.06240  Biso   1.000  O
  O41      1.0000 0.59680  0.76740  0.71090  Biso   1.000  O
  O42      1.0000 0.40320  0.23260  0.21090  Biso   1.000  O
  O43      1.0000 0.09680  0.23260  0.71090  Biso   1.000  O
  O44      1.0000 0.90320  0.76740  0.21090  Biso   1.000  O
  O45      1.0000 0.49230  0.85840  0.68730  Biso   1.000  O
  O46      1.0000 0.50770  0.14160  0.18730  Biso   1.000  O
  O47      1.0000 0.99230  0.14160  0.68730  Biso   1.000  O
  O48      1.0000 0.00770  0.85840  0.18730  Biso   1.000  O
  O49      1.0000 0.51250  0.73240  0.79300  Biso   1.000  O
  O50      1.0000 0.48750  0.26760  0.29300  Biso   1.000  O
  O51      1.0000 0.01250  0.26760  0.79300  Biso   1.000  O
  O52      1.0000 0.98750  0.73240  0.29300  Biso   1.000  O
  O53      1.0000 0.53280  0.94050  0.57970  Biso   1.000  O
  O54      1.0000 0.46720  0.05950  0.07970  Biso   1.000  O
  O55      1.0000 0.03280  0.05950  0.57970  Biso   1.000  O
  O56      1.0000 0.96720  0.94050  0.07970  Biso   1.000  O
  O57      1.0000 0.43530  0.84980  0.56080  Biso   1.000  O
  O58      1.0000 0.56470  0.15020  0.06080  Biso   1.000  O
  O59      1.0000 0.93530  0.15020  0.56080  Biso   1.000  O
  O60      1.0000 0.06470  0.84980  0.06080  Biso   1.000  O
  O61      1.0000 0.35510  0.74910  0.63770  Biso   1.000  O
  O62      1.0000 0.64490  0.25090  0.13770  Biso   1.000  O
  O63      1.0000 0.85510  0.25090  0.63770  Biso   1.000  O
  O64      1.0000 0.14490  0.74910  0.13770  Biso   1.000  O
  O65      1.0000 0.34180  0.74750  0.50460  Biso   1.000  O
  O66      1.0000 0.65820  0.25250  0.00460  Biso   1.000  O
  O67      1.0000 0.84180  0.25250  0.50460  Biso   1.000  O
  O68      1.0000 0.15820  0.74750  0.00460  Biso   1.000  O
  N1       1.0000 0.56610  0.04880  0.85860  Biso   1.000  N
  N2       1.0000 0.43390  0.95120  0.35860  Biso   1.000  N
  N3       1.0000 0.06610  0.95120  0.85860  Biso   1.000  N
  N4       1.0000 0.93390  0.04880  0.35860  Biso   1.000  N
  N5       1.0000 0.96380  0.10860  0.90020  Biso   1.000  N
  N6       1.0000 0.03620  0.89140  0.40020  Biso   1.000  N
  N7       1.0000 0.46380  0.89140  0.90020  Biso   1.000  N
  N8       1.0000 0.53620  0.10860  0.40020  Biso   1.000  N
  N9       1.0000 0.45560  0.23850  0.88060  Biso   1.000  N
  N10      1.0000 0.54440  0.76150  0.38060  Biso   1.000  N
  N11      1.0000 0.95560  0.76150  0.88060  Biso   1.000  N
  N12      1.0000 0.04440  0.23850  0.38060  Biso   1.000  N
  N13      1.0000 0.09090  0.27720  0.92190  Biso   1.000  N
  N14      1.0000 0.90910  0.72280  0.42190  Biso   1.000  N
  N15      1.0000 0.59090  0.72280  0.92190  Biso   1.000  N
  N16      1.0000 0.40910  0.27720  0.42190  Biso   1.000  N
  N17      1.0000 0.69040  0.15130  0.61860  Biso   1.000  N
  N18      1.0000 0.30960  0.84870  0.11860  Biso   1.000  N
  N19      1.0000 0.19040  0.84870  0.61860  Biso   1.000  N
  N20      1.0000 0.80960  0.15130  0.11860  Biso   1.000  N
  N21      1.0000 0.70490  0.42570  0.64930  Biso   1.000  N
  N22      1.0000 0.29510  0.57430  0.14930  Biso   1.000  N
  N23      1.0000 0.20490  0.57430  0.64930  Biso   1.000  N
  N24      1.0000 0.79510  0.42570  0.14930  Biso   1.000  N
  N25      1.0000 0.61960  0.30560  0.37040  Biso   1.000  N
  N26      1.0000 0.38040  0.69440  0.87040  Biso   1.000  N
  N27      1.0000 0.11960  0.69440  0.37040  Biso   1.000  N
  N28      1.0000 0.88040  0.30560  0.87040  Biso   1.000  N
  N29      1.0000 0.99570  0.52380  0.37030  Biso   1.000  N
  N30      1.0000 0.00430  0.47620  0.87030  Biso   1.000  N
  N31      1.0000 0.49570  0.47620  0.37030  Biso   1.000  N
  N32      1.0000 0.50430  0.52380  0.87030  Biso   1.000  N
  C1       1.0000 0.59400  0.99460  0.81230  Biso   1.000  C
  C2       1.0000 0.40600  0.00540  0.31230  Biso   1.000  C
  C3       1.0000 0.09400  0.00540  0.81230  Biso   1.000  C
  C4       1.0000 0.90600  0.99460  0.31230  Biso   1.000  C
  H1       1.0000 0.57950  0.99420  0.76850  Biso   1.000  H
  H2       1.0000 0.42050  0.00580  0.26850  Biso   1.000  H
  H3       1.0000 0.07950  0.00580  0.76850  Biso   1.000  H
  H4       1.0000 0.92050  0.99420  0.26850  Biso   1.000  H
  C5       1.0000 0.63960  0.94230  0.82240  Biso   1.000  C
  C6       1.0000 0.36040  0.05770  0.32240  Biso   1.000  C
  C7       1.0000 0.13960  0.05770  0.82240  Biso   1.000  C
  C8       1.0000 0.86040  0.94230  0.32240  Biso   1.000  C
  H5       1.0000 0.65550  0.90610  0.78670  Biso   1.000  H
  H6       1.0000 0.34450  0.09390  0.28670  Biso   1.000  H
  H7       1.0000 0.15550  0.09390  0.78670  Biso   1.000  H
  H8       1.0000 0.84450  0.90610  0.28670  Biso   1.000  H
  C9       1.0000 0.66400  0.94000  0.88460  Biso   1.000  C
  C10      1.0000 0.33600  0.06000  0.38460  Biso   1.000  C
  C11      1.0000 0.16400  0.06000  0.88460  Biso   1.000  C
  C12      1.0000 0.83600  0.94000  0.38460  Biso   1.000  C
  C13      1.0000 0.63660  0.99480  0.93420  Biso   1.000  C
  C14      1.0000 0.36340  0.00520  0.43420  Biso   1.000  C
  C15      1.0000 0.13660  0.00520  0.93420  Biso   1.000  C
  C16      1.0000 0.86340  0.99480  0.43420  Biso   1.000  C
  H9       1.0000 0.65060  0.99710  0.97820  Biso   1.000  H
  H10      1.0000 0.34940  0.00290  0.47820  Biso   1.000  H
  H11      1.0000 0.15060  0.00290  0.97820  Biso   1.000  H
  H12      1.0000 0.84940  0.99710  0.47820  Biso   1.000  H
  C17      1.0000 0.58940  0.04480  0.91830  Biso   1.000  C
  C18      1.0000 0.41060  0.95520  0.41830  Biso   1.000  C
  C19      1.0000 0.08940  0.95520  0.91830  Biso   1.000  C
  C20      1.0000 0.91060  0.04480  0.41830  Biso   1.000  C
  H13      1.0000 0.57160  0.07990  0.95320  Biso   1.000  H
  H14      1.0000 0.42840  0.92010  0.45320  Biso   1.000  H
  H15      1.0000 0.07160  0.92010  0.95320  Biso   1.000  H
  H16      1.0000 0.92840  0.07990  0.45320  Biso   1.000  H
  C21      1.0000 0.71800  0.88700  0.89780  Biso   1.000  C
  C22      1.0000 0.28200  0.11300  0.39780  Biso   1.000  C
  C23      1.0000 0.21800  0.11300  0.89780  Biso   1.000  C
  C24      1.0000 0.78200  0.88700  0.39780  Biso   1.000  C
  H17      1.0000 0.72250  0.83230  0.86510  Biso   1.000  H
  H18      1.0000 0.27750  0.16770  0.36510  Biso   1.000  H
  H19      1.0000 0.22250  0.16770  0.86510  Biso   1.000  H
  H20      1.0000 0.77750  0.83230  0.36510  Biso   1.000  H
  H21      1.0000 0.71700  0.85690  0.94270  Biso   1.000  H
  H22      1.0000 0.28300  0.14310  0.44270  Biso   1.000  H
  H23      1.0000 0.21700  0.14310  0.94270  Biso   1.000  H
  H24      1.0000 0.78300  0.85690  0.44270  Biso   1.000  H
  C25      1.0000 0.76830  0.95930  0.89290  Biso   1.000  C
  C26      1.0000 0.23170  0.04070  0.39290  Biso   1.000  C
  C27      1.0000 0.26830  0.04070  0.89290  Biso   1.000  C
  C28      1.0000 0.73170  0.95930  0.39290  Biso   1.000  C
  H25      1.0000 0.76520  0.01100  0.92790  Biso   1.000  H
  H26      1.0000 0.23480  0.98900  0.42790  Biso   1.000  H
  H27      1.0000 0.26520  0.98900  0.92790  Biso   1.000  H
  H28      1.0000 0.73480  0.01100  0.42790  Biso   1.000  H
  H29      1.0000 0.76770  0.99340  0.84920  Biso   1.000  H
  H30      1.0000 0.23230  0.00660  0.34920  Biso   1.000  H
  H31      1.0000 0.26770  0.00660  0.84920  Biso   1.000  H
  H32      1.0000 0.73230  0.99340  0.34920  Biso   1.000  H
  C29      1.0000 0.82450  0.90270  0.90100  Biso   1.000  C
  C30      1.0000 0.17550  0.09730  0.40100  Biso   1.000  C
  C31      1.0000 0.32450  0.09730  0.90100  Biso   1.000  C
  C32      1.0000 0.67550  0.90270  0.40100  Biso   1.000  C
  H33      1.0000 0.82410  0.86440  0.94320  Biso   1.000  H
  H34      1.0000 0.17590  0.13560  0.44320  Biso   1.000  H
  H35      1.0000 0.32410  0.13560  0.94320  Biso   1.000  H
  H36      1.0000 0.67590  0.86440  0.44320  Biso   1.000  H
  H37      1.0000 0.82880  0.85450  0.86400  Biso   1.000  H
  H38      1.0000 0.17120  0.14550  0.36400  Biso   1.000  H
  H39      1.0000 0.32880  0.14550  0.86400  Biso   1.000  H
  H40      1.0000 0.67120  0.85450  0.36400  Biso   1.000  H
  C33      1.0000 0.87320  0.97370  0.90140  Biso   1.000  C
  C34      1.0000 0.12680  0.02630  0.40140  Biso   1.000  C
  C35      1.0000 0.37320  0.02630  0.90140  Biso   1.000  C
  C36      1.0000 0.62680  0.97370  0.40140  Biso   1.000  C
  C37      1.0000 0.89510  0.00910  0.95720  Biso   1.000  C
  C38      1.0000 0.10490  0.99090  0.45720  Biso   1.000  C
  C39      1.0000 0.39510  0.99090  0.95720  Biso   1.000  C
  C40      1.0000 0.60490  0.00910  0.45720  Biso   1.000  C
  H41      1.0000 0.87990  0.98930  0.99850  Biso   1.000  H
  H42      1.0000 0.12010  0.01070  0.49850  Biso   1.000  H
  H43      1.0000 0.37990  0.01070  0.99850  Biso   1.000  H
  H44      1.0000 0.62010  0.98930  0.49850  Biso   1.000  H
  C41      1.0000 0.94120  0.07640  0.95730  Biso   1.000  C
  C42      1.0000 0.05880  0.92360  0.45730  Biso   1.000  C
  C43      1.0000 0.44120  0.92360  0.95730  Biso   1.000  C
  C44      1.0000 0.55880  0.07640  0.45730  Biso   1.000  C
  H45      1.0000 0.95580  0.09850  0.99860  Biso   1.000  H
  H46      1.0000 0.04420  0.90150  0.49860  Biso   1.000  H
  H47      1.0000 0.45580  0.90150  0.99860  Biso   1.000  H
  H48      1.0000 0.54420  0.09850  0.49860  Biso   1.000  H
  C45      1.0000 0.94150  0.07430  0.84000  Biso   1.000  C
  C46      1.0000 0.05850  0.92570  0.34000  Biso   1.000  C
  C47      1.0000 0.44150  0.92570  0.84000  Biso   1.000  C
  C48      1.0000 0.55850  0.07430  0.34000  Biso   1.000  C
  H49      1.0000 0.95580  0.09770  0.79890  Biso   1.000  H
  H50      1.0000 0.04420  0.90230  0.29890  Biso   1.000  H
  H51      1.0000 0.45580  0.90230  0.79890  Biso   1.000  H
  H52      1.0000 0.54420  0.09770  0.29890  Biso   1.000  H
  C49      1.0000 0.89900  0.00740  0.84020  Biso   1.000  C
  C50      1.0000 0.10100  0.99260  0.34020  Biso   1.000  C
  C51      1.0000 0.39900  0.99260  0.84020  Biso   1.000  C
  C52      1.0000 0.60100  0.00740  0.34020  Biso   1.000  C
  H53      1.0000 0.88590  0.98220  0.79900  Biso   1.000  H
  H54      1.0000 0.11410  0.01780  0.29900  Biso   1.000  H
  H55      1.0000 0.38590  0.01780  0.79900  Biso   1.000  H
  H56      1.0000 0.61410  0.98220  0.29900  Biso   1.000  H
  C53      1.0000 0.45340  0.24810  0.94780  Biso   1.000  C
  C54      1.0000 0.54660  0.75190  0.44780  Biso   1.000  C
  C55      1.0000 0.95340  0.75190  0.94780  Biso   1.000  C
  C56      1.0000 0.04660  0.24810  0.44780  Biso   1.000  C
  H57      1.0000 0.47660  0.20930  0.97550  Biso   1.000  H
  H58      1.0000 0.52340  0.79070  0.47550  Biso   1.000  H
  H59      1.0000 0.97660  0.79070  0.97550  Biso   1.000  H
  H60      1.0000 0.02340  0.20930  0.47550  Biso   1.000  H
  C57      1.0000 0.41520  0.31820  0.97650  Biso   1.000  C
  C58      1.0000 0.58480  0.68180  0.47650  Biso   1.000  C
  C59      1.0000 0.91520  0.68180  0.97650  Biso   1.000  C
  C60      1.0000 0.08480  0.31820  0.47650  Biso   1.000  C
  H61      1.0000 0.41160  0.32150  0.02350  Biso   1.000  H
  H62      1.0000 0.58840  0.67850  0.52350  Biso   1.000  H
  H63      1.0000 0.91160  0.67850  0.02350  Biso   1.000  H
  H64      1.0000 0.08840  0.32150  0.52350  Biso   1.000  H
  C61      1.0000 0.38410  0.38000  0.93760  Biso   1.000  C
  C62      1.0000 0.61590  0.62000  0.43760  Biso   1.000  C
  C63      1.0000 0.88410  0.62000  0.93760  Biso   1.000  C
  C64      1.0000 0.11590  0.38000  0.43760  Biso   1.000  C
  C65      1.0000 0.38890  0.37170  0.86870  Biso   1.000  C
  C66      1.0000 0.61110  0.62830  0.36870  Biso   1.000  C
  C67      1.0000 0.88890  0.62830  0.86870  Biso   1.000  C
  C68      1.0000 0.11110  0.37170  0.36870  Biso   1.000  C
  H65      1.0000 0.36720  0.41200  0.84020  Biso   1.000  H
  H66      1.0000 0.63280  0.58800  0.34020  Biso   1.000  H
  H67      1.0000 0.86720  0.58800  0.84020  Biso   1.000  H
  H68      1.0000 0.13280  0.41200  0.34020  Biso   1.000  H
  C69      1.0000 0.42620  0.30340  0.84200  Biso   1.000  C
  C70      1.0000 0.57380  0.69660  0.34200  Biso   1.000  C
  C71      1.0000 0.92620  0.69660  0.84200  Biso   1.000  C
  C72      1.0000 0.07380  0.30340  0.34200  Biso   1.000  C
  H69      1.0000 0.43130  0.30190  0.79520  Biso   1.000  H
  H70      1.0000 0.56870  0.69810  0.29520  Biso   1.000  H
  H71      1.0000 0.93130  0.69810  0.79520  Biso   1.000  H
  H72      1.0000 0.06870  0.30190  0.29520  Biso   1.000  H
  C73      1.0000 0.33970  0.44910  0.96910  Biso   1.000  C
  C74      1.0000 0.66030  0.55090  0.46910  Biso   1.000  C
  C75      1.0000 0.83970  0.55090  0.96910  Biso   1.000  C
  C76      1.0000 0.16030  0.44910  0.46910  Biso   1.000  C
  H73      1.0000 0.33850  0.51400  0.94550  Biso   1.000  H
  H74      1.0000 0.66150  0.48600  0.44550  Biso   1.000  H
  H75      1.0000 0.83850  0.48600  0.94550  Biso   1.000  H
  H76      1.0000 0.16150  0.51400  0.44550  Biso   1.000  H
  H77      1.0000 0.34830  0.46180  0.01650  Biso   1.000  H
  H78      1.0000 0.65170  0.53820  0.51650  Biso   1.000  H
  H79      1.0000 0.84830  0.53820  0.01650  Biso   1.000  H
  H80      1.0000 0.15170  0.46180  0.51650  Biso   1.000  H
  C77      1.0000 0.28230  0.39370  0.96270  Biso   1.000  C
  C78      1.0000 0.71770  0.60630  0.46270  Biso   1.000  C
  C79      1.0000 0.78230  0.60630  0.96270  Biso   1.000  C
  C80      1.0000 0.21770  0.39370  0.46270  Biso   1.000  C
  H81      1.0000 0.28020  0.36220  0.91820  Biso   1.000  H
  H82      1.0000 0.71980  0.63780  0.41820  Biso   1.000  H
  H83      1.0000 0.78020  0.63780  0.91820  Biso   1.000  H
  H84      1.0000 0.21980  0.36220  0.41820  Biso   1.000  H
  H85      1.0000 0.28080  0.33970  0.99630  Biso   1.000  H
  H86      1.0000 0.71920  0.66030  0.49630  Biso   1.000  H
  H87      1.0000 0.78080  0.66030  0.99630  Biso   1.000  H
  H88      1.0000 0.21920  0.33970  0.49630  Biso   1.000  H
  C81      1.0000 0.23320  0.46000  0.97170  Biso   1.000  C
  C82      1.0000 0.76680  0.54000  0.47170  Biso   1.000  C
  C83      1.0000 0.73320  0.54000  0.97170  Biso   1.000  C
  C84      1.0000 0.26680  0.46000  0.47170  Biso   1.000  C
  H89      1.0000 0.23600  0.51840  0.94170  Biso   1.000  H
  H90      1.0000 0.76400  0.48160  0.44170  Biso   1.000  H
  H91      1.0000 0.73600  0.48160  0.94170  Biso   1.000  H
  H92      1.0000 0.26400  0.51840  0.44170  Biso   1.000  H
  H93      1.0000 0.23190  0.48480  0.01810  Biso   1.000  H
  H94      1.0000 0.76810  0.51520  0.51810  Biso   1.000  H
  H95      1.0000 0.73190  0.51520  0.01810  Biso   1.000  H
  H96      1.0000 0.26810  0.48480  0.51810  Biso   1.000  H
  C85      1.0000 0.18170  0.40190  0.95620  Biso   1.000  C
  C86      1.0000 0.81830  0.59810  0.45620  Biso   1.000  C
  C87      1.0000 0.68170  0.59810  0.95620  Biso   1.000  C
  C88      1.0000 0.31830  0.40190  0.45620  Biso   1.000  C
  C89      1.0000 0.15100  0.35190  0.00470  Biso   1.000  C
  C90      1.0000 0.84900  0.64810  0.50470  Biso   1.000  C
  C91      1.0000 0.65100  0.64810  0.00470  Biso   1.000  C
  C92      1.0000 0.34900  0.35190  0.50470  Biso   1.000  C
  H97      1.0000 0.16040  0.35960  0.05020  Biso   1.000  H
  H98      1.0000 0.83960  0.64040  0.55020  Biso   1.000  H
  H99      1.0000 0.66040  0.64040  0.05020  Biso   1.000  H
  H100     1.0000 0.33960  0.35960  0.55020  Biso   1.000  H
  C93      1.0000 0.10630  0.29020  0.98700  Biso   1.000  C
  C94      1.0000 0.89370  0.70980  0.48700  Biso   1.000  C
  C95      1.0000 0.60630  0.70980  0.98700  Biso   1.000  C
  C96      1.0000 0.39370  0.29020  0.48700  Biso   1.000  C
  H101     1.0000 0.08650  0.25680  0.02100  Biso   1.000  H
  H102     1.0000 0.91350  0.74320  0.52100  Biso   1.000  H
  H103     1.0000 0.58650  0.74320  0.02100  Biso   1.000  H
  H104     1.0000 0.41350  0.25680  0.52100  Biso   1.000  H
  C97      1.0000 0.12020  0.32510  0.87560  Biso   1.000  C
  C98      1.0000 0.87980  0.67490  0.37560  Biso   1.000  C
  C99      1.0000 0.62020  0.67490  0.87560  Biso   1.000  C
  C100     1.0000 0.37980  0.32510  0.37560  Biso   1.000  C
  H105     1.0000 0.11040  0.31770  0.83020  Biso   1.000  H
  H106     1.0000 0.88960  0.68230  0.33020  Biso   1.000  H
  H107     1.0000 0.61040  0.68230  0.83020  Biso   1.000  H
  H108     1.0000 0.38960  0.31770  0.33020  Biso   1.000  H
  C101     1.0000 0.16510  0.38580  0.89190  Biso   1.000  C
  C102     1.0000 0.83490  0.61420  0.39190  Biso   1.000  C
  C103     1.0000 0.66510  0.61420  0.89190  Biso   1.000  C
  C104     1.0000 0.33490  0.38580  0.39190  Biso   1.000  C
  H109     1.0000 0.18470  0.41720  0.85690  Biso   1.000  H
  H110     1.0000 0.81530  0.58280  0.35690  Biso   1.000  H
  H111     1.0000 0.68470  0.58280  0.85690  Biso   1.000  H
  H112     1.0000 0.31530  0.41720  0.35690  Biso   1.000  H
  C105     1.0000 0.74360  0.12100  0.60590  Biso   1.000  C
  C106     1.0000 0.25640  0.87900  0.10590  Biso   1.000  C
  C107     1.0000 0.24360  0.87900  0.60590  Biso   1.000  C
  C108     1.0000 0.75640  0.12100  0.10590  Biso   1.000  C
  H113     1.0000 0.76990  0.16940  0.59300  Biso   1.000  H
  H114     1.0000 0.23010  0.83060  0.09300  Biso   1.000  H
  H115     1.0000 0.26990  0.83060  0.59300  Biso   1.000  H
  H116     1.0000 0.73010  0.16940  0.09300  Biso   1.000  H
  C109     1.0000 0.75950  0.02130  0.61130  Biso   1.000  C
  C110     1.0000 0.24050  0.97870  0.11130  Biso   1.000  C
  C111     1.0000 0.25950  0.97870  0.61130  Biso   1.000  C
  C112     1.0000 0.74050  0.02130  0.11130  Biso   1.000  C
  H117     1.0000 0.79700  0.00520  0.60540  Biso   1.000  H
  H118     1.0000 0.20300  0.99480  0.10540  Biso   1.000  H
  H119     1.0000 0.29700  0.99480  0.60540  Biso   1.000  H
  H120     1.0000 0.70300  0.00520  0.10540  Biso   1.000  H
  C113     1.0000 0.72330  0.94540  0.62490  Biso   1.000  C
  C114     1.0000 0.27670  0.05460  0.12490  Biso   1.000  C
  C115     1.0000 0.22330  0.05460  0.62490  Biso   1.000  C
  C116     1.0000 0.77670  0.94540  0.12490  Biso   1.000  C
  C117     1.0000 0.66950  0.97540  0.63390  Biso   1.000  C
  C118     1.0000 0.33050  0.02460  0.13390  Biso   1.000  C
  C119     1.0000 0.16950  0.02460  0.63390  Biso   1.000  C
  C120     1.0000 0.83050  0.97540  0.13390  Biso   1.000  C
  H121     1.0000 0.64220  0.92650  0.64250  Biso   1.000  H
  H122     1.0000 0.35780  0.07350  0.14250  Biso   1.000  H
  H123     1.0000 0.14220  0.07350  0.64250  Biso   1.000  H
  H124     1.0000 0.85780  0.92650  0.14250  Biso   1.000  H
  C121     1.0000 0.65440  0.07620  0.63070  Biso   1.000  C
  C122     1.0000 0.34560  0.92380  0.13070  Biso   1.000  C
  C123     1.0000 0.15440  0.92380  0.63070  Biso   1.000  C
  C124     1.0000 0.84560  0.07620  0.13070  Biso   1.000  C
  H125     1.0000 0.61700  0.09290  0.63740  Biso   1.000  H
  H126     1.0000 0.38300  0.90710  0.13740  Biso   1.000  H
  H127     1.0000 0.11700  0.90710  0.63740  Biso   1.000  H
  H128     1.0000 0.88300  0.09290  0.13740  Biso   1.000  H
  C125     1.0000 0.74440  0.83160  0.62820  Biso   1.000  C
  C126     1.0000 0.25560  0.16840  0.12820  Biso   1.000  C
  C127     1.0000 0.24440  0.16840  0.62820  Biso   1.000  C
  C128     1.0000 0.75560  0.83160  0.12820  Biso   1.000  C
  H129     1.0000 0.71740  0.78610  0.60730  Biso   1.000  H
  H130     1.0000 0.28260  0.21390  0.10730  Biso   1.000  H
  H131     1.0000 0.21740  0.21390  0.60730  Biso   1.000  H
  H132     1.0000 0.78260  0.78610  0.10730  Biso   1.000  H
  H133     1.0000 0.77980  0.82450  0.60460  Biso   1.000  H
  H134     1.0000 0.22020  0.17550  0.10460  Biso   1.000  H
  H135     1.0000 0.27980  0.17550  0.60460  Biso   1.000  H
  H136     1.0000 0.72020  0.82450  0.10460  Biso   1.000  H
  C129     1.0000 0.75120  0.80710  0.70240  Biso   1.000  C
  C130     1.0000 0.24880  0.19290  0.20240  Biso   1.000  C
  C131     1.0000 0.25120  0.19290  0.70240  Biso   1.000  C
  C132     1.0000 0.74880  0.80710  0.20240  Biso   1.000  C
  H137     1.0000 0.71460  0.80810  0.72360  Biso   1.000  H
  H138     1.0000 0.28540  0.19190  0.22360  Biso   1.000  H
  H139     1.0000 0.21460  0.19190  0.72360  Biso   1.000  H
  H140     1.0000 0.78540  0.80810  0.22360  Biso   1.000  H
  H141     1.0000 0.77340  0.86040  0.72340  Biso   1.000  H
  H142     1.0000 0.22660  0.13960  0.22340  Biso   1.000  H
  H143     1.0000 0.27340  0.13960  0.72340  Biso   1.000  H
  H144     1.0000 0.72660  0.86040  0.22340  Biso   1.000  H
  C133     1.0000 0.77820  0.70600  0.71700  Biso   1.000  C
  C134     1.0000 0.22180  0.29400  0.21700  Biso   1.000  C
  C135     1.0000 0.27820  0.29400  0.71700  Biso   1.000  C
  C136     1.0000 0.72180  0.70600  0.21700  Biso   1.000  C
  H145     1.0000 0.81580  0.70870  0.69870  Biso   1.000  H
  H146     1.0000 0.18420  0.29130  0.19870  Biso   1.000  H
  H147     1.0000 0.31580  0.29130  0.69870  Biso   1.000  H
  H148     1.0000 0.68420  0.70870  0.19870  Biso   1.000  H
  H149     1.0000 0.78180  0.70030  0.76590  Biso   1.000  H
  H150     1.0000 0.21820  0.29970  0.26590  Biso   1.000  H
  H151     1.0000 0.28180  0.29970  0.76590  Biso   1.000  H
  H152     1.0000 0.71820  0.70030  0.26590  Biso   1.000  H
  C137     1.0000 0.75220  0.60930  0.69220  Biso   1.000  C
  C138     1.0000 0.24780  0.39070  0.19220  Biso   1.000  C
  C139     1.0000 0.25220  0.39070  0.69220  Biso   1.000  C
  C140     1.0000 0.74780  0.60930  0.19220  Biso   1.000  C
  C141     1.0000 0.69520  0.59810  0.68230  Biso   1.000  C
  C142     1.0000 0.30480  0.40190  0.18230  Biso   1.000  C
  C143     1.0000 0.19520  0.40190  0.68230  Biso   1.000  C
  C144     1.0000 0.80480  0.59810  0.18230  Biso   1.000  C
  H153     1.0000 0.67150  0.65340  0.68890  Biso   1.000  H
  H154     1.0000 0.32850  0.34660  0.18890  Biso   1.000  H
  H155     1.0000 0.17150  0.34660  0.68890  Biso   1.000  H
  H156     1.0000 0.82850  0.65340  0.18890  Biso   1.000  H
  C145     1.0000 0.67340  0.50500  0.66260  Biso   1.000  C
  C146     1.0000 0.32660  0.49500  0.16260  Biso   1.000  C
  C147     1.0000 0.17340  0.49500  0.66260  Biso   1.000  C
  C148     1.0000 0.82660  0.50500  0.16260  Biso   1.000  C
  H157     1.0000 0.63480  0.49840  0.65860  Biso   1.000  H
  H158     1.0000 0.36520  0.50160  0.15860  Biso   1.000  H
  H159     1.0000 0.13480  0.50160  0.65860  Biso   1.000  H
  H160     1.0000 0.86520  0.49840  0.15860  Biso   1.000  H
  C149     1.0000 0.75930  0.43740  0.65600  Biso   1.000  C
  C150     1.0000 0.24070  0.56260  0.15600  Biso   1.000  C
  C151     1.0000 0.25930  0.56260  0.65600  Biso   1.000  C
  C152     1.0000 0.74070  0.43740  0.15600  Biso   1.000  C
  H161     1.0000 0.78230  0.38190  0.64670  Biso   1.000  H
  H162     1.0000 0.21770  0.61810  0.14670  Biso   1.000  H
  H163     1.0000 0.28230  0.61810  0.64670  Biso   1.000  H
  H164     1.0000 0.71770  0.38190  0.14670  Biso   1.000  H
  C153     1.0000 0.78390  0.52700  0.67580  Biso   1.000  C
  C154     1.0000 0.21610  0.47300  0.17580  Biso   1.000  C
  C155     1.0000 0.28390  0.47300  0.67580  Biso   1.000  C
  C156     1.0000 0.71610  0.52700  0.17580  Biso   1.000  C
  H165     1.0000 0.82270  0.53140  0.67810  Biso   1.000  H
  H166     1.0000 0.17730  0.46860  0.17810  Biso   1.000  H
  H167     1.0000 0.32270  0.46860  0.67810  Biso   1.000  H
  H168     1.0000 0.67730  0.53140  0.17810  Biso   1.000  H
  C157     1.0000 0.63570  0.29370  0.30610  Biso   1.000  C
  C158     1.0000 0.36430  0.70630  0.80610  Biso   1.000  C
  C159     1.0000 0.13570  0.70630  0.30610  Biso   1.000  C
  C160     1.0000 0.86430  0.29370  0.80610  Biso   1.000  C
  H169     1.0000 0.61060  0.30900  0.27160  Biso   1.000  H
  H170     1.0000 0.38940  0.69100  0.77160  Biso   1.000  H
  H171     1.0000 0.11060  0.69100  0.27160  Biso   1.000  H
  H172     1.0000 0.88940  0.30900  0.77160  Biso   1.000  H
  C161     1.0000 0.68860  0.25960  0.28890  Biso   1.000  C
  C162     1.0000 0.31140  0.74040  0.78890  Biso   1.000  C
  C163     1.0000 0.18860  0.74040  0.28890  Biso   1.000  C
  C164     1.0000 0.81140  0.25960  0.78890  Biso   1.000  C
  H173     1.0000 0.69850  0.25110  0.24360  Biso   1.000  H
  H174     1.0000 0.30150  0.74890  0.74360  Biso   1.000  H
  H175     1.0000 0.19850  0.74890  0.24360  Biso   1.000  H
  H176     1.0000 0.80150  0.25110  0.74360  Biso   1.000  H
  C165     1.0000 0.72580  0.23850  0.33930  Biso   1.000  C
  C166     1.0000 0.27420  0.76150  0.83930  Biso   1.000  C
  C167     1.0000 0.22580  0.76150  0.33930  Biso   1.000  C
  C168     1.0000 0.77420  0.23850  0.83930  Biso   1.000  C
  C169     1.0000 0.70660  0.25030  0.40550  Biso   1.000  C
  C170     1.0000 0.29340  0.74970  0.90550  Biso   1.000  C
  C171     1.0000 0.20660  0.74970  0.40550  Biso   1.000  C
  C172     1.0000 0.79340  0.25030  0.90550  Biso   1.000  C
  H177     1.0000 0.73040  0.23580  0.44160  Biso   1.000  H
  H178     1.0000 0.26960  0.76420  0.94160  Biso   1.000  H
  H179     1.0000 0.23040  0.76420  0.44160  Biso   1.000  H
  H180     1.0000 0.76960  0.23580  0.94160  Biso   1.000  H
  C173     1.0000 0.65580  0.28130  0.41780  Biso   1.000  C
  C174     1.0000 0.34420  0.71870  0.91780  Biso   1.000  C
  C175     1.0000 0.15580  0.71870  0.41780  Biso   1.000  C
  C176     1.0000 0.84420  0.28130  0.91780  Biso   1.000  C
  H181     1.0000 0.64460  0.28650  0.46290  Biso   1.000  H
  H182     1.0000 0.35540  0.71350  0.96290  Biso   1.000  H
  H183     1.0000 0.14460  0.71350  0.46290  Biso   1.000  H
  H184     1.0000 0.85540  0.28650  0.96290  Biso   1.000  H
  C177     1.0000 0.78480  0.21240  0.32270  Biso   1.000  C
  C178     1.0000 0.21520  0.78760  0.82270  Biso   1.000  C
  C179     1.0000 0.28480  0.78760  0.32270  Biso   1.000  C
  C180     1.0000 0.71520  0.21240  0.82270  Biso   1.000  C
  H185     1.0000 0.78710  0.18570  0.27690  Biso   1.000  H
  H186     1.0000 0.21290  0.81430  0.77690  Biso   1.000  H
  H187     1.0000 0.28710  0.81430  0.27690  Biso   1.000  H
  H188     1.0000 0.71290  0.18570  0.77690  Biso   1.000  H
  H189     1.0000 0.79830  0.16050  0.35370  Biso   1.000  H
  H190     1.0000 0.20170  0.83950  0.85370  Biso   1.000  H
  H191     1.0000 0.29830  0.83950  0.35370  Biso   1.000  H
  H192     1.0000 0.70170  0.16050  0.85370  Biso   1.000  H
  C181     1.0000 0.82120  0.30880  0.32890  Biso   1.000  C
  C182     1.0000 0.17880  0.69120  0.82890  Biso   1.000  C
  C183     1.0000 0.32120  0.69120  0.32890  Biso   1.000  C
  C184     1.0000 0.67880  0.30880  0.82890  Biso   1.000  C
  H193     1.0000 0.80640  0.36140  0.29930  Biso   1.000  H
  H194     1.0000 0.19360  0.63860  0.79930  Biso   1.000  H
  H195     1.0000 0.30640  0.63860  0.29930  Biso   1.000  H
  H196     1.0000 0.69360  0.36140  0.79930  Biso   1.000  H
  H197     1.0000 0.81960  0.33390  0.37520  Biso   1.000  H
  H198     1.0000 0.18040  0.66610  0.87520  Biso   1.000  H
  H199     1.0000 0.31960  0.66610  0.37520  Biso   1.000  H
  H200     1.0000 0.68040  0.33390  0.87520  Biso   1.000  H
  C185     1.0000 0.88170  0.28790  0.31000  Biso   1.000  C
  C186     1.0000 0.11830  0.71210  0.81000  Biso   1.000  C
  C187     1.0000 0.38170  0.71210  0.31000  Biso   1.000  C
  C188     1.0000 0.61830  0.28790  0.81000  Biso   1.000  C
  H201     1.0000 0.89430  0.22730  0.33370  Biso   1.000  H
  H202     1.0000 0.10570  0.77270  0.83370  Biso   1.000  H
  H203     1.0000 0.39430  0.77270  0.33370  Biso   1.000  H
  H204     1.0000 0.60570  0.22730  0.83370  Biso   1.000  H
  H205     1.0000 0.88400  0.27470  0.26160  Biso   1.000  H
  H206     1.0000 0.11600  0.72530  0.76160  Biso   1.000  H
  H207     1.0000 0.38400  0.72530  0.26160  Biso   1.000  H
  H208     1.0000 0.61600  0.27470  0.76160  Biso   1.000  H
  C189     1.0000 0.91920  0.37520  0.32770  Biso   1.000  C
  C190     1.0000 0.08080  0.62480  0.82770  Biso   1.000  C
  C191     1.0000 0.41920  0.62480  0.32770  Biso   1.000  C
  C192     1.0000 0.58080  0.37520  0.82770  Biso   1.000  C
  C193     1.0000 0.92640  0.40250  0.39890  Biso   1.000  C
  C194     1.0000 0.07360  0.59750  0.89890  Biso   1.000  C
  C195     1.0000 0.42640  0.59750  0.39890  Biso   1.000  C
  C196     1.0000 0.57360  0.40250  0.89890  Biso   1.000  C
  H209     1.0000 0.90570  0.37030  0.43270  Biso   1.000  H
  H210     1.0000 0.09430  0.62970  0.93270  Biso   1.000  H
  H211     1.0000 0.40570  0.62970  0.43270  Biso   1.000  H
  H212     1.0000 0.59430  0.37030  0.93270  Biso   1.000  H
  C197     1.0000 0.96420  0.47610  0.41480  Biso   1.000  C
  C198     1.0000 0.03580  0.52390  0.91480  Biso   1.000  C
  C199     1.0000 0.46420  0.52390  0.41480  Biso   1.000  C
  C200     1.0000 0.53580  0.47610  0.91480  Biso   1.000  C
  H213     1.0000 0.96800  0.49400  0.46020  Biso   1.000  H
  H214     1.0000 0.03200  0.50600  0.96020  Biso   1.000  H
  H215     1.0000 0.46800  0.50600  0.46020  Biso   1.000  H
  H216     1.0000 0.53200  0.49400  0.96020  Biso   1.000  H
  C201     1.0000 0.98890  0.49330  0.30340  Biso   1.000  C
  C202     1.0000 0.01110  0.50670  0.80340  Biso   1.000  C
  C203     1.0000 0.48890  0.50670  0.30340  Biso   1.000  C
  C204     1.0000 0.51110  0.49330  0.80340  Biso   1.000  C
  H217     1.0000 0.01200  0.52210  0.27060  Biso   1.000  H
  H218     1.0000 0.98800  0.47790  0.77060  Biso   1.000  H
  H219     1.0000 0.51200  0.47790  0.27060  Biso   1.000  H
  H220     1.0000 0.48800  0.52210  0.77060  Biso   1.000  H
  C205     1.0000 0.95180  0.42660  0.28410  Biso   1.000  C
  C206     1.0000 0.04820  0.57340  0.78410  Biso   1.000  C
  C207     1.0000 0.45180  0.57340  0.28410  Biso   1.000  C
  C208     1.0000 0.54820  0.42660  0.78410  Biso   1.000  C
  H221     1.0000 0.94780  0.41410  0.23780  Biso   1.000  H
  H222     1.0000 0.05220  0.58590  0.73780  Biso   1.000  H
  H223     1.0000 0.44780  0.58590  0.23780  Biso   1.000  H
  H224     1.0000 0.55220  0.41410  0.73780  Biso   1.000  H
