data_image0
_cell_length_a       24.812
_cell_length_b       8.855
_cell_length_c       12.08
_cell_angle_alpha    90
_cell_angle_beta     90
_cell_angle_gamma    89.21

_symmetry_space_group_name_H-M    "P 1"
_symmetry_int_tables_number       1

loop_
  _symmetry_equiv_pos_as_xyz
  'x, y, z'

loop_
  _atom_site_label
  _atom_site_occupancy
  _atom_site_fract_x
  _atom_site_fract_y
  _atom_site_fract_z
  _atom_site_thermal_displace_type
  _atom_site_B_iso_or_equiv
  _atom_site_type_symbol
  Cu1      1.0000 0.16150  0.05745  0.27482  Biso   1.000  Cu
  Cu2      1.0000 0.33850  0.05745  0.72518  Biso   1.000  Cu
  Cu3      1.0000 0.16150  0.55745  0.77482  Biso   1.000  Cu
  Cu4      1.0000 0.33850  0.55745  0.22518  Biso   1.000  Cu
  Cu5      1.0000 0.83850  0.94255  0.72518  Biso   1.000  Cu
  Cu6      1.0000 0.66150  0.94255  0.27482  Biso   1.000  Cu
  Cu7      1.0000 0.83850  0.44255  0.22518  Biso   1.000  Cu
  Cu8      1.0000 0.66150  0.44255  0.77482  Biso   1.000  Cu
  Cu9      1.0000 0.00838  0.99086  0.11327  Biso   1.000  Cu
  Cu10     1.0000 0.49162  0.99086  0.88673  Biso   1.000  Cu
  Cu11     1.0000 0.00838  0.49086  0.61327  Biso   1.000  Cu
  Cu12     1.0000 0.49162  0.49086  0.38673  Biso   1.000  Cu
  Cu13     1.0000 0.99162  0.00914  0.88673  Biso   1.000  Cu
  Cu14     1.0000 0.50838  0.00914  0.11327  Biso   1.000  Cu
  Cu15     1.0000 0.99162  0.50914  0.38673  Biso   1.000  Cu
  Cu16     1.0000 0.50838  0.50914  0.61327  Biso   1.000  Cu
  Cl1      1.0000 0.20222  0.00030  0.11182  Biso   1.000  Cl
  Cl2      1.0000 0.29778  0.00030  0.88818  Biso   1.000  Cl
  Cl3      1.0000 0.20222  0.50030  0.61182  Biso   1.000  Cl
  Cl4      1.0000 0.29778  0.50030  0.38818  Biso   1.000  Cl
  Cl5      1.0000 0.79778  0.99970  0.88818  Biso   1.000  Cl
  Cl6      1.0000 0.70222  0.99970  0.11182  Biso   1.000  Cl
  Cl7      1.0000 0.79778  0.49970  0.38818  Biso   1.000  Cl
  Cl8      1.0000 0.70222  0.49970  0.61182  Biso   1.000  Cl
  Cl9      1.0000 0.07129  0.94380  0.24396  Biso   1.000  Cl
  Cl10     1.0000 0.42871  0.94380  0.75604  Biso   1.000  Cl
  Cl11     1.0000 0.07129  0.44380  0.74396  Biso   1.000  Cl
  Cl12     1.0000 0.42871  0.44380  0.25604  Biso   1.000  Cl
  Cl13     1.0000 0.92871  0.05620  0.75604  Biso   1.000  Cl
  Cl14     1.0000 0.57129  0.05620  0.24396  Biso   1.000  Cl
  Cl15     1.0000 0.92871  0.55620  0.25604  Biso   1.000  Cl
  Cl16     1.0000 0.57129  0.55620  0.74396  Biso   1.000  Cl
  Cl17     1.0000 0.98994  0.78520  0.99253  Biso   1.000  Cl
  Cl18     1.0000 0.51006  0.78520  0.00747  Biso   1.000  Cl
  Cl19     1.0000 0.98994  0.28520  0.49253  Biso   1.000  Cl
  Cl20     1.0000 0.51006  0.28520  0.50747  Biso   1.000  Cl
  Cl21     1.0000 0.01006  0.21480  0.00747  Biso   1.000  Cl
  Cl22     1.0000 0.48994  0.21480  0.99253  Biso   1.000  Cl
  Cl23     1.0000 0.01006  0.71480  0.50747  Biso   1.000  Cl
  Cl24     1.0000 0.48994  0.71480  0.49253  Biso   1.000  Cl
  N1       1.0000 0.14020  0.29050  0.25600  Biso   1.000  N
  N2       1.0000 0.35980  0.29050  0.74400  Biso   1.000  N
  N3       1.0000 0.14020  0.79050  0.75600  Biso   1.000  N
  N4       1.0000 0.35980  0.79050  0.24400  Biso   1.000  N
  N5       1.0000 0.85980  0.70950  0.74400  Biso   1.000  N
  N6       1.0000 0.64020  0.70950  0.25600  Biso   1.000  N
  N7       1.0000 0.85980  0.20950  0.24400  Biso   1.000  N
  N8       1.0000 0.64020  0.20950  0.75600  Biso   1.000  N
  N9       1.0000 0.12150  0.49330  0.12440  Biso   1.000  N
  N10      1.0000 0.37850  0.49330  0.87560  Biso   1.000  N
  N11      1.0000 0.12150  0.99330  0.62440  Biso   1.000  N
  N12      1.0000 0.37850  0.99330  0.37560  Biso   1.000  N
  N13      1.0000 0.87850  0.50670  0.87560  Biso   1.000  N
  N14      1.0000 0.62150  0.50670  0.12440  Biso   1.000  N
  N15      1.0000 0.87850  0.00670  0.37560  Biso   1.000  N
  N16      1.0000 0.62150  0.00670  0.62440  Biso   1.000  N
  N17      1.0000 0.16380  0.55050  0.30060  Biso   1.000  N
  N18      1.0000 0.33620  0.55050  0.69940  Biso   1.000  N
  N19      1.0000 0.16380  0.05050  0.80060  Biso   1.000  N
  N20      1.0000 0.33620  0.05050  0.19940  Biso   1.000  N
  N21      1.0000 0.83620  0.44950  0.69940  Biso   1.000  N
  N22      1.0000 0.66380  0.44950  0.30060  Biso   1.000  N
  N23      1.0000 0.83620  0.94950  0.19940  Biso   1.000  N
  N24      1.0000 0.66380  0.94950  0.80060  Biso   1.000  N
  N25      1.0000 0.06980  0.47850  0.29420  Biso   1.000  N
  N26      1.0000 0.43020  0.47850  0.70580  Biso   1.000  N
  N27      1.0000 0.06980  0.97850  0.79420  Biso   1.000  N
  N28      1.0000 0.43020  0.97850  0.20580  Biso   1.000  N
  N29      1.0000 0.93020  0.52150  0.70580  Biso   1.000  N
  N30      1.0000 0.56980  0.52150  0.29420  Biso   1.000  N
  N31      1.0000 0.93020  0.02150  0.20580  Biso   1.000  N
  N32      1.0000 0.56980  0.02150  0.79420  Biso   1.000  N
  C1       1.0000 0.13820  0.32950  0.13810  Biso   1.000  C
  C2       1.0000 0.36180  0.32950  0.86190  Biso   1.000  C
  C3       1.0000 0.13820  0.82950  0.63810  Biso   1.000  C
  C4       1.0000 0.36180  0.82950  0.36190  Biso   1.000  C
  C5       1.0000 0.86180  0.67050  0.86190  Biso   1.000  C
  C6       1.0000 0.63820  0.67050  0.13810  Biso   1.000  C
  C7       1.0000 0.86180  0.17050  0.36190  Biso   1.000  C
  C8       1.0000 0.63820  0.17050  0.63810  Biso   1.000  C
  C9       1.0000 0.16250  0.59220  0.18550  Biso   1.000  C
  C10      1.0000 0.33750  0.59220  0.81450  Biso   1.000  C
  C11      1.0000 0.16250  0.09220  0.68550  Biso   1.000  C
  C12      1.0000 0.33750  0.09220  0.31450  Biso   1.000  C
  C13      1.0000 0.83750  0.40780  0.81450  Biso   1.000  C
  C14      1.0000 0.66250  0.40780  0.18550  Biso   1.000  C
  C15      1.0000 0.83750  0.90780  0.31450  Biso   1.000  C
  C16      1.0000 0.66250  0.90780  0.68550  Biso   1.000  C
  C17      1.0000 0.17940  0.39120  0.31040  Biso   1.000  C
  C18      1.0000 0.32060  0.39120  0.68960  Biso   1.000  C
  C19      1.0000 0.17940  0.89120  0.81040  Biso   1.000  C
  C20      1.0000 0.32060  0.89120  0.18960  Biso   1.000  C
  C21      1.0000 0.82060  0.60880  0.68960  Biso   1.000  C
  C22      1.0000 0.67940  0.60880  0.31040  Biso   1.000  C
  C23      1.0000 0.82060  0.10880  0.18960  Biso   1.000  C
  C24      1.0000 0.67940  0.10880  0.81040  Biso   1.000  C
  C25      1.0000 0.08600  0.31890  0.30500  Biso   1.000  C
  C26      1.0000 0.41400  0.31890  0.69500  Biso   1.000  C
  C27      1.0000 0.08600  0.81890  0.80500  Biso   1.000  C
  C28      1.0000 0.41400  0.81890  0.19500  Biso   1.000  C
  C29      1.0000 0.91400  0.68110  0.69500  Biso   1.000  C
  C30      1.0000 0.58600  0.68110  0.30500  Biso   1.000  C
  C31      1.0000 0.91400  0.18110  0.19500  Biso   1.000  C
  C32      1.0000 0.58600  0.18110  0.80500  Biso   1.000  C
  C33      1.0000 0.06620  0.51950  0.17920  Biso   1.000  C
  C34      1.0000 0.43380  0.51950  0.82080  Biso   1.000  C
  C35      1.0000 0.06620  0.01950  0.67920  Biso   1.000  C
  C36      1.0000 0.43380  0.01950  0.32080  Biso   1.000  C
  C37      1.0000 0.93380  0.48050  0.82080  Biso   1.000  C
  C38      1.0000 0.56620  0.48050  0.17920  Biso   1.000  C
  C39      1.0000 0.93380  0.98050  0.32080  Biso   1.000  C
  C40      1.0000 0.56620  0.98050  0.67920  Biso   1.000  C
  C41      1.0000 0.11050  0.57230  0.35060  Biso   1.000  C
  C42      1.0000 0.38950  0.57230  0.64940  Biso   1.000  C
  C43      1.0000 0.11050  0.07230  0.85060  Biso   1.000  C
  C44      1.0000 0.38950  0.07230  0.14940  Biso   1.000  C
  C45      1.0000 0.88950  0.42770  0.64940  Biso   1.000  C
  C46      1.0000 0.61050  0.42770  0.35060  Biso   1.000  C
  C47      1.0000 0.88950  0.92770  0.14940  Biso   1.000  C
  C48      1.0000 0.61050  0.92770  0.85060  Biso   1.000  C
  C49      1.0000 0.11690  0.53340  0.00290  Biso   1.000  C
  C50      1.0000 0.38310  0.53340  0.99710  Biso   1.000  C
  C51      1.0000 0.11690  0.03340  0.50290  Biso   1.000  C
  C52      1.0000 0.38310  0.03340  0.49710  Biso   1.000  C
  C53      1.0000 0.88310  0.46660  0.99710  Biso   1.000  C
  C54      1.0000 0.61690  0.46660  0.00290  Biso   1.000  C
  C55      1.0000 0.88310  0.96660  0.49710  Biso   1.000  C
  C56      1.0000 0.61690  0.96660  0.50290  Biso   1.000  C
  C57      1.0000 0.17130  0.53800  0.94580  Biso   1.000  C
  C58      1.0000 0.32870  0.53800  0.05420  Biso   1.000  C
  C59      1.0000 0.17130  0.03800  0.44580  Biso   1.000  C
  C60      1.0000 0.32870  0.03800  0.55420  Biso   1.000  C
  C61      1.0000 0.82870  0.46200  0.05420  Biso   1.000  C
  C62      1.0000 0.67130  0.46200  0.94580  Biso   1.000  C
  C63      1.0000 0.82870  0.96200  0.55420  Biso   1.000  C
  C64      1.0000 0.67130  0.96200  0.44580  Biso   1.000  C
  C65      1.0000 0.19430  0.41730  0.89380  Biso   1.000  C
  C66      1.0000 0.30570  0.41730  0.10620  Biso   1.000  C
  C67      1.0000 0.19430  0.91730  0.39380  Biso   1.000  C
  C68      1.0000 0.30570  0.91730  0.60620  Biso   1.000  C
  C69      1.0000 0.80570  0.58270  0.10620  Biso   1.000  C
  C70      1.0000 0.69430  0.58270  0.89380  Biso   1.000  C
  C71      1.0000 0.80570  0.08270  0.60620  Biso   1.000  C
  C72      1.0000 0.69430  0.08270  0.39380  Biso   1.000  C
  H1       1.0000 0.11400  0.26900  0.09500  Biso   1.000  H
  H2       1.0000 0.38600  0.26900  0.90500  Biso   1.000  H
  H3       1.0000 0.11400  0.76900  0.59500  Biso   1.000  H
  H4       1.0000 0.38600  0.76900  0.40500  Biso   1.000  H
  H5       1.0000 0.88600  0.73100  0.90500  Biso   1.000  H
  H6       1.0000 0.61400  0.73100  0.09500  Biso   1.000  H
  H7       1.0000 0.88600  0.23100  0.40500  Biso   1.000  H
  H8       1.0000 0.61400  0.23100  0.59500  Biso   1.000  H
  H9       1.0000 0.17400  0.32200  0.10000  Biso   1.000  H
  H10      1.0000 0.32600  0.32200  0.90000  Biso   1.000  H
  H11      1.0000 0.17400  0.82200  0.60000  Biso   1.000  H
  H12      1.0000 0.32600  0.82200  0.40000  Biso   1.000  H
  H13      1.0000 0.82600  0.67800  0.90000  Biso   1.000  H
  H14      1.0000 0.67400  0.67800  0.10000  Biso   1.000  H
  H15      1.0000 0.82600  0.17800  0.40000  Biso   1.000  H
  H16      1.0000 0.67400  0.17800  0.60000  Biso   1.000  H
  H17      1.0000 0.19800  0.56300  0.14900  Biso   1.000  H
  H18      1.0000 0.30200  0.56300  0.85100  Biso   1.000  H
  H19      1.0000 0.19800  0.06300  0.64900  Biso   1.000  H
  H20      1.0000 0.30200  0.06300  0.35100  Biso   1.000  H
  H21      1.0000 0.80200  0.43700  0.85100  Biso   1.000  H
  H22      1.0000 0.69800  0.43700  0.14900  Biso   1.000  H
  H23      1.0000 0.80200  0.93700  0.35100  Biso   1.000  H
  H24      1.0000 0.69800  0.93700  0.64900  Biso   1.000  H
  H25      1.0000 0.14800  0.70200  0.17500  Biso   1.000  H
  H26      1.0000 0.35200  0.70200  0.82500  Biso   1.000  H
  H27      1.0000 0.14800  0.20200  0.67500  Biso   1.000  H
  H28      1.0000 0.35200  0.20200  0.32500  Biso   1.000  H
  H29      1.0000 0.85200  0.29800  0.82500  Biso   1.000  H
  H30      1.0000 0.64800  0.29800  0.17500  Biso   1.000  H
  H31      1.0000 0.85200  0.79800  0.32500  Biso   1.000  H
  H32      1.0000 0.64800  0.79800  0.67500  Biso   1.000  H
  H33      1.0000 0.21400  0.37500  0.27400  Biso   1.000  H
  H34      1.0000 0.28600  0.37500  0.72600  Biso   1.000  H
  H35      1.0000 0.21400  0.87500  0.77400  Biso   1.000  H
  H36      1.0000 0.28600  0.87500  0.22600  Biso   1.000  H
  H37      1.0000 0.78600  0.62500  0.72600  Biso   1.000  H
  H38      1.0000 0.71400  0.62500  0.27400  Biso   1.000  H
  H39      1.0000 0.78600  0.12500  0.22600  Biso   1.000  H
  H40      1.0000 0.71400  0.12500  0.77400  Biso   1.000  H
  H41      1.0000 0.18700  0.36100  0.39400  Biso   1.000  H
  H42      1.0000 0.31300  0.36100  0.60600  Biso   1.000  H
  H43      1.0000 0.18700  0.86100  0.89400  Biso   1.000  H
  H44      1.0000 0.31300  0.86100  0.10600  Biso   1.000  H
  H45      1.0000 0.81300  0.63900  0.60600  Biso   1.000  H
  H46      1.0000 0.68700  0.63900  0.39400  Biso   1.000  H
  H47      1.0000 0.81300  0.13900  0.10600  Biso   1.000  H
  H48      1.0000 0.68700  0.13900  0.89400  Biso   1.000  H
  H49      1.0000 0.08600  0.29400  0.37600  Biso   1.000  H
  H50      1.0000 0.41400  0.29400  0.62400  Biso   1.000  H
  H51      1.0000 0.08600  0.79400  0.87600  Biso   1.000  H
  H52      1.0000 0.41400  0.79400  0.12400  Biso   1.000  H
  H53      1.0000 0.91400  0.70600  0.62400  Biso   1.000  H
  H54      1.0000 0.58600  0.70600  0.37600  Biso   1.000  H
  H55      1.0000 0.91400  0.20600  0.12400  Biso   1.000  H
  H56      1.0000 0.58600  0.20600  0.87600  Biso   1.000  H
  H57      1.0000 0.06400  0.24400  0.26600  Biso   1.000  H
  H58      1.0000 0.43600  0.24400  0.73400  Biso   1.000  H
  H59      1.0000 0.06400  0.74400  0.76600  Biso   1.000  H
  H60      1.0000 0.43600  0.74400  0.23400  Biso   1.000  H
  H61      1.0000 0.93600  0.75600  0.73400  Biso   1.000  H
  H62      1.0000 0.56400  0.75600  0.26600  Biso   1.000  H
  H63      1.0000 0.93600  0.25600  0.23400  Biso   1.000  H
  H64      1.0000 0.56400  0.25600  0.76600  Biso   1.000  H
  H65      1.0000 0.04400  0.45400  0.14100  Biso   1.000  H
  H66      1.0000 0.45600  0.45400  0.85900  Biso   1.000  H
  H67      1.0000 0.04400  0.95400  0.64100  Biso   1.000  H
  H68      1.0000 0.45600  0.95400  0.35900  Biso   1.000  H
  H69      1.0000 0.95600  0.54600  0.85900  Biso   1.000  H
  H70      1.0000 0.54400  0.54600  0.14100  Biso   1.000  H
  H71      1.0000 0.95600  0.04600  0.35900  Biso   1.000  H
  H72      1.0000 0.54400  0.04600  0.64100  Biso   1.000  H
  H73      1.0000 0.05700  0.62900  0.16700  Biso   1.000  H
  H74      1.0000 0.44300  0.62900  0.83300  Biso   1.000  H
  H75      1.0000 0.05700  0.12900  0.66700  Biso   1.000  H
  H76      1.0000 0.44300  0.12900  0.33300  Biso   1.000  H
  H77      1.0000 0.94300  0.37100  0.83300  Biso   1.000  H
  H78      1.0000 0.55700  0.37100  0.16700  Biso   1.000  H
  H79      1.0000 0.94300  0.87100  0.33300  Biso   1.000  H
  H80      1.0000 0.55700  0.87100  0.66700  Biso   1.000  H
  H81      1.0000 0.11300  0.53500  0.42900  Biso   1.000  H
  H82      1.0000 0.38700  0.53500  0.57100  Biso   1.000  H
  H83      1.0000 0.11300  0.03500  0.92900  Biso   1.000  H
  H84      1.0000 0.38700  0.03500  0.07100  Biso   1.000  H
  H85      1.0000 0.88700  0.46500  0.57100  Biso   1.000  H
  H86      1.0000 0.61300  0.46500  0.42900  Biso   1.000  H
  H87      1.0000 0.88700  0.96500  0.07100  Biso   1.000  H
  H88      1.0000 0.61300  0.96500  0.92900  Biso   1.000  H
  H89      1.0000 0.10000  0.68700  0.33900  Biso   1.000  H
  H90      1.0000 0.40000  0.68700  0.66100  Biso   1.000  H
  H91      1.0000 0.10000  0.18700  0.83900  Biso   1.000  H
  H92      1.0000 0.40000  0.18700  0.16100  Biso   1.000  H
  H93      1.0000 0.90000  0.31300  0.66100  Biso   1.000  H
  H94      1.0000 0.60000  0.31300  0.33900  Biso   1.000  H
  H95      1.0000 0.90000  0.81300  0.16100  Biso   1.000  H
  H96      1.0000 0.60000  0.81300  0.83900  Biso   1.000  H
  H97      1.0000 0.10200  0.61900  0.99800  Biso   1.000  H
  H98      1.0000 0.39800  0.61900  0.00200  Biso   1.000  H
  H99      1.0000 0.10200  0.11900  0.49800  Biso   1.000  H
  H100     1.0000 0.39800  0.11900  0.50200  Biso   1.000  H
  H101     1.0000 0.89800  0.38100  0.00200  Biso   1.000  H
  H102     1.0000 0.60200  0.38100  0.99800  Biso   1.000  H
  H103     1.0000 0.89800  0.88100  0.50200  Biso   1.000  H
  H104     1.0000 0.60200  0.88100  0.49800  Biso   1.000  H
  H105     1.0000 0.09500  0.44300  0.96100  Biso   1.000  H
  H106     1.0000 0.40500  0.44300  0.03900  Biso   1.000  H
  H107     1.0000 0.09500  0.94300  0.46100  Biso   1.000  H
  H108     1.0000 0.40500  0.94300  0.53900  Biso   1.000  H
  H109     1.0000 0.90500  0.55700  0.03900  Biso   1.000  H
  H110     1.0000 0.59500  0.55700  0.96100  Biso   1.000  H
  H111     1.0000 0.90500  0.05700  0.53900  Biso   1.000  H
  H112     1.0000 0.59500  0.05700  0.46100  Biso   1.000  H
  H113     1.0000 0.19700  0.61700  0.97300  Biso   1.000  H
  H114     1.0000 0.30300  0.61700  0.02700  Biso   1.000  H
  H115     1.0000 0.19700  0.11700  0.47300  Biso   1.000  H
  H116     1.0000 0.30300  0.11700  0.52700  Biso   1.000  H
  H117     1.0000 0.80300  0.38300  0.02700  Biso   1.000  H
  H118     1.0000 0.69700  0.38300  0.97300  Biso   1.000  H
  H119     1.0000 0.80300  0.88300  0.52700  Biso   1.000  H
  H120     1.0000 0.69700  0.88300  0.47300  Biso   1.000  H
  H121     1.0000 0.23500  0.41600  0.87800  Biso   1.000  H
  H122     1.0000 0.26500  0.41600  0.12200  Biso   1.000  H
  H123     1.0000 0.23500  0.91600  0.37800  Biso   1.000  H
  H124     1.0000 0.26500  0.91600  0.62200  Biso   1.000  H
  H125     1.0000 0.76500  0.58400  0.12200  Biso   1.000  H
  H126     1.0000 0.73500  0.58400  0.87800  Biso   1.000  H
  H127     1.0000 0.76500  0.08400  0.62200  Biso   1.000  H
  H128     1.0000 0.73500  0.08400  0.37800  Biso   1.000  H
  H129     1.0000 0.18100  0.32300  0.88200  Biso   1.000  H
  H130     1.0000 0.31900  0.32300  0.11800  Biso   1.000  H
  H131     1.0000 0.18100  0.82300  0.38200  Biso   1.000  H
  H132     1.0000 0.31900  0.82300  0.61800  Biso   1.000  H
  H133     1.0000 0.81900  0.67700  0.11800  Biso   1.000  H
  H134     1.0000 0.68100  0.67700  0.88200  Biso   1.000  H
  H135     1.0000 0.81900  0.17700  0.61800  Biso   1.000  H
  H136     1.0000 0.68100  0.17700  0.38200  Biso   1.000  H
