data_image0
_cell_length_a       7.618
_cell_length_b       7.048
_cell_length_c       13.15
_cell_angle_alpha    97.5
_cell_angle_beta     92.7
_cell_angle_gamma    100.74

_symmetry_space_group_name_H-M    "P 1"
_symmetry_int_tables_number       1

loop_
  _symmetry_equiv_pos_as_xyz
  'x, y, z'

loop_
  _atom_site_label
  _atom_site_occupancy
  _atom_site_fract_x
  _atom_site_fract_y
  _atom_site_fract_z
  _atom_site_thermal_displace_type
  _atom_site_B_iso_or_equiv
  _atom_site_type_symbol
  Cu1      1.0000 0.40960  0.07550  0.40294  Biso   1.000  Cu
  Cu2      1.0000 0.59040  0.92450  0.59706  Biso   1.000  Cu
  Cu3      1.0000 0.51750  0.04250  0.11359  Biso   1.000  Cu
  Cu4      1.0000 0.48250  0.95750  0.88641  Biso   1.000  Cu
  Cl1      1.0000 0.44630  0.88080  0.25220  Biso   1.000  Cl
  Cl2      1.0000 0.55370  0.11920  0.74780  Biso   1.000  Cl
  Cl3      1.0000 0.69510  0.18450  0.48170  Biso   1.000  Cl
  Cl4      1.0000 0.30490  0.81550  0.51830  Biso   1.000  Cl
  Cl5      1.0000 0.31160  0.13530  0.00790  Biso   1.000  Cl
  Cl6      1.0000 0.68840  0.86470  0.99210  Biso   1.000  Cl
  N1       1.0000 0.73240  0.29370  0.16990  Biso   1.000  N
  N2       1.0000 0.26760  0.70630  0.83010  Biso   1.000  N
  N3       1.0000 0.04090  0.36480  0.24310  Biso   1.000  N
  N4       1.0000 0.95910  0.63520  0.75690  Biso   1.000  N
  N5       1.0000 0.84620  0.59310  0.28630  Biso   1.000  N
  N6       1.0000 0.15380  0.40690  0.71370  Biso   1.000  N
  N7       1.0000 0.94520  0.55360  0.11500  Biso   1.000  N
  N8       1.0000 0.05480  0.44640  0.88500  Biso   1.000  N
  C1       1.0000 0.87650  0.20550  0.20710  Biso   1.000  C
  C2       1.0000 0.12350  0.79450  0.79290  Biso   1.000  C
  C3       1.0000 0.99130  0.51150  0.32650  Biso   1.000  C
  C4       1.0000 0.00870  0.48850  0.67350  Biso   1.000  C
  C5       1.0000 0.90170  0.69140  0.19700  Biso   1.000  C
  C6       1.0000 0.09830  0.30860  0.80300  Biso   1.000  C
  C7       1.0000 0.69100  0.43980  0.25330  Biso   1.000  C
  C8       1.0000 0.30900  0.56020  0.74670  Biso   1.000  C
  C9       1.0000 0.79010  0.39980  0.08280  Biso   1.000  C
  C10      1.0000 0.20990  0.60020  0.91720  Biso   1.000  C
  C11      1.0000 0.09140  0.47170  0.15010  Biso   1.000  C
  C12      1.0000 0.90860  0.52830  0.84990  Biso   1.000  C
  C13      1.0000 0.19960  0.27980  0.27660  Biso   1.000  C
  C14      1.0000 0.80040  0.72020  0.72340  Biso   1.000  C
  C15      1.0000 0.17660  0.18770  0.37290  Biso   1.000  C
  C16      1.0000 0.82340  0.81230  0.62710  Biso   1.000  C
  C17      1.0000 0.26200  0.27800  0.46420  Biso   1.000  C
  C18      1.0000 0.73800  0.72200  0.53580  Biso   1.000  C
  H1       1.0000 0.91000  0.11900  0.14700  Biso   1.000  H
  H2       1.0000 0.09000  0.88100  0.85300  Biso   1.000  H
  H3       1.0000 0.85900  0.14800  0.27100  Biso   1.000  H
  H4       1.0000 0.14100  0.85200  0.72900  Biso   1.000  H
  H5       1.0000 0.10000  0.62200  0.34300  Biso   1.000  H
  H6       1.0000 0.90000  0.37800  0.65700  Biso   1.000  H
  H7       1.0000 0.95000  0.42300  0.38000  Biso   1.000  H
  H8       1.0000 0.05000  0.57700  0.62000  Biso   1.000  H
  H9       1.0000 0.99600  0.77900  0.21600  Biso   1.000  H
  H10      1.0000 0.00400  0.22100  0.78400  Biso   1.000  H
  H11      1.0000 0.81800  0.75200  0.16100  Biso   1.000  H
  H12      1.0000 0.18200  0.24800  0.83900  Biso   1.000  H
  H13      1.0000 0.59200  0.47900  0.21700  Biso   1.000  H
  H14      1.0000 0.40800  0.52100  0.78300  Biso   1.000  H
  H15      1.0000 0.64100  0.37200  0.30600  Biso   1.000  H
  H16      1.0000 0.35900  0.62800  0.69400  Biso   1.000  H
  H17      1.0000 0.67900  0.44700  0.05700  Biso   1.000  H
  H18      1.0000 0.32100  0.55300  0.94300  Biso   1.000  H
  H19      1.0000 0.81600  0.29400  0.02400  Biso   1.000  H
  H20      1.0000 0.18400  0.70600  0.97600  Biso   1.000  H
  H21      1.0000 0.21100  0.57000  0.17400  Biso   1.000  H
  H22      1.0000 0.78900  0.43000  0.82600  Biso   1.000  H
  H23      1.0000 0.13000  0.38500  0.10300  Biso   1.000  H
  H24      1.0000 0.87000  0.61500  0.89700  Biso   1.000  H
  H25      1.0000 0.29400  0.39500  0.29600  Biso   1.000  H
  H26      1.0000 0.70600  0.60500  0.70400  Biso   1.000  H
  H27      1.0000 0.22600  0.17700  0.21000  Biso   1.000  H
  H28      1.0000 0.77400  0.82300  0.79000  Biso   1.000  H
  H29      1.0000 0.08500  0.09200  0.37700  Biso   1.000  H
  H30      1.0000 0.91500  0.90800  0.62300  Biso   1.000  H
  H31      1.0000 0.34900  0.42000  0.46500  Biso   1.000  H
  H32      1.0000 0.65100  0.58000  0.53500  Biso   1.000  H
  H33      1.0000 0.25300  0.25800  0.52100  Biso   1.000  H
  H34      1.0000 0.74700  0.74200  0.47900  Biso   1.000  H
