data_image0
_cell_length_a       16.824
_cell_length_b       13.646
_cell_length_c       15.09
_cell_angle_alpha    90
_cell_angle_beta     111.192
_cell_angle_gamma    90

_symmetry_space_group_name_H-M    "P 1"
_symmetry_int_tables_number       1

loop_
  _symmetry_equiv_pos_as_xyz
  'x, y, z'

loop_
  _atom_site_label
  _atom_site_occupancy
  _atom_site_fract_x
  _atom_site_fract_y
  _atom_site_fract_z
  _atom_site_thermal_displace_type
  _atom_site_B_iso_or_equiv
  _atom_site_type_symbol
  Cu1      1.0000 0.54963  0.14877  0.12035  Biso   1.000  Cu
  Cu2      1.0000 0.54963  0.85123  0.62035  Biso   1.000  Cu
  Cu3      1.0000 0.04963  0.64877  0.12035  Biso   1.000  Cu
  Cu4      1.0000 0.04963  0.35123  0.62035  Biso   1.000  Cu
  Cu5      1.0000 0.46774  0.20025  0.22937  Biso   1.000  Cu
  Cu6      1.0000 0.46774  0.79975  0.72937  Biso   1.000  Cu
  Cu7      1.0000 0.96774  0.70025  0.22937  Biso   1.000  Cu
  Cu8      1.0000 0.96774  0.29975  0.72937  Biso   1.000  Cu
  Cu9      1.0000 0.25634  0.23713  0.92536  Biso   1.000  Cu
  Cu10     1.0000 0.25634  0.76287  0.42536  Biso   1.000  Cu
  Cu11     1.0000 0.75634  0.73713  0.92536  Biso   1.000  Cu
  Cu12     1.0000 0.75634  0.26287  0.42536  Biso   1.000  Cu
  Cu13     1.0000 0.34834  0.88447  0.25945  Biso   1.000  Cu
  Cu14     1.0000 0.34834  0.11553  0.75945  Biso   1.000  Cu
  Cu15     1.0000 0.84834  0.38447  0.25945  Biso   1.000  Cu
  Cu16     1.0000 0.84834  0.61553  0.75945  Biso   1.000  Cu
  Cu17     1.0000 0.45932  0.44796  0.77627  Biso   1.000  Cu
  Cu18     1.0000 0.45932  0.55204  0.27627  Biso   1.000  Cu
  Cu19     1.0000 0.95932  0.94796  0.77627  Biso   1.000  Cu
  Cu20     1.0000 0.95932  0.05204  0.27627  Biso   1.000  Cu
  S1       1.0000 0.79317  0.97440  0.90048  Biso   1.000  S
  S2       1.0000 0.79317  0.02560  0.40048  Biso   1.000  S
  S3       1.0000 0.29317  0.47440  0.90048  Biso   1.000  S
  S4       1.0000 0.29317  0.52560  0.40048  Biso   1.000  S
  S5       1.0000 0.96286  0.05545  0.02044  Biso   1.000  S
  S6       1.0000 0.96286  0.94455  0.52044  Biso   1.000  S
  S7       1.0000 0.46286  0.55545  0.02044  Biso   1.000  S
  S8       1.0000 0.46286  0.44455  0.52044  Biso   1.000  S
  S9       1.0000 0.01991  0.42040  0.15144  Biso   1.000  S
  S10      1.0000 0.01991  0.57960  0.65144  Biso   1.000  S
  S11      1.0000 0.51991  0.92040  0.15144  Biso   1.000  S
  S12      1.0000 0.51991  0.07960  0.65144  Biso   1.000  S
  S13      1.0000 0.85472  0.32577  0.03837  Biso   1.000  S
  S14      1.0000 0.85472  0.67423  0.53837  Biso   1.000  S
  S15      1.0000 0.35472  0.82577  0.03837  Biso   1.000  S
  S16      1.0000 0.35472  0.17423  0.53837  Biso   1.000  S
  N1       1.0000 0.62800  0.09950  0.05400  Biso   1.000  N
  N2       1.0000 0.62800  0.90050  0.55400  Biso   1.000  N
  N3       1.0000 0.12800  0.59950  0.05400  Biso   1.000  N
  N4       1.0000 0.12800  0.40050  0.55400  Biso   1.000  N
  N5       1.0000 0.22880  0.93880  0.18350  Biso   1.000  N
  N6       1.0000 0.22880  0.06120  0.68350  Biso   1.000  N
  N7       1.0000 0.72880  0.43880  0.18350  Biso   1.000  N
  N8       1.0000 0.72880  0.56120  0.68350  Biso   1.000  N
  N9       1.0000 0.18310  0.26470  0.01270  Biso   1.000  N
  N10      1.0000 0.18310  0.73530  0.51270  Biso   1.000  N
  N11      1.0000 0.68310  0.76470  0.01270  Biso   1.000  N
  N12      1.0000 0.68310  0.23530  0.51270  Biso   1.000  N
  N13      1.0000 0.58800  0.41260  0.84650  Biso   1.000  N
  N14      1.0000 0.58800  0.58740  0.34650  Biso   1.000  N
  N15      1.0000 0.08800  0.91260  0.84650  Biso   1.000  N
  N16      1.0000 0.08800  0.08740  0.34650  Biso   1.000  N
  N17      1.0000 0.36790  0.19350  0.99460  Biso   1.000  N
  N18      1.0000 0.36790  0.80650  0.49460  Biso   1.000  N
  N19      1.0000 0.86790  0.69350  0.99460  Biso   1.000  N
  N20      1.0000 0.86790  0.30650  0.49460  Biso   1.000  N
  N21      1.0000 0.67020  0.22820  0.30700  Biso   1.000  N
  N22      1.0000 0.67020  0.77180  0.80700  Biso   1.000  N
  N23      1.0000 0.17020  0.72820  0.30700  Biso   1.000  N
  N24      1.0000 0.17020  0.27180  0.80700  Biso   1.000  N
  N25      1.0000 0.40850  0.00870  0.28400  Biso   1.000  N
  N26      1.0000 0.40850  0.99130  0.78400  Biso   1.000  N
  N27      1.0000 0.90850  0.50870  0.28400  Biso   1.000  N
  N28      1.0000 0.90850  0.49130  0.78400  Biso   1.000  N
  N29      1.0000 0.45130  0.66220  0.73170  Biso   1.000  N
  N30      1.0000 0.45130  0.33780  0.23170  Biso   1.000  N
  N31      1.0000 0.95130  0.16220  0.73170  Biso   1.000  N
  N32      1.0000 0.95130  0.83780  0.23170  Biso   1.000  N
  N33      1.0000 0.40560  0.32570  0.77670  Biso   1.000  N
  N34      1.0000 0.40560  0.67430  0.27670  Biso   1.000  N
  N35      1.0000 0.90560  0.82570  0.77670  Biso   1.000  N
  N36      1.0000 0.90560  0.17430  0.27670  Biso   1.000  N
  C1       1.0000 0.71180  0.09230  0.09780  Biso   1.000  C
  C2       1.0000 0.71180  0.90770  0.59780  Biso   1.000  C
  C3       1.0000 0.21180  0.59230  0.09780  Biso   1.000  C
  C4       1.0000 0.21180  0.40770  0.59780  Biso   1.000  C
  H1       1.0000 0.73510  0.11460  0.16010  Biso   1.000  H
  H2       1.0000 0.73510  0.88540  0.66010  Biso   1.000  H
  H3       1.0000 0.23510  0.61460  0.16010  Biso   1.000  H
  H4       1.0000 0.23510  0.38540  0.66010  Biso   1.000  H
  C5       1.0000 0.76630  0.05470  0.05830  Biso   1.000  C
  C6       1.0000 0.76630  0.94530  0.55830  Biso   1.000  C
  C7       1.0000 0.26630  0.55470  0.05830  Biso   1.000  C
  C8       1.0000 0.26630  0.44530  0.55830  Biso   1.000  C
  H5       1.0000 0.82450  0.05160  0.09350  Biso   1.000  H
  H6       1.0000 0.82450  0.94840  0.59350  Biso   1.000  H
  H7       1.0000 0.32450  0.55160  0.09350  Biso   1.000  H
  H8       1.0000 0.32450  0.44840  0.59350  Biso   1.000  H
  C9       1.0000 0.73520  0.02190  0.96700  Biso   1.000  C
  C10      1.0000 0.73520  0.97810  0.46700  Biso   1.000  C
  C11      1.0000 0.23520  0.52190  0.96700  Biso   1.000  C
  C12      1.0000 0.23520  0.47810  0.46700  Biso   1.000  C
  C13      1.0000 0.64550  0.02750  0.91860  Biso   1.000  C
  C14      1.0000 0.64550  0.97250  0.41860  Biso   1.000  C
  C15      1.0000 0.14550  0.52750  0.91860  Biso   1.000  C
  C16      1.0000 0.14550  0.47250  0.41860  Biso   1.000  C
  H9       1.0000 0.62070  0.00500  0.85650  Biso   1.000  H
  H10      1.0000 0.62070  0.99500  0.35650  Biso   1.000  H
  H11      1.0000 0.12070  0.50500  0.85650  Biso   1.000  H
  H12      1.0000 0.12070  0.49500  0.35650  Biso   1.000  H
  C17      1.0000 0.59690  0.06600  0.96390  Biso   1.000  C
  C18      1.0000 0.59690  0.93400  0.46390  Biso   1.000  C
  C19      1.0000 0.09690  0.56600  0.96390  Biso   1.000  C
  C20      1.0000 0.09690  0.43400  0.46390  Biso   1.000  C
  H13      1.0000 0.53840  0.06960  0.93100  Biso   1.000  H
  H14      1.0000 0.53840  0.93040  0.43100  Biso   1.000  H
  H15      1.0000 0.03840  0.56960  0.93100  Biso   1.000  H
  H16      1.0000 0.03840  0.43040  0.43100  Biso   1.000  H
  C21      1.0000 0.89610  0.94700  0.98760  Biso   1.000  C
  C22      1.0000 0.89610  0.05300  0.48760  Biso   1.000  C
  C23      1.0000 0.39610  0.44700  0.98760  Biso   1.000  C
  C24      1.0000 0.39610  0.55300  0.48760  Biso   1.000  C
  H17      1.0000 0.92390  0.89800  0.96230  Biso   1.000  H
  H18      1.0000 0.92390  0.10200  0.46230  Biso   1.000  H
  H19      1.0000 0.42390  0.39800  0.96230  Biso   1.000  H
  H20      1.0000 0.42390  0.60200  0.46230  Biso   1.000  H
  H21      1.0000 0.88910  0.91990  0.04380  Biso   1.000  H
  H22      1.0000 0.88910  0.08010  0.54380  Biso   1.000  H
  H23      1.0000 0.38910  0.41990  0.04380  Biso   1.000  H
  H24      1.0000 0.38910  0.58010  0.54380  Biso   1.000  H
  C25      1.0000 0.06350  0.00570  0.08360  Biso   1.000  C
  C26      1.0000 0.06350  0.99430  0.58360  Biso   1.000  C
  C27      1.0000 0.56350  0.50570  0.08360  Biso   1.000  C
  C28      1.0000 0.56350  0.49430  0.58360  Biso   1.000  C
  C29      1.0000 0.12640  0.06890  0.13430  Biso   1.000  C
  C30      1.0000 0.12640  0.93110  0.63430  Biso   1.000  C
  C31      1.0000 0.62640  0.56890  0.13430  Biso   1.000  C
  C32      1.0000 0.62640  0.43110  0.63430  Biso   1.000  C
  H25      1.0000 0.11510  0.13530  0.13650  Biso   1.000  H
  H26      1.0000 0.11510  0.86470  0.63650  Biso   1.000  H
  H27      1.0000 0.61510  0.63530  0.13650  Biso   1.000  H
  H28      1.0000 0.61510  0.36470  0.63650  Biso   1.000  H
  C33      1.0000 0.20830  0.03190  0.18290  Biso   1.000  C
  C34      1.0000 0.20830  0.96810  0.68290  Biso   1.000  C
  C35      1.0000 0.70830  0.53190  0.18290  Biso   1.000  C
  C36      1.0000 0.70830  0.46810  0.68290  Biso   1.000  C
  H29      1.0000 0.25080  0.07570  0.21670  Biso   1.000  H
  H30      1.0000 0.25080  0.92430  0.71670  Biso   1.000  H
  H31      1.0000 0.75080  0.57570  0.21670  Biso   1.000  H
  H32      1.0000 0.75080  0.42430  0.71670  Biso   1.000  H
  C37      1.0000 0.16740  0.87810  0.13270  Biso   1.000  C
  C38      1.0000 0.16740  0.12190  0.63270  Biso   1.000  C
  C39      1.0000 0.66740  0.37810  0.13270  Biso   1.000  C
  C40      1.0000 0.66740  0.62190  0.63270  Biso   1.000  C
  H33      1.0000 0.18040  0.81210  0.13110  Biso   1.000  H
  H34      1.0000 0.18040  0.18790  0.63110  Biso   1.000  H
  H35      1.0000 0.68040  0.31210  0.13110  Biso   1.000  H
  H36      1.0000 0.68040  0.68790  0.63110  Biso   1.000  H
  C41      1.0000 0.08560  0.90840  0.08250  Biso   1.000  C
  C42      1.0000 0.08560  0.09160  0.58250  Biso   1.000  C
  C43      1.0000 0.58560  0.40840  0.08250  Biso   1.000  C
  C44      1.0000 0.58560  0.59160  0.58250  Biso   1.000  C
  H37      1.0000 0.04500  0.86330  0.04760  Biso   1.000  H
  H38      1.0000 0.04500  0.13670  0.54760  Biso   1.000  H
  H39      1.0000 0.54500  0.36330  0.04760  Biso   1.000  H
  H40      1.0000 0.54500  0.63670  0.54760  Biso   1.000  H
  C45      1.0000 0.09830  0.26820  0.97020  Biso   1.000  C
  C46      1.0000 0.09830  0.73180  0.47020  Biso   1.000  C
  C47      1.0000 0.59830  0.76820  0.97020  Biso   1.000  C
  C48      1.0000 0.59830  0.23180  0.47020  Biso   1.000  C
  H41      1.0000 0.07390  0.23850  0.91110  Biso   1.000  H
  H42      1.0000 0.07390  0.76150  0.41110  Biso   1.000  H
  H43      1.0000 0.57390  0.73850  0.91110  Biso   1.000  H
  H44      1.0000 0.57390  0.26150  0.41110  Biso   1.000  H
  C49      1.0000 0.04550  0.31240  0.00820  Biso   1.000  C
  C50      1.0000 0.04550  0.68760  0.50820  Biso   1.000  C
  C51      1.0000 0.54550  0.81240  0.00820  Biso   1.000  C
  C52      1.0000 0.54550  0.18760  0.50820  Biso   1.000  C
  H45      1.0000 0.98690  0.31240  0.97500  Biso   1.000  H
  H46      1.0000 0.98690  0.68760  0.47500  Biso   1.000  H
  H47      1.0000 0.48690  0.81240  0.97500  Biso   1.000  H
  H48      1.0000 0.48690  0.18760  0.47500  Biso   1.000  H
  C53      1.0000 0.07890  0.35740  0.09580  Biso   1.000  C
  C54      1.0000 0.07890  0.64260  0.59580  Biso   1.000  C
  C55      1.0000 0.57890  0.85740  0.09580  Biso   1.000  C
  C56      1.0000 0.57890  0.14260  0.59580  Biso   1.000  C
  C57      1.0000 0.16650  0.35090  0.14320  Biso   1.000  C
  C58      1.0000 0.16650  0.64910  0.64320  Biso   1.000  C
  C59      1.0000 0.66650  0.85090  0.14320  Biso   1.000  C
  C60      1.0000 0.66650  0.14910  0.64320  Biso   1.000  C
  H49      1.0000 0.19170  0.37720  0.20380  Biso   1.000  H
  H50      1.0000 0.19170  0.62280  0.70380  Biso   1.000  H
  H51      1.0000 0.69170  0.87720  0.20380  Biso   1.000  H
  H52      1.0000 0.69170  0.12280  0.70380  Biso   1.000  H
  C61      1.0000 0.21650  0.30450  0.09910  Biso   1.000  C
  C62      1.0000 0.21650  0.69550  0.59910  Biso   1.000  C
  C63      1.0000 0.71650  0.80450  0.09910  Biso   1.000  C
  C64      1.0000 0.71650  0.19550  0.59910  Biso   1.000  C
  H53      1.0000 0.27520  0.30120  0.13120  Biso   1.000  H
  H54      1.0000 0.27520  0.69880  0.63120  Biso   1.000  H
  H55      1.0000 0.77520  0.80120  0.13120  Biso   1.000  H
  H56      1.0000 0.77520  0.19880  0.63120  Biso   1.000  H
  C65      1.0000 0.91780  0.43590  0.06040  Biso   1.000  C
  C66      1.0000 0.91780  0.56410  0.56040  Biso   1.000  C
  C67      1.0000 0.41780  0.93590  0.06040  Biso   1.000  C
  C68      1.0000 0.41780  0.06410  0.56040  Biso   1.000  C
  H57      1.0000 0.92530  0.45580  0.00220  Biso   1.000  H
  H58      1.0000 0.92530  0.54420  0.50220  Biso   1.000  H
  H59      1.0000 0.42530  0.95580  0.00220  Biso   1.000  H
  H60      1.0000 0.42530  0.04420  0.50220  Biso   1.000  H
  H61      1.0000 0.88750  0.48790  0.07860  Biso   1.000  H
  H62      1.0000 0.88750  0.51210  0.57860  Biso   1.000  H
  H63      1.0000 0.38750  0.98790  0.07860  Biso   1.000  H
  H64      1.0000 0.38750  0.01210  0.57860  Biso   1.000  H
  C69      1.0000 0.75560  0.36600  0.96020  Biso   1.000  C
  C70      1.0000 0.75560  0.63400  0.46020  Biso   1.000  C
  C71      1.0000 0.25560  0.86600  0.96020  Biso   1.000  C
  C72      1.0000 0.25560  0.13400  0.46020  Biso   1.000  C
  C73      1.0000 0.69490  0.29360  0.91850  Biso   1.000  C
  C74      1.0000 0.69490  0.70640  0.41850  Biso   1.000  C
  C75      1.0000 0.19490  0.79360  0.91850  Biso   1.000  C
  C76      1.0000 0.19490  0.20640  0.41850  Biso   1.000  C
  H65      1.0000 0.71000  0.22780  0.92750  Biso   1.000  H
  H66      1.0000 0.71000  0.77220  0.42750  Biso   1.000  H
  H67      1.0000 0.21000  0.72780  0.92750  Biso   1.000  H
  H68      1.0000 0.21000  0.27220  0.42750  Biso   1.000  H
  C77      1.0000 0.61510  0.31910  0.86580  Biso   1.000  C
  C78      1.0000 0.61510  0.68090  0.36580  Biso   1.000  C
  C79      1.0000 0.11510  0.81910  0.86580  Biso   1.000  C
  C80      1.0000 0.11510  0.18090  0.36580  Biso   1.000  C
  H69      1.0000 0.57560  0.26920  0.84070  Biso   1.000  H
  H70      1.0000 0.57560  0.73080  0.34070  Biso   1.000  H
  H71      1.0000 0.07560  0.76920  0.84070  Biso   1.000  H
  H72      1.0000 0.07560  0.23080  0.34070  Biso   1.000  H
  C81      1.0000 0.64670  0.47910  0.88230  Biso   1.000  C
  C82      1.0000 0.64670  0.52090  0.38230  Biso   1.000  C
  C83      1.0000 0.14670  0.97910  0.88230  Biso   1.000  C
  C84      1.0000 0.14670  0.02090  0.38230  Biso   1.000  C
  H73      1.0000 0.63060  0.54410  0.86800  Biso   1.000  H
  H74      1.0000 0.63060  0.45590  0.36800  Biso   1.000  H
  H75      1.0000 0.13060  0.04410  0.86800  Biso   1.000  H
  H76      1.0000 0.13060  0.95590  0.36800  Biso   1.000  H
  C85      1.0000 0.73030  0.46190  0.93950  Biso   1.000  C
  C86      1.0000 0.73030  0.53810  0.43950  Biso   1.000  C
  C87      1.0000 0.23030  0.96190  0.93950  Biso   1.000  C
  C88      1.0000 0.23030  0.03810  0.43950  Biso   1.000  C
  H77      1.0000 0.76840  0.51330  0.96330  Biso   1.000  H
  H78      1.0000 0.76840  0.48670  0.46330  Biso   1.000  H
  H79      1.0000 0.26840  0.01330  0.96330  Biso   1.000  H
  H80      1.0000 0.26840  0.98670  0.46330  Biso   1.000  H
  C89      1.0000 0.43550  0.17230  0.03990  Biso   1.000  C
  C90      1.0000 0.43550  0.82770  0.53990  Biso   1.000  C
  C91      1.0000 0.93550  0.67230  0.03990  Biso   1.000  C
  C92      1.0000 0.93550  0.32770  0.53990  Biso   1.000  C
  C93      1.0000 0.61740  0.19460  0.24260  Biso   1.000  C
  C94      1.0000 0.61740  0.80540  0.74260  Biso   1.000  C
  C95      1.0000 0.11740  0.69460  0.24260  Biso   1.000  C
  C96      1.0000 0.11740  0.30540  0.74260  Biso   1.000  C
  C97      1.0000 0.43400  0.08210  0.26940  Biso   1.000  C
  C98      1.0000 0.43400  0.91790  0.76940  Biso   1.000  C
  C99      1.0000 0.93400  0.58210  0.26940  Biso   1.000  C
  C100     1.0000 0.93400  0.41790  0.76940  Biso   1.000  C
  C101     1.0000 0.44990  0.58030  0.74650  Biso   1.000  C
  C102     1.0000 0.44990  0.41970  0.24650  Biso   1.000  C
  C103     1.0000 0.94990  0.08030  0.74650  Biso   1.000  C
  C104     1.0000 0.94990  0.91970  0.24650  Biso   1.000  C
  C105     1.0000 0.38180  0.24680  0.77330  Biso   1.000  C
  C106     1.0000 0.38180  0.75320  0.27330  Biso   1.000  C
  C107     1.0000 0.88180  0.74680  0.77330  Biso   1.000  C
  C108     1.0000 0.88180  0.25320  0.27330  Biso   1.000  C
