data_image0
_cell_length_a       8.0017
_cell_length_b       8.5956
_cell_length_c       10.5915
_cell_angle_alpha    79.648
_cell_angle_beta     79.043
_cell_angle_gamma    78.855

_symmetry_space_group_name_H-M    "P 1"
_symmetry_int_tables_number       1

loop_
  _symmetry_equiv_pos_as_xyz
  'x, y, z'

loop_
  _atom_site_label
  _atom_site_occupancy
  _atom_site_fract_x
  _atom_site_fract_y
  _atom_site_fract_z
  _atom_site_thermal_displace_type
  _atom_site_B_iso_or_equiv
  _atom_site_type_symbol
  Cu1      1.0000 0.41661  0.82484  0.75893  Biso   1.000  Cu
  Cu2      1.0000 0.58339  0.17516  0.24107  Biso   1.000  Cu
  Cu3      1.0000 0.64635  0.58523  0.52352  Biso   1.000  Cu
  Cu4      1.0000 0.35365  0.41477  0.47648  Biso   1.000  Cu
  Cu5      1.0000 0.16966  0.10320  0.25411  Biso   1.000  Cu
  Cu6      1.0000 0.83034  0.89680  0.74589  Biso   1.000  Cu
  Cu7      1.0000 0.91905  0.33159  0.02326  Biso   1.000  Cu
  Cu8      1.0000 0.08095  0.66841  0.97674  Biso   1.000  Cu
  N1       1.0000 0.37660  0.86180  0.57680  Biso   1.000  N
  N2       1.0000 0.62340  0.13820  0.42320  Biso   1.000  N
  N3       1.0000 0.47350  0.77330  0.48240  Biso   1.000  N
  N4       1.0000 0.52650  0.22670  0.51760  Biso   1.000  N
  N5       1.0000 0.28430  0.95940  0.38670  Biso   1.000  N
  N6       1.0000 0.71570  0.04060  0.61330  Biso   1.000  N
  C1       1.0000 0.41490  0.83620  0.37250  Biso   1.000  C
  C2       1.0000 0.58510  0.16380  0.62750  Biso   1.000  C
  H1       1.0000 0.45940  0.79910  0.29360  Biso   1.000  H
  H2       1.0000 0.54060  0.20090  0.70640  Biso   1.000  H
  C3       1.0000 0.26660  0.96960  0.51450  Biso   1.000  C
  C4       1.0000 0.73340  0.03040  0.48550  Biso   1.000  C
  H3       1.0000 0.18470  0.04530  0.55490  Biso   1.000  H
  H4       1.0000 0.81530  0.95470  0.44510  Biso   1.000  H
  N7       1.0000 0.66690  0.53110  0.71110  Biso   1.000  N
  N8       1.0000 0.33310  0.46890  0.28890  Biso   1.000  N
  N9       1.0000 0.59200  0.63630  0.79800  Biso   1.000  N
  N10      1.0000 0.40800  0.36370  0.20200  Biso   1.000  N
  N11      1.0000 0.77390  0.44420  0.89540  Biso   1.000  N
  N12      1.0000 0.22610  0.55580  0.10460  Biso   1.000  N
  C5       1.0000 0.66020  0.57980  0.90540  Biso   1.000  C
  C6       1.0000 0.33980  0.42020  0.09460  Biso   1.000  C
  H5       1.0000 0.63200  0.62920  0.97960  Biso   1.000  H
  H6       1.0000 0.36800  0.37080  0.02040  Biso   1.000  H
  C7       1.0000 0.77280  0.41950  0.77420  Biso   1.000  C
  C8       1.0000 0.22720  0.58050  0.22580  Biso   1.000  C
  H7       1.0000 0.83980  0.33250  0.73800  Biso   1.000  H
  H8       1.0000 0.16020  0.66750  0.26200  Biso   1.000  H
  N13      1.0000 0.99110  0.28810  0.29330  Biso   1.000  N
  N14      1.0000 0.00890  0.71190  0.70670  Biso   1.000  N
  N15      1.0000 0.88750  0.37160  0.20410  Biso   1.000  N
  N16      1.0000 0.11250  0.62840  0.79590  Biso   1.000  N
  N17      1.0000 0.80210  0.47610  0.38860  Biso   1.000  N
  N18      1.0000 0.19790  0.52390  0.61140  Biso   1.000  N
  C9       1.0000 0.77980  0.48000  0.26600  Biso   1.000  C
  C10      1.0000 0.22020  0.52000  0.73400  Biso   1.000  C
  H9       1.0000 0.69530  0.55310  0.22770  Biso   1.000  H
  H10      1.0000 0.30470  0.44690  0.77230  Biso   1.000  H
  C11      1.0000 0.93540  0.35470  0.40020  Biso   1.000  C
  C12      1.0000 0.06460  0.64530  0.59980  Biso   1.000  C
  H11      1.0000 0.98350  0.32100  0.47590  Biso   1.000  H
  H12      1.0000 0.01650  0.67900  0.52410  Biso   1.000  H
  N19      1.0000 0.11440  0.15990  0.97840  Biso   1.000  N
  N20      1.0000 0.88560  0.84010  0.02160  Biso   1.000  N
  N21      1.0000 0.20340  0.06400  0.07210  Biso   1.000  N
  N22      1.0000 0.79660  0.93600  0.92790  Biso   1.000  N
  N23      1.0000 0.29600  0.96610  0.88410  Biso   1.000  N
  N24      1.0000 0.70400  0.03390  0.11590  Biso   1.000  N
  C13      1.0000 0.30740  0.95130  0.01180  Biso   1.000  C
  C14      1.0000 0.69260  0.04870  0.98820  Biso   1.000  C
  H13      1.0000 0.38150  0.86950  0.05310  Biso   1.000  H
  H14      1.0000 0.61850  0.13050  0.94690  Biso   1.000  H
  C15      1.0000 0.17430  0.09740  0.86960  Biso   1.000  C
  C16      1.0000 0.82570  0.90260  0.13040  Biso   1.000  C
  H15      1.0000 0.13610  0.13990  0.79100  Biso   1.000  H
  H16      1.0000 0.86390  0.86010  0.20900  Biso   1.000  H
