data_image0
_cell_length_a       19.4921
_cell_length_b       19.4921
_cell_length_c       18.1281
_cell_angle_alpha    90
_cell_angle_beta     90
_cell_angle_gamma    90

_symmetry_space_group_name_H-M    "P 1"
_symmetry_int_tables_number       1

loop_
  _symmetry_equiv_pos_as_xyz
  'x, y, z'

loop_
  _atom_site_label
  _atom_site_occupancy
  _atom_site_fract_x
  _atom_site_fract_y
  _atom_site_fract_z
  _atom_site_thermal_displace_type
  _atom_site_B_iso_or_equiv
  _atom_site_type_symbol
  Cu1      1.0000 0.48616  0.31906  0.07263  Biso   1.000  Cu
  Cu2      1.0000 0.01384  0.68094  0.57263  Biso   1.000  Cu
  Cu3      1.0000 0.93094  0.23616  0.32263  Biso   1.000  Cu
  Cu4      1.0000 0.56906  0.76384  0.82263  Biso   1.000  Cu
  Cu5      1.0000 0.01384  0.31906  0.92737  Biso   1.000  Cu
  Cu6      1.0000 0.48616  0.68094  0.42737  Biso   1.000  Cu
  Cu7      1.0000 0.56906  0.23616  0.67737  Biso   1.000  Cu
  Cu8      1.0000 0.93094  0.76384  0.17737  Biso   1.000  Cu
  Cu9      1.0000 0.98616  0.81906  0.57263  Biso   1.000  Cu
  Cu10     1.0000 0.51384  0.18094  0.07263  Biso   1.000  Cu
  Cu11     1.0000 0.43094  0.73616  0.82263  Biso   1.000  Cu
  Cu12     1.0000 0.06906  0.26384  0.32263  Biso   1.000  Cu
  Cu13     1.0000 0.51384  0.81906  0.42737  Biso   1.000  Cu
  Cu14     1.0000 0.98616  0.18094  0.92737  Biso   1.000  Cu
  Cu15     1.0000 0.06906  0.73616  0.17737  Biso   1.000  Cu
  Cu16     1.0000 0.43094  0.26384  0.67737  Biso   1.000  Cu
  Cu17     1.0000 0.51384  0.68094  0.92737  Biso   1.000  Cu
  Cu18     1.0000 0.98616  0.31906  0.42737  Biso   1.000  Cu
  Cu19     1.0000 0.56906  0.26384  0.17737  Biso   1.000  Cu
  Cu20     1.0000 0.93094  0.73616  0.67737  Biso   1.000  Cu
  Cu21     1.0000 0.98616  0.68094  0.07263  Biso   1.000  Cu
  Cu22     1.0000 0.51384  0.31906  0.57263  Biso   1.000  Cu
  Cu23     1.0000 0.93094  0.26384  0.82263  Biso   1.000  Cu
  Cu24     1.0000 0.56906  0.73616  0.32263  Biso   1.000  Cu
  Cu25     1.0000 0.01384  0.18094  0.42737  Biso   1.000  Cu
  Cu26     1.0000 0.48616  0.81906  0.92737  Biso   1.000  Cu
  Cu27     1.0000 0.06906  0.76384  0.67737  Biso   1.000  Cu
  Cu28     1.0000 0.43094  0.23616  0.17737  Biso   1.000  Cu
  Cu29     1.0000 0.48616  0.18094  0.57263  Biso   1.000  Cu
  Cu30     1.0000 0.01384  0.81906  0.07263  Biso   1.000  Cu
  Cu31     1.0000 0.43094  0.76384  0.32263  Biso   1.000  Cu
  Cu32     1.0000 0.06906  0.23616  0.82263  Biso   1.000  Cu
  I1       1.0000 0.38479  0.22783  0.04088  Biso   1.000  I
  I2       1.0000 0.11521  0.77217  0.54088  Biso   1.000  I
  I3       1.0000 0.02217  0.13479  0.29088  Biso   1.000  I
  I4       1.0000 0.47783  0.86521  0.79088  Biso   1.000  I
  I5       1.0000 0.11521  0.22783  0.95912  Biso   1.000  I
  I6       1.0000 0.38479  0.77217  0.45912  Biso   1.000  I
  I7       1.0000 0.47783  0.13479  0.70912  Biso   1.000  I
  I8       1.0000 0.02217  0.86521  0.20912  Biso   1.000  I
  I9       1.0000 0.88479  0.72783  0.54088  Biso   1.000  I
  I10      1.0000 0.61521  0.27217  0.04088  Biso   1.000  I
  I11      1.0000 0.52217  0.63479  0.79088  Biso   1.000  I
  I12      1.0000 0.97783  0.36521  0.29088  Biso   1.000  I
  I13      1.0000 0.61521  0.72783  0.45912  Biso   1.000  I
  I14      1.0000 0.88479  0.27217  0.95912  Biso   1.000  I
  I15      1.0000 0.97783  0.63479  0.20912  Biso   1.000  I
  I16      1.0000 0.52217  0.36521  0.70912  Biso   1.000  I
  I17      1.0000 0.61521  0.77217  0.95912  Biso   1.000  I
  I18      1.0000 0.88479  0.22783  0.45912  Biso   1.000  I
  I19      1.0000 0.47783  0.36521  0.20912  Biso   1.000  I
  I20      1.0000 0.02217  0.63479  0.70912  Biso   1.000  I
  I21      1.0000 0.88479  0.77217  0.04088  Biso   1.000  I
  I22      1.0000 0.61521  0.22783  0.54088  Biso   1.000  I
  I23      1.0000 0.02217  0.36521  0.79088  Biso   1.000  I
  I24      1.0000 0.47783  0.63479  0.29088  Biso   1.000  I
  I25      1.0000 0.11521  0.27217  0.45912  Biso   1.000  I
  I26      1.0000 0.38479  0.72783  0.95912  Biso   1.000  I
  I27      1.0000 0.97783  0.86521  0.70912  Biso   1.000  I
  I28      1.0000 0.52217  0.13479  0.20912  Biso   1.000  I
  I29      1.0000 0.38479  0.27217  0.54088  Biso   1.000  I
  I30      1.0000 0.11521  0.72783  0.04088  Biso   1.000  I
  I31      1.0000 0.52217  0.86521  0.29088  Biso   1.000  I
  I32      1.0000 0.97783  0.13479  0.79088  Biso   1.000  I
  N1       1.0000 0.29439  0.45561  0.87500  Biso   1.000  N
  N2       1.0000 0.20561  0.54439  0.37500  Biso   1.000  N
  N3       1.0000 0.79439  0.04439  0.12500  Biso   1.000  N
  N4       1.0000 0.70561  0.95561  0.62500  Biso   1.000  N
  N5       1.0000 0.20561  0.45561  0.12500  Biso   1.000  N
  N6       1.0000 0.29439  0.54439  0.62500  Biso   1.000  N
  N7       1.0000 0.70561  0.04439  0.87500  Biso   1.000  N
  N8       1.0000 0.79439  0.95561  0.37500  Biso   1.000  N
  N9       1.0000 0.70561  0.54439  0.12500  Biso   1.000  N
  N10      1.0000 0.79439  0.45561  0.62500  Biso   1.000  N
  N11      1.0000 0.70561  0.45561  0.37500  Biso   1.000  N
  N12      1.0000 0.79439  0.54439  0.87500  Biso   1.000  N
  N13      1.0000 0.20561  0.04439  0.62500  Biso   1.000  N
  N14      1.0000 0.29439  0.95561  0.12500  Biso   1.000  N
  N15      1.0000 0.20561  0.95561  0.87500  Biso   1.000  N
  N16      1.0000 0.29439  0.04439  0.37500  Biso   1.000  N
  N17      1.0000 0.42138  0.47286  0.93849  Biso   1.000  N
  N18      1.0000 0.07862  0.52714  0.43849  Biso   1.000  N
  N19      1.0000 0.77714  0.17138  0.18849  Biso   1.000  N
  N20      1.0000 0.72286  0.82862  0.68849  Biso   1.000  N
  N21      1.0000 0.07862  0.47286  0.06151  Biso   1.000  N
  N22      1.0000 0.42138  0.52714  0.56151  Biso   1.000  N
  N23      1.0000 0.72286  0.17138  0.81151  Biso   1.000  N
  N24      1.0000 0.77714  0.82862  0.31151  Biso   1.000  N
  N25      1.0000 0.92138  0.97286  0.43849  Biso   1.000  N
  N26      1.0000 0.57862  0.02714  0.93849  Biso   1.000  N
  N27      1.0000 0.27714  0.67138  0.68849  Biso   1.000  N
  N28      1.0000 0.22286  0.32862  0.18849  Biso   1.000  N
  N29      1.0000 0.57862  0.97286  0.56151  Biso   1.000  N
  N30      1.0000 0.92138  0.02714  0.06151  Biso   1.000  N
  N31      1.0000 0.22286  0.67138  0.31151  Biso   1.000  N
  N32      1.0000 0.27714  0.32862  0.81151  Biso   1.000  N
  N33      1.0000 0.57862  0.52714  0.06151  Biso   1.000  N
  N34      1.0000 0.92138  0.47286  0.56151  Biso   1.000  N
  N35      1.0000 0.72286  0.32862  0.31151  Biso   1.000  N
  N36      1.0000 0.77714  0.67138  0.81151  Biso   1.000  N
  N37      1.0000 0.92138  0.52714  0.93849  Biso   1.000  N
  N38      1.0000 0.57862  0.47286  0.43849  Biso   1.000  N
  N39      1.0000 0.77714  0.32862  0.68849  Biso   1.000  N
  N40      1.0000 0.72286  0.67138  0.18849  Biso   1.000  N
  N41      1.0000 0.07862  0.02714  0.56151  Biso   1.000  N
  N42      1.0000 0.42138  0.97286  0.06151  Biso   1.000  N
  N43      1.0000 0.22286  0.82862  0.81151  Biso   1.000  N
  N44      1.0000 0.27714  0.17138  0.31151  Biso   1.000  N
  N45      1.0000 0.42138  0.02714  0.43849  Biso   1.000  N
  N46      1.0000 0.07862  0.97286  0.93849  Biso   1.000  N
  N47      1.0000 0.27714  0.82862  0.18849  Biso   1.000  N
  N48      1.0000 0.22286  0.17138  0.68849  Biso   1.000  N
  N49      1.0000 0.42785  0.44294  0.00372  Biso   1.000  N
  N50      1.0000 0.07215  0.55706  0.50372  Biso   1.000  N
  N51      1.0000 0.80706  0.17785  0.25372  Biso   1.000  N
  N52      1.0000 0.69294  0.82215  0.75372  Biso   1.000  N
  N53      1.0000 0.07215  0.44294  0.99628  Biso   1.000  N
  N54      1.0000 0.42785  0.55706  0.49628  Biso   1.000  N
  N55      1.0000 0.69294  0.17785  0.74628  Biso   1.000  N
  N56      1.0000 0.80706  0.82215  0.24628  Biso   1.000  N
  N57      1.0000 0.92785  0.94294  0.50372  Biso   1.000  N
  N58      1.0000 0.57215  0.05706  0.00372  Biso   1.000  N
  N59      1.0000 0.30706  0.67785  0.75372  Biso   1.000  N
  N60      1.0000 0.19294  0.32215  0.25372  Biso   1.000  N
  N61      1.0000 0.57215  0.94294  0.49628  Biso   1.000  N
  N62      1.0000 0.92785  0.05706  0.99628  Biso   1.000  N
  N63      1.0000 0.19294  0.67785  0.24628  Biso   1.000  N
  N64      1.0000 0.30706  0.32215  0.74628  Biso   1.000  N
  N65      1.0000 0.57215  0.55706  0.99628  Biso   1.000  N
  N66      1.0000 0.92785  0.44294  0.49628  Biso   1.000  N
  N67      1.0000 0.69294  0.32215  0.24628  Biso   1.000  N
  N68      1.0000 0.80706  0.67785  0.74628  Biso   1.000  N
  N69      1.0000 0.92785  0.55706  0.00372  Biso   1.000  N
  N70      1.0000 0.57215  0.44294  0.50372  Biso   1.000  N
  N71      1.0000 0.80706  0.32215  0.75372  Biso   1.000  N
  N72      1.0000 0.69294  0.67785  0.25372  Biso   1.000  N
  N73      1.0000 0.07215  0.05706  0.49628  Biso   1.000  N
  N74      1.0000 0.42785  0.94294  0.99628  Biso   1.000  N
  N75      1.0000 0.19294  0.82215  0.74628  Biso   1.000  N
  N76      1.0000 0.30706  0.17785  0.24628  Biso   1.000  N
  N77      1.0000 0.42785  0.05706  0.50372  Biso   1.000  N
  N78      1.0000 0.07215  0.94294  0.00372  Biso   1.000  N
  N79      1.0000 0.30706  0.82215  0.25372  Biso   1.000  N
  N80      1.0000 0.19294  0.17785  0.75372  Biso   1.000  N
  N81      1.0000 0.46848  0.39062  0.99447  Biso   1.000  N
  N82      1.0000 0.03152  0.60938  0.49447  Biso   1.000  N
  N83      1.0000 0.85938  0.21848  0.24447  Biso   1.000  N
  N84      1.0000 0.64062  0.78152  0.74447  Biso   1.000  N
  N85      1.0000 0.03152  0.39062  0.00553  Biso   1.000  N
  N86      1.0000 0.46848  0.60938  0.50553  Biso   1.000  N
  N87      1.0000 0.64062  0.21848  0.75553  Biso   1.000  N
  N88      1.0000 0.85938  0.78152  0.25553  Biso   1.000  N
  N89      1.0000 0.96848  0.89062  0.49447  Biso   1.000  N
  N90      1.0000 0.53152  0.10938  0.99447  Biso   1.000  N
  N91      1.0000 0.35938  0.71848  0.74447  Biso   1.000  N
  N92      1.0000 0.14062  0.28152  0.24447  Biso   1.000  N
  N93      1.0000 0.53152  0.89062  0.50553  Biso   1.000  N
  N94      1.0000 0.96848  0.10938  0.00553  Biso   1.000  N
  N95      1.0000 0.14062  0.71848  0.25553  Biso   1.000  N
  N96      1.0000 0.35938  0.28152  0.75553  Biso   1.000  N
  N97      1.0000 0.53152  0.60938  0.00553  Biso   1.000  N
  N98      1.0000 0.96848  0.39062  0.50553  Biso   1.000  N
  N99      1.0000 0.64062  0.28152  0.25553  Biso   1.000  N
  N100     1.0000 0.85938  0.71848  0.75553  Biso   1.000  N
  N101     1.0000 0.96848  0.60938  0.99447  Biso   1.000  N
  N102     1.0000 0.53152  0.39062  0.49447  Biso   1.000  N
  N103     1.0000 0.85938  0.28152  0.74447  Biso   1.000  N
  N104     1.0000 0.64062  0.71848  0.24447  Biso   1.000  N
  N105     1.0000 0.03152  0.10938  0.50553  Biso   1.000  N
  N106     1.0000 0.46848  0.89062  0.00553  Biso   1.000  N
  N107     1.0000 0.14062  0.78152  0.75553  Biso   1.000  N
  N108     1.0000 0.35938  0.21848  0.25553  Biso   1.000  N
  N109     1.0000 0.46848  0.10938  0.49447  Biso   1.000  N
  N110     1.0000 0.03152  0.89062  0.99447  Biso   1.000  N
  N111     1.0000 0.35938  0.78152  0.24447  Biso   1.000  N
  N112     1.0000 0.14062  0.21848  0.74447  Biso   1.000  N
  C1       1.0000 0.30712  0.51805  0.90110  Biso   1.000  C
  C2       1.0000 0.19288  0.48195  0.40110  Biso   1.000  C
  C3       1.0000 0.73195  0.05712  0.15110  Biso   1.000  C
  C4       1.0000 0.76805  0.94288  0.65110  Biso   1.000  C
  C5       1.0000 0.19288  0.51805  0.09890  Biso   1.000  C
  C6       1.0000 0.30712  0.48195  0.59890  Biso   1.000  C
  C7       1.0000 0.76805  0.05712  0.84890  Biso   1.000  C
  C8       1.0000 0.73195  0.94288  0.34890  Biso   1.000  C
  C9       1.0000 0.80712  0.01805  0.40110  Biso   1.000  C
  C10      1.0000 0.69288  0.98195  0.90110  Biso   1.000  C
  C11      1.0000 0.23195  0.55712  0.65110  Biso   1.000  C
  C12      1.0000 0.26805  0.44288  0.15110  Biso   1.000  C
  C13      1.0000 0.69288  0.01805  0.59890  Biso   1.000  C
  C14      1.0000 0.80712  0.98195  0.09890  Biso   1.000  C
  C15      1.0000 0.26805  0.55712  0.34890  Biso   1.000  C
  C16      1.0000 0.23195  0.44288  0.84890  Biso   1.000  C
  C17      1.0000 0.69288  0.48195  0.09890  Biso   1.000  C
  C18      1.0000 0.80712  0.51805  0.59890  Biso   1.000  C
  C19      1.0000 0.76805  0.44288  0.34890  Biso   1.000  C
  C20      1.0000 0.73195  0.55712  0.84890  Biso   1.000  C
  C21      1.0000 0.80712  0.48195  0.90110  Biso   1.000  C
  C22      1.0000 0.69288  0.51805  0.40110  Biso   1.000  C
  C23      1.0000 0.73195  0.44288  0.65110  Biso   1.000  C
  C24      1.0000 0.76805  0.55712  0.15110  Biso   1.000  C
  C25      1.0000 0.19288  0.98195  0.59890  Biso   1.000  C
  C26      1.0000 0.30712  0.01805  0.09890  Biso   1.000  C
  C27      1.0000 0.26805  0.94288  0.84890  Biso   1.000  C
  C28      1.0000 0.23195  0.05712  0.34890  Biso   1.000  C
  C29      1.0000 0.30712  0.98195  0.40110  Biso   1.000  C
  C30      1.0000 0.19288  0.01805  0.90110  Biso   1.000  C
  C31      1.0000 0.23195  0.94288  0.15110  Biso   1.000  C
  C32      1.0000 0.26805  0.05712  0.65110  Biso   1.000  C
  C33      1.0000 0.25890  0.56940  0.90160  Biso   1.000  C
  C34      1.0000 0.24110  0.43060  0.40160  Biso   1.000  C
  C35      1.0000 0.68060  0.00890  0.15160  Biso   1.000  C
  C36      1.0000 0.81940  0.99110  0.65160  Biso   1.000  C
  C37      1.0000 0.24110  0.56940  0.09840  Biso   1.000  C
  C38      1.0000 0.25890  0.43060  0.59840  Biso   1.000  C
  C39      1.0000 0.81940  0.00890  0.84840  Biso   1.000  C
  C40      1.0000 0.68060  0.99110  0.34840  Biso   1.000  C
  C41      1.0000 0.75890  0.06940  0.40160  Biso   1.000  C
  C42      1.0000 0.74110  0.93060  0.90160  Biso   1.000  C
  C43      1.0000 0.18060  0.50890  0.65160  Biso   1.000  C
  C44      1.0000 0.31940  0.49110  0.15160  Biso   1.000  C
  C45      1.0000 0.74110  0.06940  0.59840  Biso   1.000  C
  C46      1.0000 0.75890  0.93060  0.09840  Biso   1.000  C
  C47      1.0000 0.31940  0.50890  0.34840  Biso   1.000  C
  C48      1.0000 0.18060  0.49110  0.84840  Biso   1.000  C
  C49      1.0000 0.74110  0.43060  0.09840  Biso   1.000  C
  C50      1.0000 0.75890  0.56940  0.59840  Biso   1.000  C
  C51      1.0000 0.81940  0.49110  0.34840  Biso   1.000  C
  C52      1.0000 0.68060  0.50890  0.84840  Biso   1.000  C
  C53      1.0000 0.75890  0.43060  0.90160  Biso   1.000  C
  C54      1.0000 0.74110  0.56940  0.40160  Biso   1.000  C
  C55      1.0000 0.68060  0.49110  0.65160  Biso   1.000  C
  C56      1.0000 0.81940  0.50890  0.15160  Biso   1.000  C
  C57      1.0000 0.24110  0.93060  0.59840  Biso   1.000  C
  C58      1.0000 0.25890  0.06940  0.09840  Biso   1.000  C
  C59      1.0000 0.31940  0.99110  0.84840  Biso   1.000  C
  C60      1.0000 0.18060  0.00890  0.34840  Biso   1.000  C
  C61      1.0000 0.25890  0.93060  0.40160  Biso   1.000  C
  C62      1.0000 0.24110  0.06940  0.90160  Biso   1.000  C
  C63      1.0000 0.18060  0.99110  0.15160  Biso   1.000  C
  C64      1.0000 0.31940  0.00890  0.65160  Biso   1.000  C
  H1       1.0000 0.26970  0.61280  0.91960  Biso   1.000  H
  H2       1.0000 0.23030  0.38720  0.41960  Biso   1.000  H
  H3       1.0000 0.63720  0.01970  0.16960  Biso   1.000  H
  H4       1.0000 0.86280  0.98030  0.66960  Biso   1.000  H
  H5       1.0000 0.23030  0.61280  0.08040  Biso   1.000  H
  H6       1.0000 0.26970  0.38720  0.58040  Biso   1.000  H
  H7       1.0000 0.86280  0.01970  0.83040  Biso   1.000  H
  H8       1.0000 0.63720  0.98030  0.33040  Biso   1.000  H
  H9       1.0000 0.76970  0.11280  0.41960  Biso   1.000  H
  H10      1.0000 0.73030  0.88720  0.91960  Biso   1.000  H
  H11      1.0000 0.13720  0.51970  0.66960  Biso   1.000  H
  H12      1.0000 0.36280  0.48030  0.16960  Biso   1.000  H
  H13      1.0000 0.73030  0.11280  0.58040  Biso   1.000  H
  H14      1.0000 0.76970  0.88720  0.08040  Biso   1.000  H
  H15      1.0000 0.36280  0.51970  0.33040  Biso   1.000  H
  H16      1.0000 0.13720  0.48030  0.83040  Biso   1.000  H
  H17      1.0000 0.73030  0.38720  0.08040  Biso   1.000  H
  H18      1.0000 0.76970  0.61280  0.58040  Biso   1.000  H
  H19      1.0000 0.86280  0.48030  0.33040  Biso   1.000  H
  H20      1.0000 0.63720  0.51970  0.83040  Biso   1.000  H
  H21      1.0000 0.76970  0.38720  0.91960  Biso   1.000  H
  H22      1.0000 0.73030  0.61280  0.41960  Biso   1.000  H
  H23      1.0000 0.63720  0.48030  0.66960  Biso   1.000  H
  H24      1.0000 0.86280  0.51970  0.16960  Biso   1.000  H
  H25      1.0000 0.23030  0.88720  0.58040  Biso   1.000  H
  H26      1.0000 0.26970  0.11280  0.08040  Biso   1.000  H
  H27      1.0000 0.36280  0.98030  0.83040  Biso   1.000  H
  H28      1.0000 0.13720  0.01970  0.33040  Biso   1.000  H
  H29      1.0000 0.26970  0.88720  0.41960  Biso   1.000  H
  H30      1.0000 0.23030  0.11280  0.91960  Biso   1.000  H
  H31      1.0000 0.13720  0.98030  0.16960  Biso   1.000  H
  H32      1.0000 0.36280  0.01970  0.66960  Biso   1.000  H
  C65      1.0000 0.19460  0.55540  0.87500  Biso   1.000  C
  C66      1.0000 0.30540  0.44460  0.37500  Biso   1.000  C
  C67      1.0000 0.69460  0.94460  0.12500  Biso   1.000  C
  C68      1.0000 0.80540  0.05540  0.62500  Biso   1.000  C
  C69      1.0000 0.30540  0.55540  0.12500  Biso   1.000  C
  C70      1.0000 0.19460  0.44460  0.62500  Biso   1.000  C
  C71      1.0000 0.80540  0.94460  0.87500  Biso   1.000  C
  C72      1.0000 0.69460  0.05540  0.37500  Biso   1.000  C
  C73      1.0000 0.80540  0.44460  0.12500  Biso   1.000  C
  C74      1.0000 0.69460  0.55540  0.62500  Biso   1.000  C
  C75      1.0000 0.80540  0.55540  0.37500  Biso   1.000  C
  C76      1.0000 0.69460  0.44460  0.87500  Biso   1.000  C
  C77      1.0000 0.30540  0.94460  0.62500  Biso   1.000  C
  C78      1.0000 0.19460  0.05540  0.12500  Biso   1.000  C
  C79      1.0000 0.30540  0.05540  0.87500  Biso   1.000  C
  C80      1.0000 0.19460  0.94460  0.37500  Biso   1.000  C
  H33      1.0000 0.16100  0.58900  0.87500  Biso   1.000  H
  H34      1.0000 0.33900  0.41100  0.37500  Biso   1.000  H
  H35      1.0000 0.66100  0.91100  0.12500  Biso   1.000  H
  H36      1.0000 0.83900  0.08900  0.62500  Biso   1.000  H
  H37      1.0000 0.33900  0.58900  0.12500  Biso   1.000  H
  H38      1.0000 0.16100  0.41100  0.62500  Biso   1.000  H
  H39      1.0000 0.83900  0.91100  0.87500  Biso   1.000  H
  H40      1.0000 0.66100  0.08900  0.37500  Biso   1.000  H
  H41      1.0000 0.83900  0.41100  0.12500  Biso   1.000  H
  H42      1.0000 0.66100  0.58900  0.62500  Biso   1.000  H
  H43      1.0000 0.83900  0.58900  0.37500  Biso   1.000  H
  H44      1.0000 0.66100  0.41100  0.87500  Biso   1.000  H
  H45      1.0000 0.33900  0.91100  0.62500  Biso   1.000  H
  H46      1.0000 0.16100  0.08900  0.12500  Biso   1.000  H
  H47      1.0000 0.33900  0.08900  0.87500  Biso   1.000  H
  H48      1.0000 0.16100  0.91100  0.37500  Biso   1.000  H
  C81      1.0000 0.37850  0.53310  0.92980  Biso   1.000  C
  C82      1.0000 0.12150  0.46690  0.42980  Biso   1.000  C
  C83      1.0000 0.71690  0.12850  0.17980  Biso   1.000  C
  C84      1.0000 0.78310  0.87150  0.67980  Biso   1.000  C
  C85      1.0000 0.12150  0.53310  0.07020  Biso   1.000  C
  C86      1.0000 0.37850  0.46690  0.57020  Biso   1.000  C
  C87      1.0000 0.78310  0.12850  0.82020  Biso   1.000  C
  C88      1.0000 0.71690  0.87150  0.32020  Biso   1.000  C
  C89      1.0000 0.87850  0.03310  0.42980  Biso   1.000  C
  C90      1.0000 0.62150  0.96690  0.92980  Biso   1.000  C
  C91      1.0000 0.21690  0.62850  0.67980  Biso   1.000  C
  C92      1.0000 0.28310  0.37150  0.17980  Biso   1.000  C
  C93      1.0000 0.62150  0.03310  0.57020  Biso   1.000  C
  C94      1.0000 0.87850  0.96690  0.07020  Biso   1.000  C
  C95      1.0000 0.28310  0.62850  0.32020  Biso   1.000  C
  C96      1.0000 0.21690  0.37150  0.82020  Biso   1.000  C
  C97      1.0000 0.62150  0.46690  0.07020  Biso   1.000  C
  C98      1.0000 0.87850  0.53310  0.57020  Biso   1.000  C
  C99      1.0000 0.78310  0.37150  0.32020  Biso   1.000  C
  C100     1.0000 0.71690  0.62850  0.82020  Biso   1.000  C
  C101     1.0000 0.87850  0.46690  0.92980  Biso   1.000  C
  C102     1.0000 0.62150  0.53310  0.42980  Biso   1.000  C
  C103     1.0000 0.71690  0.37150  0.67980  Biso   1.000  C
  C104     1.0000 0.78310  0.62850  0.17980  Biso   1.000  C
  C105     1.0000 0.12150  0.96690  0.57020  Biso   1.000  C
  C106     1.0000 0.37850  0.03310  0.07020  Biso   1.000  C
  C107     1.0000 0.28310  0.87150  0.82020  Biso   1.000  C
  C108     1.0000 0.21690  0.12850  0.32020  Biso   1.000  C
  C109     1.0000 0.37850  0.96690  0.42980  Biso   1.000  C
  C110     1.0000 0.12150  0.03310  0.92980  Biso   1.000  C
  C111     1.0000 0.21690  0.87150  0.17980  Biso   1.000  C
  C112     1.0000 0.28310  0.12850  0.67980  Biso   1.000  C
  H49      1.0000 0.40090  0.56460  0.89610  Biso   1.000  H
  H50      1.0000 0.09910  0.43540  0.39610  Biso   1.000  H
  H51      1.0000 0.68540  0.15090  0.14610  Biso   1.000  H
  H52      1.0000 0.81460  0.84910  0.64610  Biso   1.000  H
  H53      1.0000 0.09910  0.56460  0.10390  Biso   1.000  H
  H54      1.0000 0.40090  0.43540  0.60390  Biso   1.000  H
  H55      1.0000 0.81460  0.15090  0.85390  Biso   1.000  H
  H56      1.0000 0.68540  0.84910  0.35390  Biso   1.000  H
  H57      1.0000 0.90090  0.06460  0.39610  Biso   1.000  H
  H58      1.0000 0.59910  0.93540  0.89610  Biso   1.000  H
  H59      1.0000 0.18540  0.65090  0.64610  Biso   1.000  H
  H60      1.0000 0.31460  0.34910  0.14610  Biso   1.000  H
  H61      1.0000 0.59910  0.06460  0.60390  Biso   1.000  H
  H62      1.0000 0.90090  0.93540  0.10390  Biso   1.000  H
  H63      1.0000 0.31460  0.65090  0.35390  Biso   1.000  H
  H64      1.0000 0.18540  0.34910  0.85390  Biso   1.000  H
  H65      1.0000 0.59910  0.43540  0.10390  Biso   1.000  H
  H66      1.0000 0.90090  0.56460  0.60390  Biso   1.000  H
  H67      1.0000 0.81460  0.34910  0.35390  Biso   1.000  H
  H68      1.0000 0.68540  0.65090  0.85390  Biso   1.000  H
  H69      1.0000 0.90090  0.43540  0.89610  Biso   1.000  H
  H70      1.0000 0.59910  0.56460  0.39610  Biso   1.000  H
  H71      1.0000 0.68540  0.34910  0.64610  Biso   1.000  H
  H72      1.0000 0.81460  0.65090  0.14610  Biso   1.000  H
  H73      1.0000 0.09910  0.93540  0.60390  Biso   1.000  H
  H74      1.0000 0.40090  0.06460  0.10390  Biso   1.000  H
  H75      1.0000 0.31460  0.84910  0.85390  Biso   1.000  H
  H76      1.0000 0.18540  0.15090  0.35390  Biso   1.000  H
  H77      1.0000 0.40090  0.93540  0.39610  Biso   1.000  H
  H78      1.0000 0.09910  0.06460  0.89610  Biso   1.000  H
  H79      1.0000 0.18540  0.84910  0.14610  Biso   1.000  H
  H80      1.0000 0.31460  0.15090  0.64610  Biso   1.000  H
  H81      1.0000 0.37460  0.55600  0.97720  Biso   1.000  H
  H82      1.0000 0.12540  0.44400  0.47720  Biso   1.000  H
  H83      1.0000 0.69400  0.12460  0.22720  Biso   1.000  H
  H84      1.0000 0.80600  0.87540  0.72720  Biso   1.000  H
  H85      1.0000 0.12540  0.55600  0.02280  Biso   1.000  H
  H86      1.0000 0.37460  0.44400  0.52280  Biso   1.000  H
  H87      1.0000 0.80600  0.12460  0.77280  Biso   1.000  H
  H88      1.0000 0.69400  0.87540  0.27280  Biso   1.000  H
  H89      1.0000 0.87460  0.05600  0.47720  Biso   1.000  H
  H90      1.0000 0.62540  0.94400  0.97720  Biso   1.000  H
  H91      1.0000 0.19400  0.62460  0.72720  Biso   1.000  H
  H92      1.0000 0.30600  0.37540  0.22720  Biso   1.000  H
  H93      1.0000 0.62540  0.05600  0.52280  Biso   1.000  H
  H94      1.0000 0.87460  0.94400  0.02280  Biso   1.000  H
  H95      1.0000 0.30600  0.62460  0.27280  Biso   1.000  H
  H96      1.0000 0.19400  0.37540  0.77280  Biso   1.000  H
  H97      1.0000 0.62540  0.44400  0.02280  Biso   1.000  H
  H98      1.0000 0.87460  0.55600  0.52280  Biso   1.000  H
  H99      1.0000 0.80600  0.37540  0.27280  Biso   1.000  H
  H100     1.0000 0.69400  0.62460  0.77280  Biso   1.000  H
  H101     1.0000 0.87460  0.44400  0.97720  Biso   1.000  H
  H102     1.0000 0.62540  0.55600  0.47720  Biso   1.000  H
  H103     1.0000 0.69400  0.37540  0.72720  Biso   1.000  H
  H104     1.0000 0.80600  0.62460  0.22720  Biso   1.000  H
  H105     1.0000 0.12540  0.94400  0.52280  Biso   1.000  H
  H106     1.0000 0.37460  0.05600  0.02280  Biso   1.000  H
  H107     1.0000 0.30600  0.87540  0.77280  Biso   1.000  H
  H108     1.0000 0.19400  0.12460  0.27280  Biso   1.000  H
  H109     1.0000 0.37460  0.94400  0.47720  Biso   1.000  H
  H110     1.0000 0.12540  0.05600  0.97720  Biso   1.000  H
  H111     1.0000 0.19400  0.87540  0.22720  Biso   1.000  H
  H112     1.0000 0.30600  0.12460  0.72720  Biso   1.000  H
  C113     1.0000 0.45740  0.44100  0.88770  Biso   1.000  C
  C114     1.0000 0.04260  0.55900  0.38770  Biso   1.000  C
  C115     1.0000 0.80900  0.20740  0.13770  Biso   1.000  C
  C116     1.0000 0.69100  0.79260  0.63770  Biso   1.000  C
  C117     1.0000 0.04260  0.44100  0.11230  Biso   1.000  C
  C118     1.0000 0.45740  0.55900  0.61230  Biso   1.000  C
  C119     1.0000 0.69100  0.20740  0.86230  Biso   1.000  C
  C120     1.0000 0.80900  0.79260  0.36230  Biso   1.000  C
  C121     1.0000 0.95740  0.94100  0.38770  Biso   1.000  C
  C122     1.0000 0.54260  0.05900  0.88770  Biso   1.000  C
  C123     1.0000 0.30900  0.70740  0.63770  Biso   1.000  C
  C124     1.0000 0.19100  0.29260  0.13770  Biso   1.000  C
  C125     1.0000 0.54260  0.94100  0.61230  Biso   1.000  C
  C126     1.0000 0.95740  0.05900  0.11230  Biso   1.000  C
  C127     1.0000 0.19100  0.70740  0.36230  Biso   1.000  C
  C128     1.0000 0.30900  0.29260  0.86230  Biso   1.000  C
  C129     1.0000 0.54260  0.55900  0.11230  Biso   1.000  C
  C130     1.0000 0.95740  0.44100  0.61230  Biso   1.000  C
  C131     1.0000 0.69100  0.29260  0.36230  Biso   1.000  C
  C132     1.0000 0.80900  0.70740  0.86230  Biso   1.000  C
  C133     1.0000 0.95740  0.55900  0.88770  Biso   1.000  C
  C134     1.0000 0.54260  0.44100  0.38770  Biso   1.000  C
  C135     1.0000 0.80900  0.29260  0.63770  Biso   1.000  C
  C136     1.0000 0.69100  0.70740  0.13770  Biso   1.000  C
  C137     1.0000 0.04260  0.05900  0.61230  Biso   1.000  C
  C138     1.0000 0.45740  0.94100  0.11230  Biso   1.000  C
  C139     1.0000 0.19100  0.79260  0.86230  Biso   1.000  C
  C140     1.0000 0.30900  0.20740  0.36230  Biso   1.000  C
  C141     1.0000 0.45740  0.05900  0.38770  Biso   1.000  C
  C142     1.0000 0.04260  0.94100  0.88770  Biso   1.000  C
  C143     1.0000 0.30900  0.79260  0.13770  Biso   1.000  C
  C144     1.0000 0.19100  0.20740  0.63770  Biso   1.000  C
  H113     1.0000 0.46150  0.45220  0.83800  Biso   1.000  H
  H114     1.0000 0.03850  0.54780  0.33800  Biso   1.000  H
  H115     1.0000 0.79780  0.21150  0.08800  Biso   1.000  H
  H116     1.0000 0.70220  0.78850  0.58800  Biso   1.000  H
  H117     1.0000 0.03850  0.45220  0.16200  Biso   1.000  H
  H118     1.0000 0.46150  0.54780  0.66200  Biso   1.000  H
  H119     1.0000 0.70220  0.21150  0.91200  Biso   1.000  H
  H120     1.0000 0.79780  0.78850  0.41200  Biso   1.000  H
  H121     1.0000 0.96150  0.95220  0.33800  Biso   1.000  H
  H122     1.0000 0.53850  0.04780  0.83800  Biso   1.000  H
  H123     1.0000 0.29780  0.71150  0.58800  Biso   1.000  H
  H124     1.0000 0.20220  0.28850  0.08800  Biso   1.000  H
  H125     1.0000 0.53850  0.95220  0.66200  Biso   1.000  H
  H126     1.0000 0.96150  0.04780  0.16200  Biso   1.000  H
  H127     1.0000 0.20220  0.71150  0.41200  Biso   1.000  H
  H128     1.0000 0.29780  0.28850  0.91200  Biso   1.000  H
  H129     1.0000 0.53850  0.54780  0.16200  Biso   1.000  H
  H130     1.0000 0.96150  0.45220  0.66200  Biso   1.000  H
  H131     1.0000 0.70220  0.28850  0.41200  Biso   1.000  H
  H132     1.0000 0.79780  0.71150  0.91200  Biso   1.000  H
  H133     1.0000 0.96150  0.54780  0.83800  Biso   1.000  H
  H134     1.0000 0.53850  0.45220  0.33800  Biso   1.000  H
  H135     1.0000 0.79780  0.28850  0.58800  Biso   1.000  H
  H136     1.0000 0.70220  0.71150  0.08800  Biso   1.000  H
  H137     1.0000 0.03850  0.04780  0.66200  Biso   1.000  H
  H138     1.0000 0.46150  0.95220  0.16200  Biso   1.000  H
  H139     1.0000 0.20220  0.78850  0.91200  Biso   1.000  H
  H140     1.0000 0.29780  0.21150  0.41200  Biso   1.000  H
  H141     1.0000 0.46150  0.04780  0.33800  Biso   1.000  H
  H142     1.0000 0.03850  0.95220  0.83800  Biso   1.000  H
  H143     1.0000 0.29780  0.78850  0.08800  Biso   1.000  H
  H144     1.0000 0.20220  0.21150  0.58800  Biso   1.000  H
  C145     1.0000 0.48720  0.38800  0.92400  Biso   1.000  C
  C146     1.0000 0.01280  0.61200  0.42400  Biso   1.000  C
  C147     1.0000 0.86200  0.23720  0.17400  Biso   1.000  C
  C148     1.0000 0.63800  0.76280  0.67400  Biso   1.000  C
  C149     1.0000 0.01280  0.38800  0.07600  Biso   1.000  C
  C150     1.0000 0.48720  0.61200  0.57600  Biso   1.000  C
  C151     1.0000 0.63800  0.23720  0.82600  Biso   1.000  C
  C152     1.0000 0.86200  0.76280  0.32600  Biso   1.000  C
  C153     1.0000 0.98720  0.88800  0.42400  Biso   1.000  C
  C154     1.0000 0.51280  0.11200  0.92400  Biso   1.000  C
  C155     1.0000 0.36200  0.73720  0.67400  Biso   1.000  C
  C156     1.0000 0.13800  0.26280  0.17400  Biso   1.000  C
  C157     1.0000 0.51280  0.88800  0.57600  Biso   1.000  C
  C158     1.0000 0.98720  0.11200  0.07600  Biso   1.000  C
  C159     1.0000 0.13800  0.73720  0.32600  Biso   1.000  C
  C160     1.0000 0.36200  0.26280  0.82600  Biso   1.000  C
  C161     1.0000 0.51280  0.61200  0.07600  Biso   1.000  C
  C162     1.0000 0.98720  0.38800  0.57600  Biso   1.000  C
  C163     1.0000 0.63800  0.26280  0.32600  Biso   1.000  C
  C164     1.0000 0.86200  0.73720  0.82600  Biso   1.000  C
  C165     1.0000 0.98720  0.61200  0.92400  Biso   1.000  C
  C166     1.0000 0.51280  0.38800  0.42400  Biso   1.000  C
  C167     1.0000 0.86200  0.26280  0.67400  Biso   1.000  C
  C168     1.0000 0.63800  0.73720  0.17400  Biso   1.000  C
  C169     1.0000 0.01280  0.11200  0.57600  Biso   1.000  C
  C170     1.0000 0.48720  0.88800  0.07600  Biso   1.000  C
  C171     1.0000 0.13800  0.76280  0.82600  Biso   1.000  C
  C172     1.0000 0.36200  0.23720  0.32600  Biso   1.000  C
  C173     1.0000 0.48720  0.11200  0.42400  Biso   1.000  C
  C174     1.0000 0.01280  0.88800  0.92400  Biso   1.000  C
  C175     1.0000 0.36200  0.76280  0.17400  Biso   1.000  C
  C176     1.0000 0.13800  0.23720  0.67400  Biso   1.000  C
  H145     1.0000 0.51600  0.35520  0.90320  Biso   1.000  H
  H146     1.0000 0.98400  0.64480  0.40320  Biso   1.000  H
  H147     1.0000 0.89480  0.26600  0.15320  Biso   1.000  H
  H148     1.0000 0.60520  0.73400  0.65320  Biso   1.000  H
  H149     1.0000 0.98400  0.35520  0.09680  Biso   1.000  H
  H150     1.0000 0.51600  0.64480  0.59680  Biso   1.000  H
  H151     1.0000 0.60520  0.26600  0.84680  Biso   1.000  H
  H152     1.0000 0.89480  0.73400  0.34680  Biso   1.000  H
  H153     1.0000 0.01600  0.85520  0.40320  Biso   1.000  H
  H154     1.0000 0.48400  0.14480  0.90320  Biso   1.000  H
  H155     1.0000 0.39480  0.76600  0.65320  Biso   1.000  H
  H156     1.0000 0.10520  0.23400  0.15320  Biso   1.000  H
  H157     1.0000 0.48400  0.85520  0.59680  Biso   1.000  H
  H158     1.0000 0.01600  0.14480  0.09680  Biso   1.000  H
  H159     1.0000 0.10520  0.76600  0.34680  Biso   1.000  H
  H160     1.0000 0.39480  0.23400  0.84680  Biso   1.000  H
  H161     1.0000 0.48400  0.64480  0.09680  Biso   1.000  H
  H162     1.0000 0.01600  0.35520  0.59680  Biso   1.000  H
  H163     1.0000 0.60520  0.23400  0.34680  Biso   1.000  H
  H164     1.0000 0.89480  0.76600  0.84680  Biso   1.000  H
  H165     1.0000 0.01600  0.64480  0.90320  Biso   1.000  H
  H166     1.0000 0.48400  0.35520  0.40320  Biso   1.000  H
  H167     1.0000 0.89480  0.23400  0.65320  Biso   1.000  H
  H168     1.0000 0.60520  0.76600  0.15320  Biso   1.000  H
  H169     1.0000 0.98400  0.14480  0.59680  Biso   1.000  H
  H170     1.0000 0.51600  0.85520  0.09680  Biso   1.000  H
  H171     1.0000 0.10520  0.73400  0.84680  Biso   1.000  H
  H172     1.0000 0.39480  0.26600  0.34680  Biso   1.000  H
  H173     1.0000 0.51600  0.14480  0.40320  Biso   1.000  H
  H174     1.0000 0.98400  0.85520  0.90320  Biso   1.000  H
  H175     1.0000 0.39480  0.73400  0.15320  Biso   1.000  H
  H176     1.0000 0.10520  0.26600  0.65320  Biso   1.000  H
