data_image0
_cell_length_a       7.6331
_cell_length_b       9.9871
_cell_length_c       14.8977
_cell_angle_alpha    104.747
_cell_angle_beta     94.761
_cell_angle_gamma    106.901

_symmetry_space_group_name_H-M    "P 1"
_symmetry_int_tables_number       1

loop_
  _symmetry_equiv_pos_as_xyz
  'x, y, z'

loop_
  _atom_site_label
  _atom_site_occupancy
  _atom_site_fract_x
  _atom_site_fract_y
  _atom_site_fract_z
  _atom_site_thermal_displace_type
  _atom_site_B_iso_or_equiv
  _atom_site_type_symbol
  Cu1      1.0000 0.20333  0.06979  0.45638  Biso   1.000  Cu
  Cu2      1.0000 0.79667  0.93021  0.54362  Biso   1.000  Cu
  Br1      1.0000 0.18528  0.02099  0.60575  Biso   1.000  Br
  Br2      1.0000 0.81472  0.97901  0.39425  Biso   1.000  Br
  N1       1.0000 0.27760  0.47210  0.42520  Biso   1.000  N
  N2       1.0000 0.72240  0.52790  0.57480  Biso   1.000  N
  N3       1.0000 0.27370  0.33500  0.40030  Biso   1.000  N
  N4       1.0000 0.72630  0.66500  0.59970  Biso   1.000  N
  N5       1.0000 0.23810  0.28330  0.47240  Biso   1.000  N
  N6       1.0000 0.76190  0.71670  0.52760  Biso   1.000  N
  C1       1.0000 0.21950  0.39460  0.54430  Biso   1.000  C
  C2       1.0000 0.78050  0.60540  0.45570  Biso   1.000  C
  C3       1.0000 0.17980  0.39630  0.63500  Biso   1.000  C
  C4       1.0000 0.82020  0.60370  0.36500  Biso   1.000  C
  H1       1.0000 0.16380  0.31520  0.65710  Biso   1.000  H
  H2       1.0000 0.83620  0.68480  0.34290  Biso   1.000  H
  C5       1.0000 0.16620  0.52640  0.68910  Biso   1.000  C
  C6       1.0000 0.83380  0.47360  0.31090  Biso   1.000  C
  H3       1.0000 0.14000  0.53290  0.74960  Biso   1.000  H
  H4       1.0000 0.86000  0.46710  0.25040  Biso   1.000  H
  C7       1.0000 0.19060  0.64940  0.65600  Biso   1.000  C
  C8       1.0000 0.80940  0.35060  0.34400  Biso   1.000  C
  H5       1.0000 0.18050  0.73430  0.69570  Biso   1.000  H
  H6       1.0000 0.81950  0.26570  0.30430  Biso   1.000  H
  C9       1.0000 0.22840  0.64930  0.56780  Biso   1.000  C
  C10      1.0000 0.77160  0.35070  0.43220  Biso   1.000  C
  H7       1.0000 0.24260  0.73020  0.54560  Biso   1.000  H
  H8       1.0000 0.75740  0.26980  0.45440  Biso   1.000  H
  C11      1.0000 0.24400  0.51770  0.51350  Biso   1.000  C
  C12      1.0000 0.75600  0.48230  0.48650  Biso   1.000  C
  O1       1.0000 0.30960  0.56000  0.36600  Biso   1.000  O
  O2       1.0000 0.69040  0.44000  0.63400  Biso   1.000  O
  C13      1.0000 0.32870  0.47880  0.27300  Biso   1.000  C
  C14      1.0000 0.67130  0.52120  0.72700  Biso   1.000  C
  H9       1.0000 0.21280  0.40180  0.24230  Biso   1.000  H
  H10      1.0000 0.78720  0.59820  0.75770  Biso   1.000  H
  H11      1.0000 0.42510  0.43460  0.27840  Biso   1.000  H
  H12      1.0000 0.57490  0.56540  0.72160  Biso   1.000  H
  C15      1.0000 0.37760  0.58310  0.21850  Biso   1.000  C
  C16      1.0000 0.62240  0.41690  0.78150  Biso   1.000  C
  H13      1.0000 0.49900  0.64670  0.23180  Biso   1.000  H
  H14      1.0000 0.50100  0.35330  0.76820  Biso   1.000  H
  C17      1.0000 0.26010  0.59350  0.15100  Biso   1.000  C
  C18      1.0000 0.73990  0.40650  0.84900  Biso   1.000  C
  H15      1.0000 0.13760  0.53160  0.13580  Biso   1.000  H
  H16      1.0000 0.86240  0.46840  0.86420  Biso   1.000  H
  H17      1.0000 0.30090  0.66260  0.11910  Biso   1.000  H
  H18      1.0000 0.69910  0.33740  0.88090  Biso   1.000  H
  Cu3      1.0000 0.40968  0.45665  0.08416  Biso   1.000  Cu
  Cu4      1.0000 0.59032  0.54335  0.91584  Biso   1.000  Cu
  Br3      1.0000 0.25591  0.37424  0.91960  Biso   1.000  Br
  Br4      1.0000 0.74409  0.62576  0.08040  Biso   1.000  Br
  N7       1.0000 0.44700  0.27010  0.10600  Biso   1.000  N
  N8       1.0000 0.55300  0.72990  0.89400  Biso   1.000  N
  N9       1.0000 0.30790  0.18430  0.13310  Biso   1.000  N
  N10      1.0000 0.69210  0.81570  0.86690  Biso   1.000  N
  N11      1.0000 0.36030  0.07340  0.14560  Biso   1.000  N
  N12      1.0000 0.63970  0.92660  0.85440  Biso   1.000  N
  C19      1.0000 0.53310  0.08050  0.12430  Biso   1.000  C
  C20      1.0000 0.46690  0.91950  0.87570  Biso   1.000  C
  C21      1.0000 0.64270  0.99100  0.12370  Biso   1.000  C
  C22      1.0000 0.35730  0.00900  0.87630  Biso   1.000  C
  H19      1.0000 0.59990  0.89550  0.14250  Biso   1.000  H
  H20      1.0000 0.40010  0.10450  0.85750  Biso   1.000  H
  C23      1.0000 0.80930  0.03720  0.09410  Biso   1.000  C
  C24      1.0000 0.19070  0.96280  0.90590  Biso   1.000  C
  H21      1.0000 0.88800  0.98110  0.09180  Biso   1.000  H
  H22      1.0000 0.11200  0.01890  0.90820  Biso   1.000  H
  C25      1.0000 0.86560  0.16560  0.06740  Biso   1.000  C
  C26      1.0000 0.13440  0.83440  0.93260  Biso   1.000  C
  H23      1.0000 0.98000  0.19180  0.04780  Biso   1.000  H
  H24      1.0000 0.02000  0.80820  0.95220  Biso   1.000  H
  C27      1.0000 0.75740  0.25410  0.06910  Biso   1.000  C
  C28      1.0000 0.24260  0.74590  0.93090  Biso   1.000  C
  H25      1.0000 0.79630  0.33970  0.05160  Biso   1.000  H
  H26      1.0000 0.20370  0.66030  0.94840  Biso   1.000  H
  C29      1.0000 0.58580  0.20990  0.09840  Biso   1.000  C
  C30      1.0000 0.41420  0.79010  0.90160  Biso   1.000  C
  O3       1.0000 0.23360  0.95430  0.16150  Biso   1.000  O
  O4       1.0000 0.76640  0.04570  0.83850  Biso   1.000  O
  C31      1.0000 0.16530  0.99470  0.25110  Biso   1.000  C
  C32      1.0000 0.83470  0.00530  0.74890  Biso   1.000  C
  H27      1.0000 0.04890  0.92100  0.24980  Biso   1.000  H
  H28      1.0000 0.95110  0.07900  0.75020  Biso   1.000  H
  H29      1.0000 0.14280  0.08750  0.25920  Biso   1.000  H
  H30      1.0000 0.85720  0.91250  0.74080  Biso   1.000  H
  C33      1.0000 0.30590  0.00690  0.33130  Biso   1.000  C
  C34      1.0000 0.69410  0.99310  0.66870  Biso   1.000  C
  H31      1.0000 0.41050  0.09000  0.35100  Biso   1.000  H
  H32      1.0000 0.58950  0.91000  0.64900  Biso   1.000  H
  C35      1.0000 0.29000  0.90370  0.37730  Biso   1.000  C
  C36      1.0000 0.71000  0.09630  0.62270  Biso   1.000  C
  H33      1.0000 0.18690  0.81940  0.35930  Biso   1.000  H
  H34      1.0000 0.81310  0.18060  0.64070  Biso   1.000  H
  H35      1.0000 0.38220  0.91740  0.42690  Biso   1.000  H
  H36      1.0000 0.61780  0.08260  0.57310  Biso   1.000  H
