data_image0
_cell_length_a       11.2483
_cell_length_b       16.7076
_cell_length_c       7.2948
_cell_angle_alpha    90
_cell_angle_beta     118.612
_cell_angle_gamma    90

_symmetry_space_group_name_H-M    "P 1"
_symmetry_int_tables_number       1

loop_
  _symmetry_equiv_pos_as_xyz
  'x, y, z'

loop_
  _atom_site_label
  _atom_site_occupancy
  _atom_site_fract_x
  _atom_site_fract_y
  _atom_site_fract_z
  _atom_site_thermal_displace_type
  _atom_site_B_iso_or_equiv
  _atom_site_type_symbol
  Cu1      1.0000 0.22318  0.15226  0.66095  Biso   1.000  Cu
  Cu2      1.0000 0.22318  0.84774  0.16095  Biso   1.000  Cu
  Cu3      1.0000 0.72318  0.65226  0.66095  Biso   1.000  Cu
  Cu4      1.0000 0.72318  0.34774  0.16095  Biso   1.000  Cu
  Cu5      1.0000 0.12543  0.98486  0.82957  Biso   1.000  Cu
  Cu6      1.0000 0.12543  0.01514  0.32957  Biso   1.000  Cu
  Cu7      1.0000 0.62543  0.48486  0.82957  Biso   1.000  Cu
  Cu8      1.0000 0.62543  0.51514  0.32957  Biso   1.000  Cu
  Cl1      1.0000 0.29133  0.02323  0.74750  Biso   1.000  Cl
  Cl2      1.0000 0.29133  0.97677  0.24750  Biso   1.000  Cl
  Cl3      1.0000 0.79133  0.52323  0.74750  Biso   1.000  Cl
  Cl4      1.0000 0.79133  0.47677  0.24750  Biso   1.000  Cl
  Cl5      1.0000 0.08299  0.15002  0.31330  Biso   1.000  Cl
  Cl6      1.0000 0.08299  0.84998  0.81330  Biso   1.000  Cl
  Cl7      1.0000 0.58299  0.65002  0.31330  Biso   1.000  Cl
  Cl8      1.0000 0.58299  0.34998  0.81330  Biso   1.000  Cl
  N1       1.0000 0.40290  0.31860  0.25460  Biso   1.000  N
  N2       1.0000 0.40290  0.68140  0.75460  Biso   1.000  N
  N3       1.0000 0.90290  0.81860  0.25460  Biso   1.000  N
  N4       1.0000 0.90290  0.18140  0.75460  Biso   1.000  N
  C1       1.0000 0.30590  0.36650  0.24540  Biso   1.000  C
  C2       1.0000 0.30590  0.63350  0.74540  Biso   1.000  C
  C3       1.0000 0.80590  0.86650  0.24540  Biso   1.000  C
  C4       1.0000 0.80590  0.13350  0.74540  Biso   1.000  C
  C5       1.0000 0.17210  0.35620  0.21390  Biso   1.000  C
  C6       1.0000 0.17210  0.64380  0.71390  Biso   1.000  C
  C7       1.0000 0.67210  0.85620  0.21390  Biso   1.000  C
  C8       1.0000 0.67210  0.14380  0.71390  Biso   1.000  C
  H1       1.0000 0.13430  0.30560  0.20170  Biso   1.000  H
  H2       1.0000 0.13430  0.69440  0.70170  Biso   1.000  H
  H3       1.0000 0.63430  0.80560  0.20170  Biso   1.000  H
  H4       1.0000 0.63430  0.19440  0.70170  Biso   1.000  H
  C9       1.0000 0.10140  0.42450  0.20230  Biso   1.000  C
  C10      1.0000 0.10140  0.57550  0.70230  Biso   1.000  C
  C11      1.0000 0.60140  0.92450  0.20230  Biso   1.000  C
  C12      1.0000 0.60140  0.07550  0.70230  Biso   1.000  C
  H5       1.0000 0.01320  0.42000  0.18050  Biso   1.000  H
  H6       1.0000 0.01320  0.58000  0.68050  Biso   1.000  H
  H7       1.0000 0.51320  0.92000  0.18050  Biso   1.000  H
  H8       1.0000 0.51320  0.08000  0.68050  Biso   1.000  H
  C13      1.0000 0.15800  0.50150  0.22230  Biso   1.000  C
  C14      1.0000 0.15800  0.49850  0.72230  Biso   1.000  C
  C15      1.0000 0.65800  0.00150  0.22230  Biso   1.000  C
  C16      1.0000 0.65800  0.99850  0.72230  Biso   1.000  C
  H9       1.0000 0.10660  0.54620  0.21510  Biso   1.000  H
  H10      1.0000 0.10660  0.45380  0.71510  Biso   1.000  H
  H11      1.0000 0.60660  0.04620  0.21510  Biso   1.000  H
  H12      1.0000 0.60660  0.95380  0.71510  Biso   1.000  H
  C17      1.0000 0.28750  0.51200  0.25230  Biso   1.000  C
  C18      1.0000 0.28750  0.48800  0.75230  Biso   1.000  C
  C19      1.0000 0.78750  0.01200  0.25230  Biso   1.000  C
  C20      1.0000 0.78750  0.98800  0.75230  Biso   1.000  C
  H13      1.0000 0.32530  0.56260  0.26670  Biso   1.000  H
  H14      1.0000 0.32530  0.43740  0.76670  Biso   1.000  H
  H15      1.0000 0.82530  0.06260  0.26670  Biso   1.000  H
  H16      1.0000 0.82530  0.93740  0.76670  Biso   1.000  H
  C21      1.0000 0.35890  0.44300  0.25980  Biso   1.000  C
  C22      1.0000 0.35890  0.55700  0.75980  Biso   1.000  C
  C23      1.0000 0.85890  0.94300  0.25980  Biso   1.000  C
  C24      1.0000 0.85890  0.05700  0.75980  Biso   1.000  C
  N5       1.0000 0.48690  0.43370  0.28260  Biso   1.000  N
  N6       1.0000 0.48690  0.56630  0.78260  Biso   1.000  N
  N7       1.0000 0.98690  0.93370  0.28260  Biso   1.000  N
  N8       1.0000 0.98690  0.06630  0.78260  Biso   1.000  N
  N9       1.0000 0.51140  0.35790  0.27540  Biso   1.000  N
  N10      1.0000 0.51140  0.64210  0.77540  Biso   1.000  N
  N11      1.0000 0.01140  0.85790  0.27540  Biso   1.000  N
  N12      1.0000 0.01140  0.14210  0.77540  Biso   1.000  N
  O1       1.0000 0.42050  0.23700  0.29020  Biso   1.000  O
  O2       1.0000 0.42050  0.76300  0.79020  Biso   1.000  O
  O3       1.0000 0.92050  0.73700  0.29020  Biso   1.000  O
  O4       1.0000 0.92050  0.26300  0.79020  Biso   1.000  O
  C25      1.0000 0.32850  0.19720  0.09550  Biso   1.000  C
  C26      1.0000 0.32850  0.80280  0.59550  Biso   1.000  C
  C27      1.0000 0.82850  0.69720  0.09550  Biso   1.000  C
  C28      1.0000 0.82850  0.30280  0.59550  Biso   1.000  C
  H17      1.0000 0.23610  0.20880  0.06390  Biso   1.000  H
  H18      1.0000 0.23610  0.79120  0.56390  Biso   1.000  H
  H19      1.0000 0.73610  0.70880  0.06390  Biso   1.000  H
  H20      1.0000 0.73610  0.29120  0.56390  Biso   1.000  H
  H21      1.0000 0.34150  0.13980  0.11540  Biso   1.000  H
  H22      1.0000 0.34150  0.86020  0.61540  Biso   1.000  H
  H23      1.0000 0.84150  0.63980  0.11540  Biso   1.000  H
  H24      1.0000 0.84150  0.36020  0.61540  Biso   1.000  H
  C29      1.0000 0.34630  0.22110  0.91010  Biso   1.000  C
  C30      1.0000 0.34630  0.77890  0.41010  Biso   1.000  C
  C31      1.0000 0.84630  0.72110  0.91010  Biso   1.000  C
  C32      1.0000 0.84630  0.27890  0.41010  Biso   1.000  C
  H25      1.0000 0.42090  0.20130  0.90180  Biso   1.000  H
  H26      1.0000 0.42090  0.79870  0.40180  Biso   1.000  H
  H27      1.0000 0.92090  0.70130  0.90180  Biso   1.000  H
  H28      1.0000 0.92090  0.29870  0.40180  Biso   1.000  H
  C33      1.0000 0.26360  0.26760  0.76290  Biso   1.000  C
  C34      1.0000 0.26360  0.73240  0.26290  Biso   1.000  C
  C35      1.0000 0.76360  0.76760  0.76290  Biso   1.000  C
  C36      1.0000 0.76360  0.23240  0.26290  Biso   1.000  C
  H29      1.0000 0.18820  0.28820  0.76740  Biso   1.000  H
  H30      1.0000 0.18820  0.71180  0.26740  Biso   1.000  H
  H31      1.0000 0.68820  0.78820  0.76740  Biso   1.000  H
  H32      1.0000 0.68820  0.21180  0.26740  Biso   1.000  H
  H33      1.0000 0.27920  0.28040  0.65220  Biso   1.000  H
  H34      1.0000 0.27920  0.71960  0.15220  Biso   1.000  H
  H35      1.0000 0.77920  0.78040  0.65220  Biso   1.000  H
  H36      1.0000 0.77920  0.21960  0.15220  Biso   1.000  H
