data_image0
_cell_length_a       7.969
_cell_length_b       11.559
_cell_length_c       13.736
_cell_angle_alpha    90
_cell_angle_beta     100.48
_cell_angle_gamma    90

_symmetry_space_group_name_H-M    "P 1"
_symmetry_int_tables_number       1

loop_
  _symmetry_equiv_pos_as_xyz
  'x, y, z'

loop_
  _atom_site_label
  _atom_site_occupancy
  _atom_site_fract_x
  _atom_site_fract_y
  _atom_site_fract_z
  _atom_site_thermal_displace_type
  _atom_site_B_iso_or_equiv
  _atom_site_type_symbol
  Cu1      1.0000 0.66260  0.92021  0.56639  Biso   1.000  Cu
  Cu2      1.0000 0.83740  0.42021  0.93361  Biso   1.000  Cu
  Cu3      1.0000 0.33740  0.07979  0.43361  Biso   1.000  Cu
  Cu4      1.0000 0.16260  0.57979  0.06639  Biso   1.000  Cu
  Cu5      1.0000 0.08010  0.81688  0.35448  Biso   1.000  Cu
  Cu6      1.0000 0.41990  0.31688  0.14552  Biso   1.000  Cu
  Cu7      1.0000 0.91990  0.18312  0.64552  Biso   1.000  Cu
  Cu8      1.0000 0.58010  0.68312  0.85448  Biso   1.000  Cu
  N1       1.0000 0.82370  0.88440  0.48160  Biso   1.000  N
  N2       1.0000 0.67630  0.38440  0.01840  Biso   1.000  N
  N3       1.0000 0.17630  0.11560  0.51840  Biso   1.000  N
  N4       1.0000 0.32370  0.61560  0.98160  Biso   1.000  N
  C1       1.0000 0.92170  0.86120  0.43410  Biso   1.000  C
  C2       1.0000 0.57830  0.36120  0.06590  Biso   1.000  C
  C3       1.0000 0.07830  0.13880  0.56590  Biso   1.000  C
  C4       1.0000 0.42170  0.63880  0.93410  Biso   1.000  C
  C5       1.0000 0.11140  0.67610  0.17250  Biso   1.000  C
  C6       1.0000 0.38860  0.17610  0.32750  Biso   1.000  C
  C7       1.0000 0.88860  0.32390  0.82750  Biso   1.000  C
  C8       1.0000 0.61140  0.82390  0.67250  Biso   1.000  C
  N5       1.0000 0.09400  0.73200  0.23860  Biso   1.000  N
  N6       1.0000 0.40600  0.23200  0.26140  Biso   1.000  N
  N7       1.0000 0.90600  0.26800  0.76140  Biso   1.000  N
  N8       1.0000 0.59400  0.76800  0.73860  Biso   1.000  N
  S1       1.0000 0.13680  0.38000  0.07450  Biso   1.000  S
  S2       1.0000 0.36320  0.88000  0.42550  Biso   1.000  S
  S3       1.0000 0.86320  0.62000  0.92550  Biso   1.000  S
  S4       1.0000 0.63680  0.12000  0.57450  Biso   1.000  S
  N9       1.0000 0.01950  0.41820  0.23840  Biso   1.000  N
  N10      1.0000 0.48050  0.91820  0.26160  Biso   1.000  N
  N11      1.0000 0.98050  0.58180  0.76160  Biso   1.000  N
  N12      1.0000 0.51950  0.08180  0.73840  Biso   1.000  N
  N13      1.0000 0.97760  0.23520  0.17930  Biso   1.000  N
  N14      1.0000 0.52240  0.73520  0.32070  Biso   1.000  N
  N15      1.0000 0.02240  0.76480  0.82070  Biso   1.000  N
  N16      1.0000 0.47760  0.26480  0.67930  Biso   1.000  N
  C9       1.0000 0.03670  0.33990  0.17200  Biso   1.000  C
  C10      1.0000 0.46330  0.83990  0.32800  Biso   1.000  C
  C11      1.0000 0.96330  0.66010  0.82800  Biso   1.000  C
  C12      1.0000 0.53670  0.16010  0.67200  Biso   1.000  C
  C13      1.0000 0.92800  0.40200  0.32280  Biso   1.000  C
  C14      1.0000 0.57200  0.90200  0.17720  Biso   1.000  C
  C15      1.0000 0.07200  0.59800  0.67720  Biso   1.000  C
  C16      1.0000 0.42800  0.09800  0.82280  Biso   1.000  C
  C17      1.0000 0.01500  0.40300  0.40600  Biso   1.000  C
  C18      1.0000 0.48500  0.90300  0.09400  Biso   1.000  C
  C19      1.0000 0.98500  0.59700  0.59400  Biso   1.000  C
  C20      1.0000 0.51500  0.09700  0.90600  Biso   1.000  C
  C21      1.0000 0.97500  0.14520  0.10670  Biso   1.000  C
  C22      1.0000 0.52500  0.64520  0.39330  Biso   1.000  C
  C23      1.0000 0.02500  0.85480  0.89330  Biso   1.000  C
  C24      1.0000 0.47500  0.35480  0.60670  Biso   1.000  C
  C25      1.0000 0.03200  0.03440  0.14680  Biso   1.000  C
  C26      1.0000 0.46800  0.53440  0.35320  Biso   1.000  C
  C27      1.0000 0.96800  0.96560  0.85320  Biso   1.000  C
  C28      1.0000 0.53200  0.46560  0.64680  Biso   1.000  C
  H1       1.0000 0.04800  0.49800  0.23000  Biso   1.000  H
  H2       1.0000 0.45200  0.99800  0.27000  Biso   1.000  H
  H3       1.0000 0.95200  0.50200  0.77000  Biso   1.000  H
  H4       1.0000 0.54800  0.00200  0.73000  Biso   1.000  H
  H5       1.0000 0.91800  0.21800  0.22400  Biso   1.000  H
  H6       1.0000 0.58200  0.71800  0.27600  Biso   1.000  H
  H7       1.0000 0.08200  0.78200  0.77600  Biso   1.000  H
  H8       1.0000 0.41800  0.28200  0.72400  Biso   1.000  H
  H9       1.0000 0.84510  0.46150  0.31960  Biso   1.000  H
  H10      1.0000 0.65490  0.96150  0.18040  Biso   1.000  H
  H11      1.0000 0.15490  0.53850  0.68040  Biso   1.000  H
  H12      1.0000 0.34510  0.03850  0.81960  Biso   1.000  H
  H13      1.0000 0.87180  0.32880  0.31430  Biso   1.000  H
  H14      1.0000 0.62820  0.82880  0.18570  Biso   1.000  H
  H15      1.0000 0.12820  0.67120  0.68570  Biso   1.000  H
  H16      1.0000 0.37180  0.17120  0.81430  Biso   1.000  H
  H17      1.0000 0.94390  0.39250  0.45330  Biso   1.000  H
  H18      1.0000 0.55610  0.89250  0.04670  Biso   1.000  H
  H19      1.0000 0.05610  0.60750  0.54670  Biso   1.000  H
  H20      1.0000 0.44390  0.10750  0.95330  Biso   1.000  H
  H21      1.0000 0.09710  0.34320  0.41130  Biso   1.000  H
  H22      1.0000 0.40290  0.84320  0.08870  Biso   1.000  H
  H23      1.0000 0.90290  0.65680  0.58870  Biso   1.000  H
  H24      1.0000 0.59710  0.15680  0.91130  Biso   1.000  H
  H25      1.0000 0.07130  0.47590  0.41620  Biso   1.000  H
  H26      1.0000 0.42870  0.97590  0.08380  Biso   1.000  H
  H27      1.0000 0.92870  0.52410  0.58380  Biso   1.000  H
  H28      1.0000 0.57130  0.02410  0.91620  Biso   1.000  H
  H29      1.0000 0.86090  0.13710  0.07200  Biso   1.000  H
  H30      1.0000 0.63910  0.63710  0.42800  Biso   1.000  H
  H31      1.0000 0.13910  0.86290  0.92800  Biso   1.000  H
  H32      1.0000 0.36090  0.36290  0.57200  Biso   1.000  H
  H33      1.0000 0.04640  0.16800  0.06190  Biso   1.000  H
  H34      1.0000 0.45360  0.66800  0.43810  Biso   1.000  H
  H35      1.0000 0.95360  0.83200  0.93810  Biso   1.000  H
  H36      1.0000 0.54640  0.33200  0.56190  Biso   1.000  H
  H37      1.0000 0.96050  0.00940  0.19110  Biso   1.000  H
  H38      1.0000 0.53950  0.50940  0.30890  Biso   1.000  H
  H39      1.0000 0.03950  0.99060  0.80890  Biso   1.000  H
  H40      1.0000 0.46050  0.49060  0.69110  Biso   1.000  H
  H41      1.0000 0.02630  0.98000  0.09450  Biso   1.000  H
  H42      1.0000 0.47370  0.48000  0.40550  Biso   1.000  H
  H43      1.0000 0.97370  0.02000  0.90550  Biso   1.000  H
  H44      1.0000 0.52630  0.52000  0.59450  Biso   1.000  H
  H45      1.0000 0.14610  0.04050  0.18130  Biso   1.000  H
  H46      1.0000 0.35390  0.54050  0.31870  Biso   1.000  H
  H47      1.0000 0.85390  0.95950  0.81870  Biso   1.000  H
  H48      1.0000 0.64610  0.45950  0.68130  Biso   1.000  H
  O1       1.0000 0.80510  0.12730  0.33240  Biso   1.000  O
  O2       1.0000 0.69490  0.62730  0.16760  Biso   1.000  O
  O3       1.0000 0.19490  0.87270  0.66760  Biso   1.000  O
  O4       1.0000 0.30510  0.37270  0.83240  Biso   1.000  O
