data_image0
_cell_length_a       3.994
_cell_length_b       13.886
_cell_length_c       7.556
_cell_angle_alpha    90
_cell_angle_beta     97.07
_cell_angle_gamma    90

_symmetry_space_group_name_H-M    "P 1"
_symmetry_int_tables_number       1

loop_
  _symmetry_equiv_pos_as_xyz
  'x, y, z'

loop_
  _atom_site_label
  _atom_site_occupancy
  _atom_site_fract_x
  _atom_site_fract_y
  _atom_site_fract_z
  _atom_site_thermal_displace_type
  _atom_site_B_iso_or_equiv
  _atom_site_type_symbol
  Cu1      1.0000 0.82680  0.75000  0.75293  Biso   1.000  Cu
  Cu2      1.0000 0.17320  0.25000  0.24707  Biso   1.000  Cu
  Cu3      1.0000 0.91310  0.90608  0.34766  Biso   1.000  Cu
  Cu4      1.0000 0.08690  0.40608  0.65234  Biso   1.000  Cu
  N1       1.0000 0.89900  0.80070  0.99380  Biso   1.000  N
  N2       1.0000 0.10100  0.30070  0.00620  Biso   1.000  N
  C1       1.0000 0.91400  0.83420  0.13310  Biso   1.000  C
  C2       1.0000 0.08600  0.33420  0.86690  Biso   1.000  C
  C3       1.0000 0.93600  0.62400  0.68450  Biso   1.000  C
  C4       1.0000 0.06400  0.12400  0.31550  Biso   1.000  C
  N3       1.0000 0.00700  0.04460  0.34220  Biso   1.000  N
  N4       1.0000 0.99300  0.54460  0.65780  Biso   1.000  N
  S1       1.0000 0.56610  0.86335  0.55910  Biso   1.000  S
  S2       1.0000 0.43390  0.36335  0.44090  Biso   1.000  S
  C5       1.0000 0.51900  0.96260  0.69140  Biso   1.000  C
  C6       1.0000 0.48100  0.46260  0.30860  Biso   1.000  C
  N5       1.0000 0.61300  0.05130  0.65710  Biso   1.000  N
  N6       1.0000 0.38700  0.55130  0.34290  Biso   1.000  N
  N7       1.0000 0.36800  0.96080  0.83750  Biso   1.000  N
  N8       1.0000 0.63200  0.46080  0.16250  Biso   1.000  N
  C7       1.0000 0.47600  0.12110  0.77630  Biso   1.000  C
  C8       1.0000 0.52400  0.62110  0.22370  Biso   1.000  C
  C9       1.0000 0.38000  0.05630  0.92220  Biso   1.000  C
  C10      1.0000 0.62000  0.55630  0.07780  Biso   1.000  C
  H1       1.0000 0.71000  0.06800  0.57600  Biso   1.000  H
  H2       1.0000 0.29000  0.56800  0.42400  Biso   1.000  H
  H3       1.0000 0.31000  0.90400  0.87500  Biso   1.000  H
  H4       1.0000 0.69000  0.40400  0.12500  Biso   1.000  H
  H5       1.0000 0.28530  0.15380  0.71720  Biso   1.000  H
  H6       1.0000 0.71470  0.65380  0.28280  Biso   1.000  H
  H7       1.0000 0.64210  0.16690  0.82140  Biso   1.000  H
  H8       1.0000 0.35790  0.66690  0.17860  Biso   1.000  H
  H9       1.0000 0.54480  0.05830  0.02410  Biso   1.000  H
  H10      1.0000 0.45520  0.55830  0.97590  Biso   1.000  H
  H11      1.0000 0.16620  0.07360  0.95550  Biso   1.000  H
  H12      1.0000 0.83380  0.57360  0.04450  Biso   1.000  H
