data_image0
_cell_length_a       15.253
_cell_length_b       11.594
_cell_length_c       20.752
_cell_angle_alpha    90
_cell_angle_beta     108.53
_cell_angle_gamma    90

_symmetry_space_group_name_H-M    "P 1"
_symmetry_int_tables_number       1

loop_
  _symmetry_equiv_pos_as_xyz
  'x, y, z'

loop_
  _atom_site_label
  _atom_site_occupancy
  _atom_site_fract_x
  _atom_site_fract_y
  _atom_site_fract_z
  _atom_site_thermal_displace_type
  _atom_site_B_iso_or_equiv
  _atom_site_type_symbol
  Cu1      1.0000 0.48300  0.10390  0.71190  Biso   1.000  Cu
  Cu2      1.0000 0.51700  0.60390  0.78810  Biso   1.000  Cu
  Cu3      1.0000 0.51700  0.89610  0.28810  Biso   1.000  Cu
  Cu4      1.0000 0.48300  0.39610  0.21190  Biso   1.000  Cu
  Cu5      1.0000 0.99480  0.80900  0.74340  Biso   1.000  Cu
  Cu6      1.0000 0.00520  0.30900  0.75660  Biso   1.000  Cu
  Cu7      1.0000 0.00520  0.19100  0.25660  Biso   1.000  Cu
  Cu8      1.0000 0.99480  0.69100  0.24340  Biso   1.000  Cu
  N1       1.0000 0.38590  0.22440  0.71530  Biso   1.000  N
  N2       1.0000 0.61410  0.72440  0.78470  Biso   1.000  N
  N3       1.0000 0.61410  0.77560  0.28470  Biso   1.000  N
  N4       1.0000 0.38590  0.27560  0.21530  Biso   1.000  N
  C1       1.0000 0.31720  0.26190  0.66150  Biso   1.000  C
  C2       1.0000 0.68280  0.76190  0.83850  Biso   1.000  C
  C3       1.0000 0.68280  0.73810  0.33850  Biso   1.000  C
  C4       1.0000 0.31720  0.23810  0.16150  Biso   1.000  C
  C5       1.0000 0.25790  0.35310  0.66390  Biso   1.000  C
  C6       1.0000 0.74210  0.85310  0.83610  Biso   1.000  C
  C7       1.0000 0.74210  0.64690  0.33610  Biso   1.000  C
  C8       1.0000 0.25790  0.14690  0.16390  Biso   1.000  C
  C9       1.0000 0.27030  0.41320  0.72310  Biso   1.000  C
  C10      1.0000 0.72970  0.91320  0.77690  Biso   1.000  C
  C11      1.0000 0.72970  0.58680  0.27690  Biso   1.000  C
  C12      1.0000 0.27030  0.08680  0.22310  Biso   1.000  C
  C13      1.0000 0.34140  0.37600  0.77790  Biso   1.000  C
  C14      1.0000 0.65860  0.87600  0.72210  Biso   1.000  C
  C15      1.0000 0.65860  0.62400  0.22210  Biso   1.000  C
  C16      1.0000 0.34140  0.12400  0.27790  Biso   1.000  C
  C17      1.0000 0.39580  0.28260  0.77130  Biso   1.000  C
  C18      1.0000 0.60420  0.78260  0.72870  Biso   1.000  C
  C19      1.0000 0.60420  0.71740  0.22870  Biso   1.000  C
  C20      1.0000 0.39580  0.21740  0.27130  Biso   1.000  C
  N5       1.0000 0.09730  0.69510  0.73960  Biso   1.000  N
  N6       1.0000 0.90270  0.19510  0.76040  Biso   1.000  N
  N7       1.0000 0.90270  0.30490  0.26040  Biso   1.000  N
  N8       1.0000 0.09730  0.80490  0.23960  Biso   1.000  N
  C21      1.0000 0.11350  0.67020  0.68270  Biso   1.000  C
  C22      1.0000 0.88650  0.17020  0.81730  Biso   1.000  C
  C23      1.0000 0.88650  0.32980  0.31730  Biso   1.000  C
  C24      1.0000 0.11350  0.82980  0.18270  Biso   1.000  C
  C25      1.0000 0.16840  0.58020  0.67450  Biso   1.000  C
  C26      1.0000 0.83160  0.08020  0.82550  Biso   1.000  C
  C27      1.0000 0.83160  0.41980  0.32550  Biso   1.000  C
  C28      1.0000 0.16840  0.91980  0.17450  Biso   1.000  C
  C29      1.0000 0.21260  0.50900  0.72860  Biso   1.000  C
  C30      1.0000 0.78740  0.00900  0.77140  Biso   1.000  C
  C31      1.0000 0.78740  0.49100  0.27140  Biso   1.000  C
  C32      1.0000 0.21260  0.99100  0.22860  Biso   1.000  C
  C33      1.0000 0.19700  0.53490  0.78850  Biso   1.000  C
  C34      1.0000 0.80300  0.03490  0.71150  Biso   1.000  C
  C35      1.0000 0.80300  0.46510  0.21150  Biso   1.000  C
  C36      1.0000 0.19700  0.96510  0.28850  Biso   1.000  C
  C37      1.0000 0.14200  0.62850  0.79240  Biso   1.000  C
  C38      1.0000 0.85800  0.12850  0.70760  Biso   1.000  C
  C39      1.0000 0.85800  0.37150  0.20760  Biso   1.000  C
  C40      1.0000 0.14200  0.87150  0.29240  Biso   1.000  C
  N9       1.0000 0.59350  0.21610  0.72100  Biso   1.000  N
  N10      1.0000 0.40650  0.71610  0.77900  Biso   1.000  N
  N11      1.0000 0.40650  0.78390  0.27900  Biso   1.000  N
  N12      1.0000 0.59350  0.28390  0.22100  Biso   1.000  N
  C41      1.0000 0.60950  0.26370  0.66830  Biso   1.000  C
  C42      1.0000 0.39050  0.76370  0.83170  Biso   1.000  C
  C43      1.0000 0.39050  0.73630  0.33170  Biso   1.000  C
  C44      1.0000 0.60950  0.23630  0.16830  Biso   1.000  C
  C45      1.0000 0.66940  0.35610  0.67260  Biso   1.000  C
  C46      1.0000 0.33060  0.85610  0.82740  Biso   1.000  C
  C47      1.0000 0.33060  0.64390  0.32740  Biso   1.000  C
  C48      1.0000 0.66940  0.14390  0.17260  Biso   1.000  C
  C49      1.0000 0.71400  0.40620  0.73510  Biso   1.000  C
  C50      1.0000 0.28600  0.90620  0.76490  Biso   1.000  C
  C51      1.0000 0.28600  0.59380  0.26490  Biso   1.000  C
  C52      1.0000 0.71400  0.09380  0.23510  Biso   1.000  C
  C53      1.0000 0.69950  0.35450  0.79050  Biso   1.000  C
  C54      1.0000 0.30050  0.85450  0.70950  Biso   1.000  C
  C55      1.0000 0.30050  0.64550  0.20950  Biso   1.000  C
  C56      1.0000 0.69950  0.14550  0.29050  Biso   1.000  C
  C57      1.0000 0.63840  0.26280  0.78130  Biso   1.000  C
  C58      1.0000 0.36160  0.76280  0.71870  Biso   1.000  C
  C59      1.0000 0.36160  0.73720  0.21870  Biso   1.000  C
  C60      1.0000 0.63840  0.23720  0.28130  Biso   1.000  C
  N13      1.0000 0.89300  0.69570  0.75120  Biso   1.000  N
  N14      1.0000 0.10700  0.19570  0.74880  Biso   1.000  N
  N15      1.0000 0.10700  0.30430  0.24880  Biso   1.000  N
  N16      1.0000 0.89300  0.80430  0.25120  Biso   1.000  N
  C61      1.0000 0.81930  0.67860  0.69620  Biso   1.000  C
  C62      1.0000 0.18070  0.17860  0.80380  Biso   1.000  C
  C63      1.0000 0.18070  0.32140  0.30380  Biso   1.000  C
  C64      1.0000 0.81930  0.82140  0.19620  Biso   1.000  C
  C65      1.0000 0.75920  0.58680  0.69060  Biso   1.000  C
  C66      1.0000 0.24080  0.08680  0.80940  Biso   1.000  C
  C67      1.0000 0.24080  0.41320  0.30940  Biso   1.000  C
  C68      1.0000 0.75920  0.91320  0.19060  Biso   1.000  C
  C69      1.0000 0.77420  0.50640  0.74210  Biso   1.000  C
  C70      1.0000 0.22580  0.00640  0.75790  Biso   1.000  C
  C71      1.0000 0.22580  0.49360  0.25790  Biso   1.000  C
  C72      1.0000 0.77420  0.99360  0.24210  Biso   1.000  C
  C73      1.0000 0.84960  0.52600  0.79900  Biso   1.000  C
  C74      1.0000 0.15040  0.02600  0.70100  Biso   1.000  C
  C75      1.0000 0.15040  0.47400  0.20100  Biso   1.000  C
  C76      1.0000 0.84960  0.97400  0.29900  Biso   1.000  C
  C77      1.0000 0.90610  0.61940  0.80100  Biso   1.000  C
  C78      1.0000 0.09390  0.11940  0.69900  Biso   1.000  C
  C79      1.0000 0.09390  0.38060  0.19900  Biso   1.000  C
  C80      1.0000 0.90610  0.88060  0.30100  Biso   1.000  C
  N17      1.0000 0.44490  0.00470  0.63120  Biso   1.000  N
  N18      1.0000 0.55510  0.50470  0.86880  Biso   1.000  N
  N19      1.0000 0.55510  0.99530  0.36880  Biso   1.000  N
  N20      1.0000 0.44490  0.49530  0.13120  Biso   1.000  N
  C81      1.0000 0.41910  0.95770  0.58100  Biso   1.000  C
  C82      1.0000 0.58090  0.45770  0.91900  Biso   1.000  C
  C83      1.0000 0.58090  0.04230  0.41900  Biso   1.000  C
  C84      1.0000 0.41910  0.54230  0.08100  Biso   1.000  C
  C85      1.0000 0.38750  0.89590  0.51940  Biso   1.000  C
  C86      1.0000 0.61250  0.39590  0.98060  Biso   1.000  C
  C87      1.0000 0.61250  0.10410  0.48060  Biso   1.000  C
  C88      1.0000 0.38750  0.60410  0.01940  Biso   1.000  C
  N21      1.0000 0.51940  0.03790  0.80490  Biso   1.000  N
  N22      1.0000 0.48060  0.53790  0.69510  Biso   1.000  N
  N23      1.0000 0.48060  0.96210  0.19510  Biso   1.000  N
  N24      1.0000 0.51940  0.46210  0.30490  Biso   1.000  N
  C89      1.0000 0.54570  0.02790  0.86110  Biso   1.000  C
  C90      1.0000 0.45430  0.52790  0.63890  Biso   1.000  C
  C91      1.0000 0.45430  0.97210  0.13890  Biso   1.000  C
  C92      1.0000 0.54570  0.47210  0.36110  Biso   1.000  C
  C93      1.0000 0.58090  0.01580  0.93490  Biso   1.000  C
  C94      1.0000 0.41910  0.51580  0.56510  Biso   1.000  C
  C95      1.0000 0.41910  0.98420  0.06510  Biso   1.000  C
  C96      1.0000 0.58090  0.48420  0.43490  Biso   1.000  C
  N25      1.0000 0.03600  0.91140  0.82030  Biso   1.000  N
  N26      1.0000 0.96400  0.41140  0.67970  Biso   1.000  N
  N27      1.0000 0.96400  0.08860  0.17970  Biso   1.000  N
  N28      1.0000 0.03600  0.58860  0.32030  Biso   1.000  N
  C97      1.0000 0.06220  0.96430  0.86730  Biso   1.000  C
  C98      1.0000 0.93780  0.46430  0.63270  Biso   1.000  C
  C99      1.0000 0.93780  0.03570  0.13270  Biso   1.000  C
  C100     1.0000 0.06220  0.53570  0.36730  Biso   1.000  C
  C101     1.0000 0.09610  0.03150  0.93040  Biso   1.000  C
  C102     1.0000 0.90390  0.53150  0.56960  Biso   1.000  C
  C103     1.0000 0.90390  0.96850  0.06960  Biso   1.000  C
  C104     1.0000 0.09610  0.46850  0.43040  Biso   1.000  C
  N29      1.0000 0.94550  0.86600  0.64660  Biso   1.000  N
  N30      1.0000 0.05450  0.36600  0.85340  Biso   1.000  N
  N31      1.0000 0.05450  0.13400  0.35340  Biso   1.000  N
  N32      1.0000 0.94550  0.63400  0.14660  Biso   1.000  N
  C105     1.0000 0.91670  0.87690  0.58910  Biso   1.000  C
  C106     1.0000 0.08330  0.37690  0.91090  Biso   1.000  C
  C107     1.0000 0.08330  0.12310  0.41090  Biso   1.000  C
  C108     1.0000 0.91670  0.62310  0.08910  Biso   1.000  C
  C109     1.0000 0.88170  0.89100  0.51620  Biso   1.000  C
  C110     1.0000 0.11830  0.39100  0.98380  Biso   1.000  C
  C111     1.0000 0.11830  0.10900  0.48380  Biso   1.000  C
  C112     1.0000 0.88170  0.60900  0.01620  Biso   1.000  C
  B1       1.0000 0.86680  0.22790  0.49150  Biso   1.000  B
  B2       1.0000 0.13320  0.72790  0.00850  Biso   1.000  B
  B3       1.0000 0.13320  0.77210  0.50850  Biso   1.000  B
  B4       1.0000 0.86680  0.27210  0.99150  Biso   1.000  B
  F1       1.0000 0.93790  0.29700  0.49280  Biso   1.000  F
  F2       1.0000 0.06210  0.79700  0.00720  Biso   1.000  F
  F3       1.0000 0.06210  0.70300  0.50720  Biso   1.000  F
  F4       1.0000 0.93790  0.20300  0.99280  Biso   1.000  F
  F5       1.0000 0.88120  0.18250  0.55120  Biso   1.000  F
  F6       1.0000 0.11880  0.68250  0.94880  Biso   1.000  F
  F7       1.0000 0.11880  0.81750  0.44880  Biso   1.000  F
  F8       1.0000 0.88120  0.31750  0.05120  Biso   1.000  F
  F9       1.0000 0.86110  0.14730  0.44470  Biso   1.000  F
  F10      1.0000 0.13890  0.64730  0.05530  Biso   1.000  F
  F11      1.0000 0.13890  0.85270  0.55530  Biso   1.000  F
  F12      1.0000 0.86110  0.35270  0.94470  Biso   1.000  F
  F13      1.0000 0.79350  0.29410  0.47350  Biso   1.000  F
  F14      1.0000 0.20650  0.79410  0.02650  Biso   1.000  F
  F15      1.0000 0.20650  0.70590  0.52650  Biso   1.000  F
  F16      1.0000 0.79350  0.20590  0.97350  Biso   1.000  F
  B5       1.0000 0.63340  0.76250  0.52960  Biso   1.000  B
  B6       1.0000 0.36660  0.26250  0.97040  Biso   1.000  B
  B7       1.0000 0.36660  0.23750  0.47040  Biso   1.000  B
  B8       1.0000 0.63340  0.73750  0.02960  Biso   1.000  B
  F17      1.0000 0.58890  0.69930  0.56360  Biso   1.000  F
  F18      1.0000 0.41110  0.19930  0.93640  Biso   1.000  F
  F19      1.0000 0.41110  0.30070  0.43640  Biso   1.000  F
  F20      1.0000 0.58890  0.80070  0.06360  Biso   1.000  F
  F21      1.0000 0.57700  0.78170  0.46800  Biso   1.000  F
  F22      1.0000 0.42300  0.28170  0.03200  Biso   1.000  F
  F23      1.0000 0.42300  0.21830  0.53200  Biso   1.000  F
  F24      1.0000 0.57700  0.71830  0.96800  Biso   1.000  F
  F25      1.0000 0.66740  0.85770  0.56510  Biso   1.000  F
  F26      1.0000 0.33260  0.35770  0.93490  Biso   1.000  F
  F27      1.0000 0.33260  0.14230  0.43490  Biso   1.000  F
  F28      1.0000 0.66740  0.64230  0.06510  Biso   1.000  F
  F29      1.0000 0.70520  0.70020  0.52580  Biso   1.000  F
  F30      1.0000 0.29480  0.20020  0.97420  Biso   1.000  F
  F31      1.0000 0.29480  0.29980  0.47420  Biso   1.000  F
  F32      1.0000 0.70520  0.79980  0.02580  Biso   1.000  F
