data_image0
_cell_length_a       10.3602
_cell_length_b       23.6956
_cell_length_c       11.2363
_cell_angle_alpha    90
_cell_angle_beta     99.8468
_cell_angle_gamma    90

_symmetry_space_group_name_H-M    "P 1"
_symmetry_int_tables_number       1

loop_
  _symmetry_equiv_pos_as_xyz
  'x, y, z'

loop_
  _atom_site_label
  _atom_site_occupancy
  _atom_site_fract_x
  _atom_site_fract_y
  _atom_site_fract_z
  _atom_site_thermal_displace_type
  _atom_site_B_iso_or_equiv
  _atom_site_type_symbol
  Cu1      1.0000 0.58464  0.30141  0.42746  Biso   1.000  Cu
  Cu2      1.0000 0.41536  0.80141  0.07254  Biso   1.000  Cu
  Cu3      1.0000 0.41536  0.69859  0.57254  Biso   1.000  Cu
  Cu4      1.0000 0.58464  0.19859  0.92746  Biso   1.000  Cu
  N1       1.0000 0.45760  0.24232  0.31880  Biso   1.000  N
  N2       1.0000 0.54240  0.74232  0.18120  Biso   1.000  N
  N3       1.0000 0.54240  0.75768  0.68120  Biso   1.000  N
  N4       1.0000 0.45760  0.25768  0.81880  Biso   1.000  N
  H1       1.0000 0.42900  0.25930  0.24760  Biso   1.000  H
  H2       1.0000 0.57100  0.75930  0.25240  Biso   1.000  H
  H3       1.0000 0.57100  0.74070  0.75240  Biso   1.000  H
  H4       1.0000 0.42900  0.24070  0.74760  Biso   1.000  H
  H5       1.0000 0.38400  0.23110  0.34400  Biso   1.000  H
  H6       1.0000 0.61600  0.73110  0.15600  Biso   1.000  H
  H7       1.0000 0.61600  0.76890  0.65600  Biso   1.000  H
  H8       1.0000 0.38400  0.26890  0.84400  Biso   1.000  H
  C1       1.0000 0.54390  0.19603  0.31230  Biso   1.000  C
  C2       1.0000 0.45610  0.69603  0.18770  Biso   1.000  C
  C3       1.0000 0.45610  0.80397  0.68770  Biso   1.000  C
  C4       1.0000 0.54390  0.30397  0.81230  Biso   1.000  C
  C5       1.0000 0.54810  0.15209  0.39550  Biso   1.000  C
  C6       1.0000 0.45190  0.65209  0.10450  Biso   1.000  C
  C7       1.0000 0.45190  0.84791  0.60450  Biso   1.000  C
  C8       1.0000 0.54810  0.34791  0.89550  Biso   1.000  C
  H9       1.0000 0.48640  0.15100  0.44900  Biso   1.000  H
  H10      1.0000 0.51360  0.65100  0.05100  Biso   1.000  H
  H11      1.0000 0.51360  0.84900  0.55100  Biso   1.000  H
  H12      1.0000 0.48640  0.34900  0.94900  Biso   1.000  H
  C9       1.0000 0.64160  0.11010  0.40050  Biso   1.000  C
  C10      1.0000 0.35840  0.61010  0.09950  Biso   1.000  C
  C11      1.0000 0.35840  0.88990  0.59950  Biso   1.000  C
  C12      1.0000 0.64160  0.38990  0.90050  Biso   1.000  C
  H13      1.0000 0.64380  0.08040  0.45770  Biso   1.000  H
  H14      1.0000 0.35620  0.58040  0.04230  Biso   1.000  H
  H15      1.0000 0.35620  0.91960  0.54230  Biso   1.000  H
  H16      1.0000 0.64380  0.41960  0.95770  Biso   1.000  H
  C13      1.0000 0.73230  0.11092  0.32280  Biso   1.000  C
  C14      1.0000 0.26770  0.61092  0.17720  Biso   1.000  C
  C15      1.0000 0.26770  0.88908  0.67720  Biso   1.000  C
  C16      1.0000 0.73230  0.38908  0.82280  Biso   1.000  C
  H17      1.0000 0.79820  0.08270  0.32850  Biso   1.000  H
  H18      1.0000 0.20180  0.58270  0.17150  Biso   1.000  H
  H19      1.0000 0.20180  0.91730  0.67150  Biso   1.000  H
  H20      1.0000 0.79820  0.41730  0.82850  Biso   1.000  H
  C17      1.0000 0.72600  0.15324  0.23680  Biso   1.000  C
  C18      1.0000 0.27400  0.65324  0.26320  Biso   1.000  C
  C19      1.0000 0.27400  0.84676  0.76320  Biso   1.000  C
  C20      1.0000 0.72600  0.34676  0.73680  Biso   1.000  C
  H21      1.0000 0.78620  0.15340  0.18190  Biso   1.000  H
  H22      1.0000 0.21380  0.65340  0.31810  Biso   1.000  H
  H23      1.0000 0.21380  0.84660  0.81810  Biso   1.000  H
  H24      1.0000 0.78620  0.34660  0.68190  Biso   1.000  H
  C21      1.0000 0.63140  0.19569  0.23040  Biso   1.000  C
  C22      1.0000 0.36860  0.69569  0.26960  Biso   1.000  C
  C23      1.0000 0.36860  0.80431  0.76960  Biso   1.000  C
  C24      1.0000 0.63140  0.30431  0.73040  Biso   1.000  C
  S1       1.0000 0.61769  0.24900  0.11727  Biso   1.000  S
  S2       1.0000 0.38231  0.74900  0.38273  Biso   1.000  S
  S3       1.0000 0.38231  0.75100  0.88273  Biso   1.000  S
  S4       1.0000 0.61769  0.25100  0.61727  Biso   1.000  S
  C25      1.0000 0.78220  0.27947  0.13950  Biso   1.000  C
  C26      1.0000 0.21780  0.77947  0.36050  Biso   1.000  C
  C27      1.0000 0.21780  0.72053  0.86050  Biso   1.000  C
  C28      1.0000 0.78220  0.22053  0.63950  Biso   1.000  C
  H25      1.0000 0.84050  0.25290  0.10610  Biso   1.000  H
  H26      1.0000 0.15950  0.75290  0.39390  Biso   1.000  H
  H27      1.0000 0.15950  0.74710  0.89390  Biso   1.000  H
  H28      1.0000 0.84050  0.24710  0.60610  Biso   1.000  H
  H29      1.0000 0.77870  0.31470  0.09180  Biso   1.000  H
  H30      1.0000 0.22130  0.81470  0.40820  Biso   1.000  H
  H31      1.0000 0.22130  0.68530  0.90820  Biso   1.000  H
  H32      1.0000 0.77870  0.18530  0.59180  Biso   1.000  H
  C29      1.0000 0.84380  0.29292  0.26920  Biso   1.000  C
  C30      1.0000 0.15620  0.79292  0.23080  Biso   1.000  C
  C31      1.0000 0.15620  0.70708  0.73080  Biso   1.000  C
  C32      1.0000 0.84380  0.20708  0.76920  Biso   1.000  C
  H33      1.0000 0.93040  0.31050  0.26850  Biso   1.000  H
  H34      1.0000 0.06960  0.81050  0.23150  Biso   1.000  H
  H35      1.0000 0.06960  0.68950  0.73150  Biso   1.000  H
  H36      1.0000 0.93040  0.18950  0.76850  Biso   1.000  H
  H37      1.0000 0.85920  0.25690  0.31420  Biso   1.000  H
  H38      1.0000 0.14080  0.75690  0.18580  Biso   1.000  H
  H39      1.0000 0.14080  0.74310  0.68580  Biso   1.000  H
  H40      1.0000 0.85920  0.24310  0.81420  Biso   1.000  H
  P1       1.0000 0.74885  0.33990  0.35273  Biso   1.000  P
  P2       1.0000 0.25115  0.83990  0.14727  Biso   1.000  P
  P3       1.0000 0.25115  0.66010  0.64727  Biso   1.000  P
  P4       1.0000 0.74885  0.16010  0.85273  Biso   1.000  P
  C33      1.0000 0.87740  0.36682  0.47160  Biso   1.000  C
  C34      1.0000 0.12260  0.86682  0.02840  Biso   1.000  C
  C35      1.0000 0.12260  0.63318  0.52840  Biso   1.000  C
  C36      1.0000 0.87740  0.13318  0.97160  Biso   1.000  C
  C37      1.0000 0.97530  0.33093  0.52930  Biso   1.000  C
  C38      1.0000 0.02470  0.83093  0.97070  Biso   1.000  C
  C39      1.0000 0.02470  0.66907  0.47070  Biso   1.000  C
  C40      1.0000 0.97530  0.16907  0.02930  Biso   1.000  C
  H41      1.0000 0.98230  0.29360  0.50020  Biso   1.000  H
  H42      1.0000 0.01770  0.79360  0.99980  Biso   1.000  H
  H43      1.0000 0.01770  0.70640  0.49980  Biso   1.000  H
  H44      1.0000 0.98230  0.20640  0.00020  Biso   1.000  H
  C41      1.0000 0.06270  0.34976  0.62980  Biso   1.000  C
  C42      1.0000 0.93730  0.84976  0.87020  Biso   1.000  C
  C43      1.0000 0.93730  0.65024  0.37020  Biso   1.000  C
  C44      1.0000 0.06270  0.15024  0.12980  Biso   1.000  C
  H45      1.0000 0.12780  0.32490  0.67000  Biso   1.000  H
  H46      1.0000 0.87220  0.82490  0.83000  Biso   1.000  H
  H47      1.0000 0.87220  0.67510  0.33000  Biso   1.000  H
  H48      1.0000 0.12780  0.17510  0.17000  Biso   1.000  H
  C45      1.0000 0.05520  0.40430  0.67110  Biso   1.000  C
  C46      1.0000 0.94480  0.90430  0.82890  Biso   1.000  C
  C47      1.0000 0.94480  0.59570  0.32890  Biso   1.000  C
  C48      1.0000 0.05520  0.09570  0.17110  Biso   1.000  C
  H49      1.0000 0.11460  0.41680  0.73990  Biso   1.000  H
  H50      1.0000 0.88540  0.91680  0.76010  Biso   1.000  H
  H51      1.0000 0.88540  0.58320  0.26010  Biso   1.000  H
  H52      1.0000 0.11460  0.08320  0.23990  Biso   1.000  H
  C49      1.0000 0.96130  0.44062  0.61210  Biso   1.000  C
  C50      1.0000 0.03870  0.94062  0.88790  Biso   1.000  C
  C51      1.0000 0.03870  0.55938  0.38790  Biso   1.000  C
  C52      1.0000 0.96130  0.05938  0.11210  Biso   1.000  C
  H53      1.0000 0.95760  0.47850  0.63930  Biso   1.000  H
  H54      1.0000 0.04240  0.97850  0.86070  Biso   1.000  H
  H55      1.0000 0.04240  0.52150  0.36070  Biso   1.000  H
  H56      1.0000 0.95760  0.02150  0.13930  Biso   1.000  H
  C53      1.0000 0.87210  0.42206  0.51330  Biso   1.000  C
  C54      1.0000 0.12790  0.92206  0.98670  Biso   1.000  C
  C55      1.0000 0.12790  0.57794  0.48670  Biso   1.000  C
  C56      1.0000 0.87210  0.07794  0.01330  Biso   1.000  C
  H57      1.0000 0.80700  0.44720  0.47390  Biso   1.000  H
  H58      1.0000 0.19300  0.94720  0.02610  Biso   1.000  H
  H59      1.0000 0.19300  0.55280  0.52610  Biso   1.000  H
  H60      1.0000 0.80700  0.05280  0.97390  Biso   1.000  H
  C57      1.0000 0.71380  0.40195  0.25690  Biso   1.000  C
  C58      1.0000 0.28620  0.90195  0.24310  Biso   1.000  C
  C59      1.0000 0.28620  0.59805  0.74310  Biso   1.000  C
  C60      1.0000 0.71380  0.09805  0.75690  Biso   1.000  C
  C61      1.0000 0.81280  0.42998  0.21020  Biso   1.000  C
  C62      1.0000 0.18720  0.92998  0.28980  Biso   1.000  C
  C63      1.0000 0.18720  0.57002  0.78980  Biso   1.000  C
  C64      1.0000 0.81280  0.07002  0.71020  Biso   1.000  C
  H61      1.0000 0.89880  0.41480  0.22170  Biso   1.000  H
  H62      1.0000 0.10120  0.91480  0.27830  Biso   1.000  H
  H63      1.0000 0.10120  0.58520  0.77830  Biso   1.000  H
  H64      1.0000 0.89880  0.08520  0.72170  Biso   1.000  H
  C65      1.0000 0.78520  0.48005  0.14710  Biso   1.000  C
  C66      1.0000 0.21480  0.98005  0.35290  Biso   1.000  C
  C67      1.0000 0.21480  0.51995  0.85290  Biso   1.000  C
  C68      1.0000 0.78520  0.01995  0.64710  Biso   1.000  C
  H65      1.0000 0.85260  0.49890  0.11500  Biso   1.000  H
  H66      1.0000 0.14740  0.99890  0.38500  Biso   1.000  H
  H67      1.0000 0.14740  0.50110  0.88500  Biso   1.000  H
  H68      1.0000 0.85260  0.00110  0.61500  Biso   1.000  H
  C69      1.0000 0.66080  0.50273  0.13030  Biso   1.000  C
  C70      1.0000 0.33920  0.00273  0.36970  Biso   1.000  C
  C71      1.0000 0.33920  0.49727  0.86970  Biso   1.000  C
  C72      1.0000 0.66080  0.99727  0.63030  Biso   1.000  C
  H69      1.0000 0.64320  0.53750  0.08870  Biso   1.000  H
  H70      1.0000 0.35680  0.03750  0.41130  Biso   1.000  H
  H71      1.0000 0.35680  0.46250  0.91130  Biso   1.000  H
  H72      1.0000 0.64320  0.96250  0.58870  Biso   1.000  H
  C73      1.0000 0.56170  0.47472  0.17420  Biso   1.000  C
  C74      1.0000 0.43830  0.97472  0.32580  Biso   1.000  C
  C75      1.0000 0.43830  0.52528  0.82580  Biso   1.000  C
  C76      1.0000 0.56170  0.02528  0.67420  Biso   1.000  C
  H73      1.0000 0.47570  0.49000  0.16190  Biso   1.000  H
  H74      1.0000 0.52430  0.99000  0.33810  Biso   1.000  H
  H75      1.0000 0.52430  0.51000  0.83810  Biso   1.000  H
  H76      1.0000 0.47570  0.01000  0.66190  Biso   1.000  H
  C77      1.0000 0.58780  0.42407  0.23650  Biso   1.000  C
  C78      1.0000 0.41220  0.92407  0.26350  Biso   1.000  C
  C79      1.0000 0.41220  0.57593  0.76350  Biso   1.000  C
  C80      1.0000 0.58780  0.07593  0.73650  Biso   1.000  C
  H77      1.0000 0.51910  0.40460  0.26520  Biso   1.000  H
  H78      1.0000 0.48090  0.90460  0.23480  Biso   1.000  H
  H79      1.0000 0.48090  0.59540  0.73480  Biso   1.000  H
  H80      1.0000 0.51910  0.09540  0.76520  Biso   1.000  H
  O1       1.0000 0.43860  0.35840  0.47080  Biso   1.000  O
  O2       1.0000 0.56140  0.85840  0.02920  Biso   1.000  O
  O3       1.0000 0.56140  0.64160  0.52920  Biso   1.000  O
  O4       1.0000 0.43860  0.14160  0.97080  Biso   1.000  O
  C81      1.0000 0.46970  0.41030  0.53460  Biso   1.000  C
  C82      1.0000 0.53030  0.91030  0.96540  Biso   1.000  C
  C83      1.0000 0.53030  0.58970  0.46540  Biso   1.000  C
  C84      1.0000 0.46970  0.08970  0.03460  Biso   1.000  C
  H81      1.0000 0.53710  0.43150  0.50010  Biso   1.000  H
  H82      1.0000 0.46290  0.93150  0.99990  Biso   1.000  H
  H83      1.0000 0.46290  0.56850  0.49990  Biso   1.000  H
  H84      1.0000 0.53710  0.06850  0.00010  Biso   1.000  H
  H85      1.0000 0.50320  0.40300  0.62110  Biso   1.000  H
  H86      1.0000 0.49680  0.90300  0.87890  Biso   1.000  H
  H87      1.0000 0.49680  0.59700  0.37890  Biso   1.000  H
  H88      1.0000 0.50320  0.09700  0.12110  Biso   1.000  H
  C85      1.0000 0.34270  0.44350  0.51970  Biso   1.000  C
  C86      1.0000 0.65730  0.94350  0.98030  Biso   1.000  C
  C87      1.0000 0.65730  0.55650  0.48030  Biso   1.000  C
  C88      1.0000 0.34270  0.05650  0.01970  Biso   1.000  C
  H89      1.0000 0.30760  0.44400  0.59630  Biso   1.000  H
  H90      1.0000 0.69240  0.94400  0.90370  Biso   1.000  H
  H91      1.0000 0.69240  0.55600  0.40370  Biso   1.000  H
  H92      1.0000 0.30760  0.05600  0.09630  Biso   1.000  H
  H93      1.0000 0.35700  0.48290  0.49570  Biso   1.000  H
  H94      1.0000 0.64300  0.98290  0.00430  Biso   1.000  H
  H95      1.0000 0.64300  0.51710  0.50430  Biso   1.000  H
  H96      1.0000 0.35700  0.01710  0.99570  Biso   1.000  H
  C89      1.0000 0.24930  0.41390  0.42250  Biso   1.000  C
  C90      1.0000 0.75070  0.91390  0.07750  Biso   1.000  C
  C91      1.0000 0.75070  0.58610  0.57750  Biso   1.000  C
  C92      1.0000 0.24930  0.08610  0.92250  Biso   1.000  C
  H97      1.0000 0.25270  0.43010  0.34200  Biso   1.000  H
  H98      1.0000 0.74730  0.93010  0.15800  Biso   1.000  H
  H99      1.0000 0.74730  0.56990  0.65800  Biso   1.000  H
  H100     1.0000 0.25270  0.06990  0.84200  Biso   1.000  H
  H101     1.0000 0.15830  0.41580  0.43820  Biso   1.000  H
  H102     1.0000 0.84170  0.91580  0.06180  Biso   1.000  H
  H103     1.0000 0.84170  0.58420  0.56180  Biso   1.000  H
  H104     1.0000 0.15830  0.08420  0.93820  Biso   1.000  H
  C93      1.0000 0.30020  0.35370  0.43170  Biso   1.000  C
  C94      1.0000 0.69980  0.85370  0.06830  Biso   1.000  C
  C95      1.0000 0.69980  0.64630  0.56830  Biso   1.000  C
  C96      1.0000 0.30020  0.14630  0.93170  Biso   1.000  C
  H105     1.0000 0.25970  0.33190  0.49100  Biso   1.000  H
  H106     1.0000 0.74030  0.83190  0.00900  Biso   1.000  H
  H107     1.0000 0.74030  0.66810  0.50900  Biso   1.000  H
  H108     1.0000 0.25970  0.16810  0.99100  Biso   1.000  H
  H109     1.0000 0.28050  0.33460  0.35240  Biso   1.000  H
  H110     1.0000 0.71950  0.83460  0.14760  Biso   1.000  H
  H111     1.0000 0.71950  0.66540  0.64760  Biso   1.000  H
  H112     1.0000 0.28050  0.16540  0.85240  Biso   1.000  H
  Sb1      1.0000 0.16270  0.16080  0.54280  Biso   1.000  Sb
  Sb2      1.0000 0.83730  0.66080  0.95720  Biso   1.000  Sb
  Sb3      1.0000 0.83730  0.83920  0.45720  Biso   1.000  Sb
  Sb4      1.0000 0.16270  0.33920  0.04280  Biso   1.000  Sb
  F1       1.0000 0.00290  0.19440  0.48200  Biso   1.000  F
  F2       1.0000 0.99710  0.69440  0.01800  Biso   1.000  F
  F3       1.0000 0.99710  0.80560  0.51800  Biso   1.000  F
  F4       1.0000 0.00290  0.30560  0.98200  Biso   1.000  F
  F5       1.0000 0.11330  0.09270  0.46650  Biso   1.000  F
  F6       1.0000 0.88670  0.59270  0.03350  Biso   1.000  F
  F7       1.0000 0.88670  0.90730  0.53350  Biso   1.000  F
  F8       1.0000 0.11330  0.40730  0.96650  Biso   1.000  F
  F9       1.0000 0.09250  0.13550  0.67730  Biso   1.000  F
  F10      1.0000 0.90750  0.63550  0.82270  Biso   1.000  F
  F11      1.0000 0.90750  0.86450  0.32270  Biso   1.000  F
  F12      1.0000 0.09250  0.36450  0.17730  Biso   1.000  F
  F13      1.0000 0.21870  0.22800  0.61970  Biso   1.000  F
  F14      1.0000 0.78130  0.72800  0.88030  Biso   1.000  F
  F15      1.0000 0.78130  0.77200  0.38030  Biso   1.000  F
  F16      1.0000 0.21870  0.27200  0.11970  Biso   1.000  F
  F17      1.0000 0.23230  0.18400  0.40480  Biso   1.000  F
  F18      1.0000 0.76770  0.68400  0.09520  Biso   1.000  F
  F19      1.0000 0.76770  0.81600  0.59520  Biso   1.000  F
  F20      1.0000 0.23230  0.31600  0.90480  Biso   1.000  F
  F21      1.0000 0.32600  0.13050  0.60980  Biso   1.000  F
  F22      1.0000 0.67400  0.63050  0.89020  Biso   1.000  F
  F23      1.0000 0.67400  0.86950  0.39020  Biso   1.000  F
  F24      1.0000 0.32600  0.36950  0.10980  Biso   1.000  F
  C97      1.0000 0.43600  0.40130  0.56330  Biso   1.000  C
  C98      1.0000 0.56400  0.90130  0.93670  Biso   1.000  C
  C99      1.0000 0.56400  0.59870  0.43670  Biso   1.000  C
  C100     1.0000 0.43600  0.09870  0.06330  Biso   1.000  C
  C101     1.0000 0.36900  0.45010  0.48500  Biso   1.000  C
  C102     1.0000 0.63100  0.95010  0.01500  Biso   1.000  C
  C103     1.0000 0.63100  0.54990  0.51500  Biso   1.000  C
  C104     1.0000 0.36900  0.04990  0.98500  Biso   1.000  C
  C105     1.0000 0.26000  0.41900  0.40300  Biso   1.000  C
  C106     1.0000 0.74000  0.91900  0.09700  Biso   1.000  C
  C107     1.0000 0.74000  0.58100  0.59700  Biso   1.000  C
  C108     1.0000 0.26000  0.08100  0.90300  Biso   1.000  C
  C109     1.0000 0.30890  0.35940  0.39800  Biso   1.000  C
  C110     1.0000 0.69110  0.85940  0.10200  Biso   1.000  C
  C111     1.0000 0.69110  0.64060  0.60200  Biso   1.000  C
  C112     1.0000 0.30890  0.14060  0.89800  Biso   1.000  C
  F25      1.0000 0.00250  0.18040  0.45680  Biso   1.000  F
  F26      1.0000 0.99750  0.68040  0.04320  Biso   1.000  F
  F27      1.0000 0.99750  0.81960  0.54320  Biso   1.000  F
  F28      1.0000 0.00250  0.31960  0.95680  Biso   1.000  F
  F29      1.0000 0.02620  0.19980  0.44790  Biso   1.000  F
  F30      1.0000 0.97380  0.69980  0.05210  Biso   1.000  F
  F31      1.0000 0.97380  0.80020  0.55210  Biso   1.000  F
  F32      1.0000 0.02620  0.30020  0.94790  Biso   1.000  F
  F33      1.0000 0.20750  0.11610  0.43400  Biso   1.000  F
  F34      1.0000 0.79250  0.61610  0.06600  Biso   1.000  F
  F35      1.0000 0.79250  0.88390  0.56600  Biso   1.000  F
  F36      1.0000 0.20750  0.38390  0.93400  Biso   1.000  F
  F37      1.0000 0.24450  0.15940  0.39260  Biso   1.000  F
  F38      1.0000 0.75550  0.65940  0.10740  Biso   1.000  F
  F39      1.0000 0.75550  0.84060  0.60740  Biso   1.000  F
  F40      1.0000 0.24450  0.34060  0.89260  Biso   1.000  F
  F41      1.0000 0.10230  0.10960  0.63270  Biso   1.000  F
  F42      1.0000 0.89770  0.60960  0.86730  Biso   1.000  F
  F43      1.0000 0.89770  0.89040  0.36730  Biso   1.000  F
  F44      1.0000 0.10230  0.39040  0.13270  Biso   1.000  F
  F45      1.0000 0.07420  0.09080  0.46990  Biso   1.000  F
  F46      1.0000 0.92580  0.59080  0.03010  Biso   1.000  F
  F47      1.0000 0.92580  0.90920  0.53010  Biso   1.000  F
  F48      1.0000 0.07420  0.40920  0.96990  Biso   1.000  F
  F49      1.0000 0.13690  0.21930  0.66400  Biso   1.000  F
  F50      1.0000 0.86310  0.71930  0.83600  Biso   1.000  F
  F51      1.0000 0.86310  0.78070  0.33600  Biso   1.000  F
  F52      1.0000 0.13690  0.28070  0.16400  Biso   1.000  F
  F53      1.0000 0.09070  0.15550  0.66970  Biso   1.000  F
  F54      1.0000 0.90930  0.65550  0.83030  Biso   1.000  F
  F55      1.0000 0.90930  0.84450  0.33030  Biso   1.000  F
  F56      1.0000 0.09070  0.34450  0.16970  Biso   1.000  F
  F57      1.0000 0.24010  0.22520  0.46490  Biso   1.000  F
  F58      1.0000 0.75990  0.72520  0.03510  Biso   1.000  F
  F59      1.0000 0.75990  0.77480  0.53510  Biso   1.000  F
  F60      1.0000 0.24010  0.27480  0.96490  Biso   1.000  F
  F61      1.0000 0.25520  0.22210  0.58860  Biso   1.000  F
  F62      1.0000 0.74480  0.72210  0.91140  Biso   1.000  F
  F63      1.0000 0.74480  0.77790  0.41140  Biso   1.000  F
  F64      1.0000 0.25520  0.27790  0.08860  Biso   1.000  F
  F65      1.0000 0.33830  0.15480  0.63880  Biso   1.000  F
  F66      1.0000 0.66170  0.65480  0.86120  Biso   1.000  F
  F67      1.0000 0.66170  0.84520  0.36120  Biso   1.000  F
  F68      1.0000 0.33830  0.34520  0.13880  Biso   1.000  F
  F69      1.0000 0.30470  0.11010  0.60140  Biso   1.000  F
  F70      1.0000 0.69530  0.61010  0.89860  Biso   1.000  F
  F71      1.0000 0.69530  0.88990  0.39860  Biso   1.000  F
  F72      1.0000 0.30470  0.38990  0.10140  Biso   1.000  F
  H113     1.0000 0.52540  0.41170  0.60370  Biso   1.000  H
  H114     1.0000 0.47460  0.91170  0.89630  Biso   1.000  H
  H115     1.0000 0.47460  0.58830  0.39630  Biso   1.000  H
  H116     1.0000 0.52540  0.08830  0.10370  Biso   1.000  H
  H117     1.0000 0.38390  0.38900  0.62470  Biso   1.000  H
  H118     1.0000 0.61610  0.88900  0.87530  Biso   1.000  H
  H119     1.0000 0.61610  0.61100  0.37530  Biso   1.000  H
  H120     1.0000 0.38390  0.11100  0.12470  Biso   1.000  H
  H121     1.0000 0.33290  0.47880  0.53420  Biso   1.000  H
  H122     1.0000 0.66710  0.97880  0.96580  Biso   1.000  H
  H123     1.0000 0.66710  0.52120  0.46580  Biso   1.000  H
  H124     1.0000 0.33290  0.02120  0.03420  Biso   1.000  H
  H125     1.0000 0.42950  0.46860  0.43770  Biso   1.000  H
  H126     1.0000 0.57050  0.96860  0.06230  Biso   1.000  H
  H127     1.0000 0.57050  0.53140  0.56230  Biso   1.000  H
  H128     1.0000 0.42950  0.03140  0.93770  Biso   1.000  H
  H129     1.0000 0.17770  0.42020  0.43620  Biso   1.000  H
  H130     1.0000 0.82230  0.92020  0.06380  Biso   1.000  H
  H131     1.0000 0.82230  0.57980  0.56380  Biso   1.000  H
  H132     1.0000 0.17770  0.07980  0.93620  Biso   1.000  H
  H133     1.0000 0.24410  0.43600  0.32100  Biso   1.000  H
  H134     1.0000 0.75590  0.93600  0.17900  Biso   1.000  H
  H135     1.0000 0.75590  0.56400  0.67900  Biso   1.000  H
  H136     1.0000 0.24410  0.06400  0.82100  Biso   1.000  H
  H137     1.0000 0.25010  0.33300  0.43150  Biso   1.000  H
  H138     1.0000 0.74990  0.83300  0.06850  Biso   1.000  H
  H139     1.0000 0.74990  0.66700  0.56850  Biso   1.000  H
  H140     1.0000 0.25010  0.16700  0.93150  Biso   1.000  H
  H141     1.0000 0.31260  0.34830  0.31400  Biso   1.000  H
  H142     1.0000 0.68740  0.84830  0.18600  Biso   1.000  H
  H143     1.0000 0.68740  0.65170  0.68600  Biso   1.000  H
  H144     1.0000 0.31260  0.15170  0.81400  Biso   1.000  H
  Sb5      1.0000 0.16960  0.16800  0.54790  Biso   1.000  Sb
  Sb6      1.0000 0.83040  0.66800  0.95210  Biso   1.000  Sb
  Sb7      1.0000 0.83040  0.83200  0.45210  Biso   1.000  Sb
  Sb8      1.0000 0.16960  0.33200  0.04790  Biso   1.000  Sb
  Sb9      1.0000 0.16670  0.15560  0.52930  Biso   1.000  Sb
  Sb10     1.0000 0.83330  0.65560  0.97070  Biso   1.000  Sb
  Sb11     1.0000 0.83330  0.84440  0.47070  Biso   1.000  Sb
  Sb12     1.0000 0.16670  0.34440  0.02930  Biso   1.000  Sb
