data_image0
_cell_length_a       9.416
_cell_length_b       23.011
_cell_length_c       31.37
_cell_angle_alpha    90
_cell_angle_beta     90
_cell_angle_gamma    90

_symmetry_space_group_name_H-M    "P 1"
_symmetry_int_tables_number       1

loop_
  _symmetry_equiv_pos_as_xyz
  'x, y, z'

loop_
  _atom_site_label
  _atom_site_occupancy
  _atom_site_fract_x
  _atom_site_fract_y
  _atom_site_fract_z
  _atom_site_thermal_displace_type
  _atom_site_B_iso_or_equiv
  _atom_site_type_symbol
  Ce1      1.0000 0.46298  0.94144  0.98507  Biso   1.000  Ce
  Ce2      1.0000 0.03702  0.05856  0.48507  Biso   1.000  Ce
  Ce3      1.0000 0.96298  0.55856  0.01493  Biso   1.000  Ce
  Ce4      1.0000 0.53702  0.44144  0.51493  Biso   1.000  Ce
  Ce5      1.0000 0.99357  0.97123  0.97814  Biso   1.000  Ce
  Ce6      1.0000 0.50643  0.02877  0.47814  Biso   1.000  Ce
  Ce7      1.0000 0.49357  0.52877  0.02186  Biso   1.000  Ce
  Ce8      1.0000 0.00643  0.47123  0.52186  Biso   1.000  Ce
  I1       1.0000 0.48588  0.25460  0.76994  Biso   1.000  I
  I2       1.0000 0.01412  0.74540  0.26994  Biso   1.000  I
  I3       1.0000 0.98588  0.24540  0.23006  Biso   1.000  I
  I4       1.0000 0.51412  0.75460  0.73006  Biso   1.000  I
  I5       1.0000 0.97280  0.27070  0.78184  Biso   1.000  I
  I6       1.0000 0.52720  0.72930  0.28184  Biso   1.000  I
  I7       1.0000 0.47280  0.22930  0.21816  Biso   1.000  I
  I8       1.0000 0.02720  0.77070  0.71816  Biso   1.000  I
  I9       1.0000 0.79040  0.10509  0.74580  Biso   1.000  I
  I10      1.0000 0.70960  0.89491  0.24580  Biso   1.000  I
  I11      1.0000 0.29040  0.39491  0.25420  Biso   1.000  I
  I12      1.0000 0.20960  0.60509  0.75420  Biso   1.000  I
  Cu1      1.0000 0.51460  0.13923  0.74859  Biso   1.000  Cu
  Cu2      1.0000 0.98540  0.86077  0.24859  Biso   1.000  Cu
  Cu3      1.0000 0.01460  0.36077  0.25141  Biso   1.000  Cu
  Cu4      1.0000 0.48540  0.63923  0.75141  Biso   1.000  Cu
  Cu5      1.0000 0.53910  0.11675  0.22539  Biso   1.000  Cu
  Cu6      1.0000 0.96090  0.88325  0.72539  Biso   1.000  Cu
  Cu7      1.0000 0.03910  0.38325  0.77461  Biso   1.000  Cu
  Cu8      1.0000 0.46090  0.61675  0.27461  Biso   1.000  Cu
  Cu9      1.0000 0.71560  0.26595  0.81785  Biso   1.000  Cu
  Cu10     1.0000 0.78440  0.73405  0.31785  Biso   1.000  Cu
  Cu11     1.0000 0.21560  0.23405  0.18215  Biso   1.000  Cu
  Cu12     1.0000 0.28440  0.76595  0.68215  Biso   1.000  Cu
  Cu13     1.0000 0.74380  0.21585  0.73900  Biso   1.000  Cu
  Cu14     1.0000 0.75620  0.78415  0.23900  Biso   1.000  Cu
  Cu15     1.0000 0.24380  0.28415  0.26100  Biso   1.000  Cu
  Cu16     1.0000 0.25620  0.71585  0.76100  Biso   1.000  Cu
  O1       1.0000 0.07790  0.01910  0.91040  Biso   1.000  O
  O2       1.0000 0.42210  0.98090  0.41040  Biso   1.000  O
  O3       1.0000 0.57790  0.48090  0.08960  Biso   1.000  O
  O4       1.0000 0.92210  0.51910  0.58960  Biso   1.000  O
  O5       1.0000 0.30290  0.86480  0.95800  Biso   1.000  O
  O6       1.0000 0.19710  0.13520  0.45800  Biso   1.000  O
  O7       1.0000 0.80290  0.63520  0.04200  Biso   1.000  O
  O8       1.0000 0.69710  0.36480  0.54200  Biso   1.000  O
  O9       1.0000 0.81800  0.04620  0.96640  Biso   1.000  O
  O10      1.0000 0.68200  0.95380  0.46640  Biso   1.000  O
  O11      1.0000 0.31800  0.45380  0.03360  Biso   1.000  O
  O12      1.0000 0.18200  0.54620  0.53360  Biso   1.000  O
  O13      1.0000 0.58700  0.84560  0.99890  Biso   1.000  O
  O14      1.0000 0.91300  0.15440  0.49890  Biso   1.000  O
  O15      1.0000 0.08700  0.65440  0.00110  Biso   1.000  O
  O16      1.0000 0.41300  0.34560  0.50110  Biso   1.000  O
  O17      1.0000 0.13910  0.09780  0.55380  Biso   1.000  O
  O18      1.0000 0.36090  0.90220  0.05380  Biso   1.000  O
  O19      1.0000 0.63910  0.40220  0.44620  Biso   1.000  O
  O20      1.0000 0.86090  0.59780  0.94620  Biso   1.000  O
  O21      1.0000 0.64670  0.95880  0.03760  Biso   1.000  O
  O22      1.0000 0.85330  0.04120  0.53760  Biso   1.000  O
  O23      1.0000 0.14670  0.54120  0.96240  Biso   1.000  O
  O24      1.0000 0.35330  0.45880  0.46240  Biso   1.000  O
  O25      1.0000 0.07500  0.88140  0.94200  Biso   1.000  O
  O26      1.0000 0.42500  0.11860  0.44200  Biso   1.000  O
  O27      1.0000 0.57500  0.61860  0.05800  Biso   1.000  O
  O28      1.0000 0.92500  0.38140  0.55800  Biso   1.000  O
  C1       1.0000 0.24800  0.05670  0.02640  Biso   1.000  C
  C2       1.0000 0.25200  0.94330  0.52640  Biso   1.000  C
  C3       1.0000 0.74800  0.44330  0.97360  Biso   1.000  C
  C4       1.0000 0.75200  0.55670  0.47360  Biso   1.000  C
  O29      1.0000 0.35600  0.02630  0.02260  Biso   1.000  O
  O30      1.0000 0.14400  0.97370  0.52260  Biso   1.000  O
  O31      1.0000 0.85600  0.47370  0.97740  Biso   1.000  O
  O32      1.0000 0.64400  0.52630  0.47740  Biso   1.000  O
  C5       1.0000 0.34100  0.80280  0.88120  Biso   1.000  C
  C6       1.0000 0.15900  0.19720  0.38120  Biso   1.000  C
  C7       1.0000 0.84100  0.69720  0.11880  Biso   1.000  C
  C8       1.0000 0.65900  0.30280  0.61880  Biso   1.000  C
  H1       1.0000 0.42130  0.80960  0.89800  Biso   1.000  H
  H2       1.0000 0.07870  0.19040  0.39800  Biso   1.000  H
  H3       1.0000 0.92130  0.69040  0.10200  Biso   1.000  H
  H4       1.0000 0.57870  0.30960  0.60200  Biso   1.000  H
  O33      1.0000 0.57630  0.02980  0.95750  Biso   1.000  O
  O34      1.0000 0.92370  0.97020  0.45750  Biso   1.000  O
  O35      1.0000 0.07630  0.47020  0.04250  Biso   1.000  O
  O36      1.0000 0.42370  0.52980  0.54250  Biso   1.000  O
  O37      1.0000 0.28700  0.98160  0.93060  Biso   1.000  O
  O38      1.0000 0.21300  0.01840  0.43060  Biso   1.000  O
  O39      1.0000 0.78700  0.51840  0.06940  Biso   1.000  O
  O40      1.0000 0.71300  0.48160  0.56940  Biso   1.000  O
  N1       1.0000 0.70500  0.19120  0.85510  Biso   1.000  N
  N2       1.0000 0.79500  0.80880  0.35510  Biso   1.000  N
  N3       1.0000 0.20500  0.30880  0.14490  Biso   1.000  N
  N4       1.0000 0.29500  0.69120  0.64490  Biso   1.000  N
  N5       1.0000 0.23700  0.75450  0.82030  Biso   1.000  N
  N6       1.0000 0.26300  0.24550  0.32030  Biso   1.000  N
  N7       1.0000 0.73700  0.74550  0.17970  Biso   1.000  N
  N8       1.0000 0.76300  0.25450  0.67970  Biso   1.000  N
  C9       1.0000 0.27000  0.09580  0.56000  Biso   1.000  C
  C10      1.0000 0.23000  0.90420  0.06000  Biso   1.000  C
  C11      1.0000 0.77000  0.40420  0.44000  Biso   1.000  C
  C12      1.0000 0.73000  0.59580  0.94000  Biso   1.000  C
  C13      1.0000 0.51600  0.11130  0.65500  Biso   1.000  C
  C14      1.0000 0.98400  0.88870  0.15500  Biso   1.000  C
  C15      1.0000 0.01600  0.38870  0.34500  Biso   1.000  C
  C16      1.0000 0.48400  0.61130  0.84500  Biso   1.000  C
  H5       1.0000 0.61110  0.10370  0.66120  Biso   1.000  H
  H6       1.0000 0.88890  0.89630  0.16120  Biso   1.000  H
  H7       1.0000 0.11110  0.39630  0.33880  Biso   1.000  H
  H8       1.0000 0.38890  0.60370  0.83880  Biso   1.000  H
  O41      1.0000 0.57200  0.91090  0.91480  Biso   1.000  O
  O42      1.0000 0.92800  0.08910  0.41480  Biso   1.000  O
  O43      1.0000 0.07200  0.58910  0.08520  Biso   1.000  O
  O44      1.0000 0.42800  0.41090  0.58520  Biso   1.000  O
  O45      1.0000 0.36090  0.07710  0.53300  Biso   1.000  O
  O46      1.0000 0.13910  0.92290  0.03300  Biso   1.000  O
  O47      1.0000 0.86090  0.42290  0.46700  Biso   1.000  O
  O48      1.0000 0.63910  0.57710  0.96700  Biso   1.000  O
  O49      1.0000 0.87500  0.98840  0.04670  Biso   1.000  O
  O50      1.0000 0.62500  0.01160  0.54670  Biso   1.000  O
  O51      1.0000 0.37500  0.51160  0.95330  Biso   1.000  O
  O52      1.0000 0.12500  0.48840  0.45330  Biso   1.000  O
  C17      1.0000 0.68400  0.82700  0.02080  Biso   1.000  C
  C18      1.0000 0.81600  0.17300  0.52080  Biso   1.000  C
  C19      1.0000 0.18400  0.67300  0.97920  Biso   1.000  C
  C20      1.0000 0.31600  0.32700  0.47920  Biso   1.000  C
  C21      1.0000 0.76000  0.90790  0.86660  Biso   1.000  C
  C22      1.0000 0.74000  0.09210  0.36660  Biso   1.000  C
  C23      1.0000 0.26000  0.59210  0.13340  Biso   1.000  C
  C24      1.0000 0.24000  0.40790  0.63340  Biso   1.000  C
  O53      1.0000 0.78790  0.93000  0.94010  Biso   1.000  O
  O54      1.0000 0.71210  0.07000  0.44010  Biso   1.000  O
  O55      1.0000 0.28790  0.57000  0.05990  Biso   1.000  O
  O56      1.0000 0.21210  0.43000  0.55990  Biso   1.000  O
  N9       1.0000 0.41700  0.09310  0.79590  Biso   1.000  N
  N10      1.0000 0.08300  0.90690  0.29590  Biso   1.000  N
  N11      1.0000 0.91700  0.40690  0.20410  Biso   1.000  N
  N12      1.0000 0.58300  0.59310  0.70410  Biso   1.000  N
  C25      1.0000 0.74400  0.98620  0.05760  Biso   1.000  C
  C26      1.0000 0.75600  0.01380  0.55760  Biso   1.000  C
  C27      1.0000 0.24400  0.51380  0.94240  Biso   1.000  C
  C28      1.0000 0.25600  0.48620  0.44240  Biso   1.000  C
  N13      1.0000 0.22100  0.17270  0.13410  Biso   1.000  N
  N14      1.0000 0.27900  0.82730  0.63410  Biso   1.000  N
  N15      1.0000 0.72100  0.32730  0.86590  Biso   1.000  N
  N16      1.0000 0.77900  0.67270  0.36590  Biso   1.000  N
  C29      1.0000 0.69800  0.01660  0.09680  Biso   1.000  C
  C30      1.0000 0.80200  0.98340  0.59680  Biso   1.000  C
  C31      1.0000 0.19800  0.48340  0.90320  Biso   1.000  C
  C32      1.0000 0.30200  0.51660  0.40320  Biso   1.000  C
  C33      1.0000 0.19900  0.85700  0.93530  Biso   1.000  C
  C34      1.0000 0.30100  0.14300  0.43530  Biso   1.000  C
  C35      1.0000 0.69900  0.64300  0.06470  Biso   1.000  C
  C36      1.0000 0.80100  0.35700  0.56470  Biso   1.000  C
  C37      1.0000 0.91100  0.93860  0.80800  Biso   1.000  C
  C38      1.0000 0.58900  0.06140  0.30800  Biso   1.000  C
  C39      1.0000 0.41100  0.56140  0.19200  Biso   1.000  C
  C40      1.0000 0.08900  0.43860  0.69200  Biso   1.000  C
  H9       1.0000 0.97630  0.96540  0.79770  Biso   1.000  H
  H10      1.0000 0.52370  0.03460  0.29770  Biso   1.000  H
  H11      1.0000 0.47630  0.53460  0.20230  Biso   1.000  H
  H12      1.0000 0.02370  0.46540  0.70230  Biso   1.000  H
  O57      1.0000 0.34600  0.06290  0.23170  Biso   1.000  O
  O58      1.0000 0.15400  0.93710  0.73170  Biso   1.000  O
  O59      1.0000 0.84600  0.43710  0.76830  Biso   1.000  O
  O60      1.0000 0.65400  0.56290  0.26830  Biso   1.000  O
  C41      1.0000 0.20900  0.82490  0.89370  Biso   1.000  C
  C42      1.0000 0.29100  0.17510  0.39370  Biso   1.000  C
  C43      1.0000 0.70900  0.67510  0.10630  Biso   1.000  C
  C44      1.0000 0.79100  0.32490  0.60630  Biso   1.000  C
  C45      1.0000 0.21200  0.00920  0.90400  Biso   1.000  C
  C46      1.0000 0.28800  0.99080  0.40400  Biso   1.000  C
  C47      1.0000 0.71200  0.49080  0.09600  Biso   1.000  C
  C48      1.0000 0.78800  0.50920  0.59600  Biso   1.000  C
  N17      1.0000 0.43600  0.13460  0.68710  Biso   1.000  N
  N18      1.0000 0.06400  0.86540  0.18710  Biso   1.000  N
  N19      1.0000 0.93600  0.36540  0.31290  Biso   1.000  N
  N20      1.0000 0.56400  0.63460  0.81290  Biso   1.000  N
  C49      1.0000 0.58800  0.17880  0.87810  Biso   1.000  C
  C50      1.0000 0.91200  0.82120  0.37810  Biso   1.000  C
  C51      1.0000 0.08800  0.32120  0.12190  Biso   1.000  C
  C52      1.0000 0.41200  0.67880  0.62190  Biso   1.000  C
  H13      1.0000 0.50760  0.20130  0.87310  Biso   1.000  H
  H14      1.0000 0.99240  0.79870  0.37310  Biso   1.000  H
  H15      1.0000 0.00760  0.29870  0.12690  Biso   1.000  H
  H16      1.0000 0.49240  0.70130  0.62690  Biso   1.000  H
  C53      1.0000 0.69700  0.05540  0.95090  Biso   1.000  C
  C54      1.0000 0.80300  0.94460  0.45090  Biso   1.000  C
  C55      1.0000 0.19700  0.44460  0.04910  Biso   1.000  C
  C56      1.0000 0.30300  0.55540  0.54910  Biso   1.000  C
  O61      1.0000 0.13700  0.04970  0.00380  Biso   1.000  O
  O62      1.0000 0.36300  0.95030  0.50380  Biso   1.000  O
  O63      1.0000 0.63700  0.45030  0.99620  Biso   1.000  O
  O64      1.0000 0.86300  0.54970  0.49620  Biso   1.000  O
  N21      1.0000 0.61300  0.07300  0.17340  Biso   1.000  N
  N22      1.0000 0.88700  0.92700  0.67340  Biso   1.000  N
  N23      1.0000 0.11300  0.42700  0.82660  Biso   1.000  N
  N24      1.0000 0.38700  0.57300  0.32660  Biso   1.000  N
  C57      1.0000 0.69700  0.10100  0.91730  Biso   1.000  C
  C58      1.0000 0.80300  0.89900  0.41730  Biso   1.000  C
  C59      1.0000 0.19700  0.39900  0.08270  Biso   1.000  C
  C60      1.0000 0.30300  0.60100  0.58270  Biso   1.000  C
  C61      1.0000 0.34000  0.14610  0.12300  Biso   1.000  C
  C62      1.0000 0.16000  0.85390  0.62300  Biso   1.000  C
  C63      1.0000 0.84000  0.35390  0.87700  Biso   1.000  C
  C64      1.0000 0.66000  0.64610  0.37700  Biso   1.000  C
  H17      1.0000 0.42010  0.15270  0.13950  Biso   1.000  H
  H18      1.0000 0.07990  0.84730  0.63950  Biso   1.000  H
  H19      1.0000 0.92010  0.34730  0.86050  Biso   1.000  H
  H20      1.0000 0.57990  0.65270  0.36050  Biso   1.000  H
  C65      1.0000 0.85600  0.94770  0.84680  Biso   1.000  C
  C66      1.0000 0.64400  0.05230  0.34680  Biso   1.000  C
  C67      1.0000 0.35600  0.55230  0.15320  Biso   1.000  C
  C68      1.0000 0.14400  0.44770  0.65320  Biso   1.000  C
  H21      1.0000 0.88090  0.98130  0.86140  Biso   1.000  H
  H22      1.0000 0.61910  0.01870  0.36140  Biso   1.000  H
  H23      1.0000 0.38090  0.51870  0.13860  Biso   1.000  H
  H24      1.0000 0.11910  0.48130  0.63860  Biso   1.000  H
  C69      1.0000 0.57700  0.13560  0.90840  Biso   1.000  C
  C70      1.0000 0.92300  0.86440  0.40840  Biso   1.000  C
  C71      1.0000 0.07700  0.36440  0.09160  Biso   1.000  C
  C72      1.0000 0.42300  0.63560  0.59160  Biso   1.000  C
  H25      1.0000 0.49220  0.12930  0.92270  Biso   1.000  H
  H26      1.0000 0.00780  0.87070  0.42270  Biso   1.000  H
  H27      1.0000 0.99220  0.37070  0.07730  Biso   1.000  H
  H28      1.0000 0.50780  0.62930  0.57730  Biso   1.000  H
  C73      1.0000 0.20300  0.07510  0.83820  Biso   1.000  C
  C74      1.0000 0.29700  0.92490  0.33820  Biso   1.000  C
  C75      1.0000 0.70300  0.42490  0.16180  Biso   1.000  C
  C76      1.0000 0.79700  0.57510  0.66180  Biso   1.000  C
  H29      1.0000 0.10820  0.08330  0.84330  Biso   1.000  H
  H30      1.0000 0.39180  0.91670  0.34330  Biso   1.000  H
  H31      1.0000 0.60820  0.41670  0.15670  Biso   1.000  H
  H32      1.0000 0.89180  0.58330  0.65670  Biso   1.000  H
  N25      1.0000 0.87800  0.89380  0.78340  Biso   1.000  N
  N26      1.0000 0.62200  0.10620  0.28340  Biso   1.000  N
  N27      1.0000 0.37800  0.60620  0.21660  Biso   1.000  N
  N28      1.0000 0.12200  0.39380  0.71660  Biso   1.000  N
  C77      1.0000 0.69900  0.91510  0.91070  Biso   1.000  C
  C78      1.0000 0.80100  0.08490  0.41070  Biso   1.000  C
  C79      1.0000 0.19900  0.58490  0.08930  Biso   1.000  C
  C80      1.0000 0.30100  0.41510  0.58930  Biso   1.000  C
  C81      1.0000 0.60100  0.99060  0.12570  Biso   1.000  C
  C82      1.0000 0.89900  0.00940  0.62570  Biso   1.000  C
  C83      1.0000 0.10100  0.50940  0.87430  Biso   1.000  C
  C84      1.0000 0.39900  0.49060  0.37430  Biso   1.000  C
  H33      1.0000 0.56400  0.95370  0.12110  Biso   1.000  H
  H34      1.0000 0.93600  0.04630  0.62110  Biso   1.000  H
  H35      1.0000 0.06400  0.54630  0.87890  Biso   1.000  H
  H36      1.0000 0.43600  0.45370  0.37890  Biso   1.000  H
  C85      1.0000 0.09800  0.80530  0.87000  Biso   1.000  C
  C86      1.0000 0.40200  0.19470  0.37000  Biso   1.000  C
  C87      1.0000 0.59800  0.69470  0.13000  Biso   1.000  C
  C88      1.0000 0.90200  0.30530  0.63000  Biso   1.000  C
  H37      1.0000 0.00740  0.81670  0.87790  Biso   1.000  H
  H38      1.0000 0.49260  0.18330  0.37790  Biso   1.000  H
  H39      1.0000 0.50740  0.68330  0.12210  Biso   1.000  H
  H40      1.0000 0.99260  0.31670  0.62210  Biso   1.000  H
  C89      1.0000 0.81500  0.15750  0.86360  Biso   1.000  C
  C90      1.0000 0.68500  0.84250  0.36360  Biso   1.000  C
  C91      1.0000 0.31500  0.34250  0.13640  Biso   1.000  C
  C92      1.0000 0.18500  0.65750  0.63640  Biso   1.000  C
  H41      1.0000 0.89610  0.16330  0.84720  Biso   1.000  H
  H42      1.0000 0.60390  0.83670  0.34720  Biso   1.000  H
  H43      1.0000 0.39610  0.33670  0.15280  Biso   1.000  H
  H44      1.0000 0.10390  0.66330  0.65280  Biso   1.000  H
  C93      1.0000 0.77900  0.85460  0.80110  Biso   1.000  C
  C94      1.0000 0.72100  0.14540  0.30110  Biso   1.000  C
  C95      1.0000 0.27900  0.64540  0.19890  Biso   1.000  C
  C96      1.0000 0.22100  0.35460  0.69890  Biso   1.000  C
  H45      1.0000 0.75540  0.82160  0.78560  Biso   1.000  H
  H46      1.0000 0.74460  0.17840  0.28560  Biso   1.000  H
  H47      1.0000 0.25540  0.67840  0.21440  Biso   1.000  H
  H48      1.0000 0.24460  0.32160  0.71440  Biso   1.000  H
  C97      1.0000 0.25000  0.13950  0.63500  Biso   1.000  C
  C98      1.0000 0.25000  0.86050  0.13500  Biso   1.000  C
  C99      1.0000 0.75000  0.36050  0.36500  Biso   1.000  C
  C100     1.0000 0.75000  0.63950  0.86500  Biso   1.000  C
  H49      1.0000 0.15960  0.15310  0.62840  Biso   1.000  H
  H50      1.0000 0.34040  0.84690  0.12840  Biso   1.000  H
  H51      1.0000 0.65960  0.34690  0.37160  Biso   1.000  H
  H52      1.0000 0.84040  0.65310  0.87160  Biso   1.000  H
  C101     1.0000 0.27100  0.09950  0.80490  Biso   1.000  C
  C102     1.0000 0.22900  0.90050  0.30490  Biso   1.000  C
  C103     1.0000 0.77100  0.40050  0.19510  Biso   1.000  C
  C104     1.0000 0.72900  0.59950  0.69510  Biso   1.000  C
  H53      1.0000 0.21770  0.12230  0.78650  Biso   1.000  H
  H54      1.0000 0.28230  0.87770  0.28650  Biso   1.000  H
  H55      1.0000 0.71770  0.37770  0.21350  Biso   1.000  H
  H56      1.0000 0.78230  0.62230  0.71350  Biso   1.000  H
  C105     1.0000 0.11200  0.76990  0.83510  Biso   1.000  C
  C106     1.0000 0.38800  0.23010  0.33510  Biso   1.000  C
  C107     1.0000 0.61200  0.73010  0.16490  Biso   1.000  C
  C108     1.0000 0.88800  0.26990  0.66490  Biso   1.000  C
  H57      1.0000 0.03080  0.75640  0.82160  Biso   1.000  H
  H58      1.0000 0.46920  0.24360  0.32160  Biso   1.000  H
  H59      1.0000 0.53080  0.74360  0.17840  Biso   1.000  H
  H60      1.0000 0.96920  0.25640  0.67840  Biso   1.000  H
  C109     1.0000 0.27900  0.03690  0.86540  Biso   1.000  C
  C110     1.0000 0.22100  0.96310  0.36540  Biso   1.000  C
  C111     1.0000 0.77900  0.46310  0.13460  Biso   1.000  C
  C112     1.0000 0.72100  0.53690  0.63460  Biso   1.000  C
  C113     1.0000 0.71000  0.09740  0.14760  Biso   1.000  C
  C114     1.0000 0.79000  0.90260  0.64760  Biso   1.000  C
  C115     1.0000 0.21000  0.40260  0.85240  Biso   1.000  C
  C116     1.0000 0.29000  0.59740  0.35240  Biso   1.000  C
  H61      1.0000 0.74830  0.13320  0.15510  Biso   1.000  H
  H62      1.0000 0.75170  0.86680  0.65510  Biso   1.000  H
  H63      1.0000 0.24830  0.36680  0.84490  Biso   1.000  H
  H64      1.0000 0.25170  0.63320  0.34490  Biso   1.000  H
  C117     1.0000 0.42200  0.02820  0.85550  Biso   1.000  C
  C118     1.0000 0.07800  0.97180  0.35550  Biso   1.000  C
  C119     1.0000 0.92200  0.47180  0.14450  Biso   1.000  C
  C120     1.0000 0.57800  0.52820  0.64450  Biso   1.000  C
  H65      1.0000 0.47850  0.00400  0.87230  Biso   1.000  H
  H66      1.0000 0.02150  0.99600  0.37230  Biso   1.000  H
  H67      1.0000 0.97850  0.49600  0.12770  Biso   1.000  H
  H68      1.0000 0.52150  0.50400  0.62770  Biso   1.000  H
  C121     1.0000 0.71700  0.86220  0.83830  Biso   1.000  C
  C122     1.0000 0.78300  0.13780  0.33830  Biso   1.000  C
  C123     1.0000 0.21700  0.63780  0.16170  Biso   1.000  C
  C124     1.0000 0.28300  0.36220  0.66170  Biso   1.000  C
  H69      1.0000 0.64390  0.83740  0.84640  Biso   1.000  H
  H70      1.0000 0.85610  0.16260  0.34640  Biso   1.000  H
  H71      1.0000 0.14390  0.66260  0.15360  Biso   1.000  H
  H72      1.0000 0.35610  0.33740  0.65360  Biso   1.000  H
  C125     1.0000 0.29900  0.14760  0.67590  Biso   1.000  C
  C126     1.0000 0.20100  0.85240  0.17590  Biso   1.000  C
  C127     1.0000 0.79900  0.35240  0.32410  Biso   1.000  C
  C128     1.0000 0.70100  0.64760  0.82410  Biso   1.000  C
  H73      1.0000 0.23690  0.16220  0.69640  Biso   1.000  H
  H74      1.0000 0.26310  0.83780  0.19640  Biso   1.000  H
  H75      1.0000 0.73690  0.33780  0.30360  Biso   1.000  H
  H76      1.0000 0.76310  0.66220  0.80360  Biso   1.000  H
  C129     1.0000 0.35400  0.77010  0.84300  Biso   1.000  C
  C130     1.0000 0.14600  0.22990  0.34300  Biso   1.000  C
  C131     1.0000 0.85400  0.72990  0.15700  Biso   1.000  C
  C132     1.0000 0.64600  0.27010  0.65700  Biso   1.000  C
  H77      1.0000 0.44320  0.75910  0.83340  Biso   1.000  H
  H78      1.0000 0.05680  0.24090  0.33340  Biso   1.000  H
  H79      1.0000 0.94320  0.74090  0.16660  Biso   1.000  H
  H80      1.0000 0.55680  0.25910  0.66660  Biso   1.000  H
  C133     1.0000 0.48000  0.05680  0.81970  Biso   1.000  C
  C134     1.0000 0.02000  0.94320  0.31970  Biso   1.000  C
  C135     1.0000 0.98000  0.44320  0.18030  Biso   1.000  C
  C136     1.0000 0.52000  0.55680  0.68030  Biso   1.000  C
  H81      1.0000 0.57410  0.04820  0.81290  Biso   1.000  H
  H82      1.0000 0.92590  0.95180  0.31290  Biso   1.000  H
  H83      1.0000 0.07410  0.45180  0.18710  Biso   1.000  H
  H84      1.0000 0.42590  0.54820  0.68710  Biso   1.000  H
  C137     1.0000 0.21900  0.06930  0.24480  Biso   1.000  C
  C138     1.0000 0.28100  0.93070  0.74480  Biso   1.000  C
  C139     1.0000 0.71900  0.43070  0.75520  Biso   1.000  C
  C140     1.0000 0.78100  0.56930  0.25520  Biso   1.000  C
  C141     1.0000 0.75500  0.07040  0.10930  Biso   1.000  C
  C142     1.0000 0.74500  0.92960  0.60930  Biso   1.000  C
  C143     1.0000 0.25500  0.42960  0.89070  Biso   1.000  C
  C144     1.0000 0.24500  0.57040  0.39070  Biso   1.000  C
  H85      1.0000 0.82270  0.08850  0.09230  Biso   1.000  H
  H86      1.0000 0.67730  0.91150  0.59230  Biso   1.000  H
  H87      1.0000 0.32270  0.41150  0.90770  Biso   1.000  H
  H88      1.0000 0.17730  0.58850  0.40770  Biso   1.000  H
  C145     1.0000 0.91800  0.78130  0.02830  Biso   1.000  C
  C146     1.0000 0.58200  0.21870  0.52830  Biso   1.000  C
  C147     1.0000 0.41800  0.71870  0.97170  Biso   1.000  C
  C148     1.0000 0.08200  0.28130  0.47170  Biso   1.000  C
  H89      1.0000 0.92330  0.80660  0.05260  Biso   1.000  H
  H90      1.0000 0.57670  0.19340  0.55260  Biso   1.000  H
  H91      1.0000 0.42330  0.69340  0.94740  Biso   1.000  H
  H92      1.0000 0.07670  0.30660  0.44740  Biso   1.000  H
  H93      1.0000 0.00200  0.78570  0.01140  Biso   1.000  H
  H94      1.0000 0.49800  0.21430  0.51140  Biso   1.000  H
  H95      1.0000 0.50200  0.71430  0.98860  Biso   1.000  H
  H96      1.0000 0.99800  0.28570  0.48860  Biso   1.000  H
  H97      1.0000 0.91020  0.74180  0.03780  Biso   1.000  H
  H98      1.0000 0.58980  0.25820  0.53780  Biso   1.000  H
  H99      1.0000 0.41020  0.75820  0.96220  Biso   1.000  H
  H100     1.0000 0.08980  0.24180  0.46220  Biso   1.000  H
  C149     1.0000 0.19000  0.10470  0.28660  Biso   1.000  C
  C150     1.0000 0.31000  0.89530  0.78660  Biso   1.000  C
  C151     1.0000 0.69000  0.39530  0.71340  Biso   1.000  C
  C152     1.0000 0.81000  0.60470  0.21340  Biso   1.000  C
  H101     1.0000 0.15140  0.07940  0.30800  Biso   1.000  H
  H102     1.0000 0.34860  0.92060  0.80800  Biso   1.000  H
  H103     1.0000 0.65140  0.42060  0.69200  Biso   1.000  H
  H104     1.0000 0.84860  0.57940  0.19200  Biso   1.000  H
  H105     1.0000 0.12420  0.13540  0.28080  Biso   1.000  H
  H106     1.0000 0.37580  0.86460  0.78080  Biso   1.000  H
  H107     1.0000 0.62420  0.36460  0.71920  Biso   1.000  H
  H108     1.0000 0.87580  0.63540  0.21920  Biso   1.000  H
  H109     1.0000 0.27790  0.12100  0.29670  Biso   1.000  H
  H110     1.0000 0.22210  0.87900  0.79670  Biso   1.000  H
  H111     1.0000 0.77790  0.37900  0.70330  Biso   1.000  H
  H112     1.0000 0.72210  0.62100  0.20330  Biso   1.000  H
  C153     1.0000 0.46900  0.09790  0.61380  Biso   1.000  C
  C154     1.0000 0.03100  0.90210  0.11380  Biso   1.000  C
  C155     1.0000 0.96900  0.40210  0.38620  Biso   1.000  C
  C156     1.0000 0.53100  0.59790  0.88620  Biso   1.000  C
  H113     1.0000 0.52820  0.08000  0.59400  Biso   1.000  H
  H114     1.0000 0.97180  0.92000  0.09400  Biso   1.000  H
  H115     1.0000 0.02820  0.42000  0.40600  Biso   1.000  H
  H116     1.0000 0.47180  0.58000  0.90600  Biso   1.000  H
  C157     1.0000 0.10000  0.16100  0.10950  Biso   1.000  C
  C158     1.0000 0.40000  0.83900  0.60950  Biso   1.000  C
  C159     1.0000 0.60000  0.33900  0.89050  Biso   1.000  C
  C160     1.0000 0.90000  0.66100  0.39050  Biso   1.000  C
  H117     1.0000 0.01490  0.17720  0.11830  Biso   1.000  H
  H118     1.0000 0.48510  0.82280  0.61830  Biso   1.000  H
  H119     1.0000 0.51490  0.32280  0.88170  Biso   1.000  H
  H120     1.0000 0.98510  0.67720  0.38170  Biso   1.000  H
  N29      1.0000 0.78700  0.79710  0.00150  Biso   1.000  N
  N30      1.0000 0.71300  0.20290  0.50150  Biso   1.000  N
  N31      1.0000 0.28700  0.70290  0.99850  Biso   1.000  N
  N32      1.0000 0.21300  0.29710  0.49850  Biso   1.000  N
  C161     1.0000 0.69700  0.83280  0.06990  Biso   1.000  C
  C162     1.0000 0.80300  0.16720  0.56990  Biso   1.000  C
  C163     1.0000 0.19700  0.66720  0.93010  Biso   1.000  C
  C164     1.0000 0.30300  0.33280  0.43010  Biso   1.000  C
  H121     1.0000 0.77450  0.85800  0.07690  Biso   1.000  H
  H122     1.0000 0.72550  0.14200  0.57690  Biso   1.000  H
  H123     1.0000 0.27450  0.64200  0.92310  Biso   1.000  H
  H124     1.0000 0.22550  0.35800  0.42310  Biso   1.000  H
  H125     1.0000 0.71290  0.79510  0.08220  Biso   1.000  H
  H126     1.0000 0.78710  0.20490  0.58220  Biso   1.000  H
  H127     1.0000 0.21290  0.70490  0.91780  Biso   1.000  H
  H128     1.0000 0.28710  0.29510  0.41780  Biso   1.000  H
  H129     1.0000 0.61020  0.84870  0.08120  Biso   1.000  H
  H130     1.0000 0.88980  0.15130  0.58120  Biso   1.000  H
  H131     1.0000 0.11020  0.65130  0.91880  Biso   1.000  H
  H132     1.0000 0.38980  0.34870  0.41880  Biso   1.000  H
  N33      1.0000 0.10600  0.05270  0.21960  Biso   1.000  N
  N34      1.0000 0.39400  0.94730  0.71960  Biso   1.000  N
  N35      1.0000 0.60600  0.44730  0.78040  Biso   1.000  N
  N36      1.0000 0.89400  0.55270  0.28040  Biso   1.000  N
  C165     1.0000 0.78600  0.78250  0.95680  Biso   1.000  C
  C166     1.0000 0.71400  0.21750  0.45680  Biso   1.000  C
  C167     1.0000 0.28600  0.71750  0.04320  Biso   1.000  C
  C168     1.0000 0.21400  0.28250  0.54320  Biso   1.000  C
  H133     1.0000 0.69070  0.78280  0.94630  Biso   1.000  H
  H134     1.0000 0.80930  0.21720  0.44630  Biso   1.000  H
  H135     1.0000 0.19070  0.71720  0.05370  Biso   1.000  H
  H136     1.0000 0.30930  0.28280  0.55370  Biso   1.000  H
  H137     1.0000 0.82650  0.74450  0.95300  Biso   1.000  H
  H138     1.0000 0.67350  0.25550  0.45300  Biso   1.000  H
  H139     1.0000 0.32650  0.75550  0.04700  Biso   1.000  H
  H140     1.0000 0.17350  0.24450  0.54700  Biso   1.000  H
  H141     1.0000 0.84190  0.81050  0.94140  Biso   1.000  H
  H142     1.0000 0.65810  0.18950  0.44140  Biso   1.000  H
  H143     1.0000 0.34190  0.68950  0.05860  Biso   1.000  H
  H144     1.0000 0.15810  0.31050  0.55860  Biso   1.000  H
  C169     1.0000 0.32500  0.11320  0.60350  Biso   1.000  C
  C170     1.0000 0.17500  0.88680  0.10350  Biso   1.000  C
  C171     1.0000 0.82500  0.38680  0.39650  Biso   1.000  C
  C172     1.0000 0.67500  0.61320  0.89650  Biso   1.000  C
  C173     1.0000 0.95600  0.05900  0.23800  Biso   1.000  C
  C174     1.0000 0.54400  0.94100  0.73800  Biso   1.000  C
  C175     1.0000 0.45600  0.44100  0.76200  Biso   1.000  C
  C176     1.0000 0.04400  0.55900  0.26200  Biso   1.000  C
  H145     1.0000 0.91220  0.02180  0.24020  Biso   1.000  H
  H146     1.0000 0.58780  0.97820  0.74020  Biso   1.000  H
  H147     1.0000 0.41220  0.47820  0.75980  Biso   1.000  H
  H148     1.0000 0.08780  0.52180  0.25980  Biso   1.000  H
  H149     1.0000 0.90060  0.08370  0.21950  Biso   1.000  H
  H150     1.0000 0.59940  0.91630  0.71950  Biso   1.000  H
  H151     1.0000 0.40060  0.41630  0.78050  Biso   1.000  H
  H152     1.0000 0.09940  0.58370  0.28050  Biso   1.000  H
  H153     1.0000 0.96160  0.07670  0.26570  Biso   1.000  H
  H154     1.0000 0.53840  0.92330  0.76570  Biso   1.000  H
  H155     1.0000 0.46160  0.42330  0.73430  Biso   1.000  H
  H156     1.0000 0.03840  0.57670  0.23430  Biso   1.000  H
  C177     1.0000 0.56400  0.02400  0.16230  Biso   1.000  C
  C178     1.0000 0.93600  0.97600  0.66230  Biso   1.000  C
  C179     1.0000 0.06400  0.47600  0.83770  Biso   1.000  C
  C180     1.0000 0.43600  0.52400  0.33770  Biso   1.000  C
  H157     1.0000 0.49550  0.00790  0.18020  Biso   1.000  H
  H158     1.0000 0.00450  0.99210  0.68020  Biso   1.000  H
  H159     1.0000 0.99550  0.49210  0.81980  Biso   1.000  H
  H160     1.0000 0.50450  0.50790  0.31980  Biso   1.000  H
  C181     1.0000 0.82100  0.11490  0.89410  Biso   1.000  C
  C182     1.0000 0.67900  0.88510  0.39410  Biso   1.000  C
  C183     1.0000 0.32100  0.38510  0.10590  Biso   1.000  C
  C184     1.0000 0.17900  0.61490  0.60590  Biso   1.000  C
  H161     1.0000 0.90620  0.09560  0.89950  Biso   1.000  H
  H162     1.0000 0.59380  0.90440  0.39950  Biso   1.000  H
  H163     1.0000 0.40620  0.40440  0.10050  Biso   1.000  H
  H164     1.0000 0.09380  0.59560  0.60050  Biso   1.000  H
  C185     1.0000 0.12500  0.02500  0.18200  Biso   1.000  C
  C186     1.0000 0.37500  0.97500  0.68200  Biso   1.000  C
  C187     1.0000 0.62500  0.47500  0.81800  Biso   1.000  C
  C188     1.0000 0.87500  0.52500  0.31800  Biso   1.000  C
  H165     1.0000 0.22230  0.01250  0.17980  Biso   1.000  H
  H166     1.0000 0.27770  0.98750  0.67980  Biso   1.000  H
  H167     1.0000 0.72230  0.48750  0.82020  Biso   1.000  H
  H168     1.0000 0.77770  0.51250  0.32020  Biso   1.000  H
  H169     1.0000 0.10310  0.05070  0.15900  Biso   1.000  H
  H170     1.0000 0.39690  0.94930  0.65900  Biso   1.000  H
  H171     1.0000 0.60310  0.44930  0.84100  Biso   1.000  H
  H172     1.0000 0.89690  0.55070  0.34100  Biso   1.000  H
  H173     1.0000 0.06400  0.99150  0.18070  Biso   1.000  H
  H174     1.0000 0.43600  0.00850  0.68070  Biso   1.000  H
  H175     1.0000 0.56400  0.50850  0.81930  Biso   1.000  H
  H176     1.0000 0.93600  0.49150  0.31930  Biso   1.000  H
  C189     1.0000 0.23700  0.09390  0.06360  Biso   1.000  C
  C190     1.0000 0.26300  0.90610  0.56360  Biso   1.000  C
  C191     1.0000 0.73700  0.40610  0.93640  Biso   1.000  C
  C192     1.0000 0.76300  0.59390  0.43640  Biso   1.000  C
  C193     1.0000 0.09800  0.12590  0.07170  Biso   1.000  C
  C194     1.0000 0.40200  0.87410  0.57170  Biso   1.000  C
  C195     1.0000 0.59800  0.37410  0.92830  Biso   1.000  C
  C196     1.0000 0.90200  0.62590  0.42830  Biso   1.000  C
  H177     1.0000 0.01950  0.12300  0.05390  Biso   1.000  H
  H178     1.0000 0.48050  0.87700  0.55390  Biso   1.000  H
  H179     1.0000 0.51950  0.37700  0.94610  Biso   1.000  H
  H180     1.0000 0.98050  0.62300  0.44610  Biso   1.000  H
  C197     1.0000 0.35200  0.10900  0.08830  Biso   1.000  C
  C198     1.0000 0.14800  0.89100  0.58830  Biso   1.000  C
  C199     1.0000 0.85200  0.39100  0.91170  Biso   1.000  C
  C200     1.0000 0.64800  0.60900  0.41170  Biso   1.000  C
  H181     1.0000 0.44080  0.09390  0.08150  Biso   1.000  H
  H182     1.0000 0.05920  0.90610  0.58150  Biso   1.000  H
  H183     1.0000 0.94080  0.40610  0.91850  Biso   1.000  H
  H184     1.0000 0.55920  0.59390  0.41850  Biso   1.000  H
  O65      1.0000 0.81400  0.20900  0.07440  Biso   1.000  O
  O66      1.0000 0.68600  0.79100  0.57440  Biso   1.000  O
  O67      1.0000 0.31400  0.29100  0.92560  Biso   1.000  O
  O68      1.0000 0.18600  0.70900  0.42560  Biso   1.000  O
  C201     1.0000 0.71300  0.25500  0.06800  Biso   1.000  C
  C202     1.0000 0.78700  0.74500  0.56800  Biso   1.000  C
  C203     1.0000 0.21300  0.24500  0.93200  Biso   1.000  C
  C204     1.0000 0.28700  0.75500  0.43200  Biso   1.000  C
  C205     1.0000 0.61500  0.17900  0.01230  Biso   1.000  C
  C206     1.0000 0.88500  0.82100  0.51230  Biso   1.000  C
  C207     1.0000 0.11500  0.32100  0.98770  Biso   1.000  C
  C208     1.0000 0.38500  0.67900  0.48770  Biso   1.000  C
  H185     1.0000 0.70660  0.16100  0.01410  Biso   1.000  H
  H186     1.0000 0.79340  0.83900  0.51410  Biso   1.000  H
  H187     1.0000 0.20660  0.33900  0.98590  Biso   1.000  H
  H188     1.0000 0.29340  0.66100  0.48590  Biso   1.000  H
  H189     1.0000 0.59810  0.19170  0.98370  Biso   1.000  H
  H190     1.0000 0.90190  0.80830  0.48370  Biso   1.000  H
  H191     1.0000 0.09810  0.30830  0.01630  Biso   1.000  H
  H192     1.0000 0.40190  0.69170  0.51630  Biso   1.000  H
  H193     1.0000 0.54320  0.15090  0.02010  Biso   1.000  H
  H194     1.0000 0.95680  0.84910  0.52010  Biso   1.000  H
  H195     1.0000 0.04320  0.34910  0.97990  Biso   1.000  H
  H196     1.0000 0.45680  0.65090  0.47990  Biso   1.000  H
  C209     1.0000 0.49600  0.27100  0.03410  Biso   1.000  C
  C210     1.0000 0.00400  0.72900  0.53410  Biso   1.000  C
  C211     1.0000 0.99600  0.22900  0.96590  Biso   1.000  C
  C212     1.0000 0.50400  0.77100  0.46590  Biso   1.000  C
  H197     1.0000 0.53410  0.30480  0.02080  Biso   1.000  H
  H198     1.0000 0.96590  0.69520  0.52080  Biso   1.000  H
  H199     1.0000 0.03410  0.19520  0.97920  Biso   1.000  H
  H200     1.0000 0.46590  0.80480  0.47920  Biso   1.000  H
  H201     1.0000 0.45520  0.28060  0.06110  Biso   1.000  H
  H202     1.0000 0.04480  0.71940  0.56110  Biso   1.000  H
  H203     1.0000 0.95520  0.21940  0.93890  Biso   1.000  H
  H204     1.0000 0.54480  0.78060  0.43890  Biso   1.000  H
  H205     1.0000 0.42470  0.25380  0.01610  Biso   1.000  H
  H206     1.0000 0.07530  0.74620  0.51610  Biso   1.000  H
  H207     1.0000 0.92470  0.24620  0.98390  Biso   1.000  H
  H208     1.0000 0.57530  0.75380  0.48390  Biso   1.000  H
  N37      1.0000 0.60800  0.22800  0.04130  Biso   1.000  N
  N38      1.0000 0.89200  0.77200  0.54130  Biso   1.000  N
  N39      1.0000 0.10800  0.27200  0.95870  Biso   1.000  N
  N40      1.0000 0.39200  0.72800  0.45870  Biso   1.000  N
  C213     1.0000 0.69400  0.30600  0.09510  Biso   1.000  C
  C214     1.0000 0.80600  0.69400  0.59510  Biso   1.000  C
  C215     1.0000 0.19400  0.19400  0.90490  Biso   1.000  C
  C216     1.0000 0.30600  0.80600  0.40490  Biso   1.000  C
  H209     1.0000 0.60110  0.32180  0.09050  Biso   1.000  H
  H210     1.0000 0.89890  0.67820  0.59050  Biso   1.000  H
  H211     1.0000 0.10110  0.17820  0.90950  Biso   1.000  H
  H212     1.0000 0.39890  0.82180  0.40950  Biso   1.000  H
  H213     1.0000 0.76440  0.33410  0.08700  Biso   1.000  H
  H214     1.0000 0.73560  0.66590  0.58700  Biso   1.000  H
  H215     1.0000 0.26440  0.16590  0.91300  Biso   1.000  H
  H216     1.0000 0.23560  0.83410  0.41300  Biso   1.000  H
  H217     1.0000 0.70550  0.29660  0.12470  Biso   1.000  H
  H218     1.0000 0.79450  0.70340  0.62470  Biso   1.000  H
  H219     1.0000 0.20550  0.20340  0.87530  Biso   1.000  H
  H220     1.0000 0.29450  0.79660  0.37530  Biso   1.000  H
