data_image0
_cell_length_a       9.266
_cell_length_b       23.183
_cell_length_c       30.57
_cell_angle_alpha    90
_cell_angle_beta     90
_cell_angle_gamma    90

_symmetry_space_group_name_H-M    "P 1"
_symmetry_int_tables_number       1

loop_
  _symmetry_equiv_pos_as_xyz
  'x, y, z'

loop_
  _atom_site_label
  _atom_site_occupancy
  _atom_site_fract_x
  _atom_site_fract_y
  _atom_site_fract_z
  _atom_site_thermal_displace_type
  _atom_site_B_iso_or_equiv
  _atom_site_type_symbol
  Yb1      1.0000 0.01223  0.53491  0.52179  Biso   1.000  Yb
  Yb2      1.0000 0.48777  0.46509  0.02179  Biso   1.000  Yb
  Yb3      1.0000 0.51223  0.96509  0.47821  Biso   1.000  Yb
  Yb4      1.0000 0.98777  0.03491  0.97821  Biso   1.000  Yb
  Yb5      1.0000 0.54248  0.56058  0.51560  Biso   1.000  Yb
  Yb6      1.0000 0.95752  0.43942  0.01560  Biso   1.000  Yb
  Yb7      1.0000 0.04248  0.93942  0.48440  Biso   1.000  Yb
  Yb8      1.0000 0.45752  0.06058  0.98440  Biso   1.000  Yb
  I1       1.0000 0.21060  0.39174  0.75100  Biso   1.000  I
  I2       1.0000 0.28940  0.60826  0.25100  Biso   1.000  I
  I3       1.0000 0.71060  0.10826  0.24900  Biso   1.000  I
  I4       1.0000 0.78940  0.89174  0.74900  Biso   1.000  I
  I5       1.0000 0.02191  0.22966  0.71415  Biso   1.000  I
  I6       1.0000 0.47809  0.77034  0.21415  Biso   1.000  I
  I7       1.0000 0.52191  0.27034  0.28585  Biso   1.000  I
  I8       1.0000 0.97809  0.72966  0.78585  Biso   1.000  I
  I9       1.0000 0.51372  0.24446  0.72432  Biso   1.000  I
  I10      1.0000 0.98628  0.75554  0.22432  Biso   1.000  I
  I11      1.0000 0.01372  0.25554  0.27568  Biso   1.000  I
  I12      1.0000 0.48628  0.74446  0.77568  Biso   1.000  I
  Cu1      1.0000 0.95520  0.11952  0.72228  Biso   1.000  Cu
  Cu2      1.0000 0.54480  0.88048  0.22228  Biso   1.000  Cu
  Cu3      1.0000 0.45520  0.38048  0.27772  Biso   1.000  Cu
  Cu4      1.0000 0.04480  0.61952  0.77772  Biso   1.000  Cu
  Cu5      1.0000 0.27980  0.23477  0.67590  Biso   1.000  Cu
  Cu6      1.0000 0.22020  0.76523  0.17590  Biso   1.000  Cu
  Cu7      1.0000 0.77980  0.26523  0.32410  Biso   1.000  Cu
  Cu8      1.0000 0.72020  0.73477  0.82410  Biso   1.000  Cu
  Cu9      1.0000 0.49430  0.35665  0.74929  Biso   1.000  Cu
  Cu10     1.0000 0.00570  0.64335  0.24929  Biso   1.000  Cu
  Cu11     1.0000 0.99430  0.14335  0.25071  Biso   1.000  Cu
  Cu12     1.0000 0.50570  0.85665  0.75071  Biso   1.000  Cu
  Cu13     1.0000 0.25580  0.28189  0.75709  Biso   1.000  Cu
  Cu14     1.0000 0.24420  0.71811  0.25709  Biso   1.000  Cu
  Cu15     1.0000 0.75580  0.21811  0.24291  Biso   1.000  Cu
  Cu16     1.0000 0.74420  0.78189  0.74291  Biso   1.000  Cu
  O1       1.0000 0.42420  0.65240  0.50470  Biso   1.000  O
  O2       1.0000 0.07580  0.34760  0.00470  Biso   1.000  O
  O3       1.0000 0.92420  0.84760  0.49530  Biso   1.000  O
  O4       1.0000 0.57580  0.15240  0.99530  Biso   1.000  O
  C1       1.0000 0.91000  0.69200  0.63060  Biso   1.000  C
  C2       1.0000 0.59000  0.30800  0.13060  Biso   1.000  C
  C3       1.0000 0.41000  0.80800  0.36940  Biso   1.000  C
  C4       1.0000 0.09000  0.19200  0.86940  Biso   1.000  C
  H1       1.0000 0.00130  0.68020  0.62170  Biso   1.000  H
  H2       1.0000 0.49870  0.31980  0.12170  Biso   1.000  H
  H3       1.0000 0.50130  0.81980  0.37830  Biso   1.000  H
  H4       1.0000 0.99870  0.18020  0.87830  Biso   1.000  H
  O5       1.0000 0.37300  0.54600  0.46320  Biso   1.000  O
  O6       1.0000 0.12700  0.45400  0.96320  Biso   1.000  O
  O7       1.0000 0.87300  0.95400  0.53680  Biso   1.000  O
  O8       1.0000 0.62700  0.04600  0.03680  Biso   1.000  O
  O9       1.0000 0.17620  0.46200  0.53090  Biso   1.000  O
  O10      1.0000 0.32380  0.53800  0.03090  Biso   1.000  O
  O11      1.0000 0.67620  0.03800  0.46910  Biso   1.000  O
  O12      1.0000 0.82380  0.96200  0.96910  Biso   1.000  O
  O13      1.0000 0.92570  0.61460  0.56110  Biso   1.000  O
  O14      1.0000 0.57430  0.38540  0.06110  Biso   1.000  O
  O15      1.0000 0.42570  0.88540  0.43890  Biso   1.000  O
  O16      1.0000 0.07430  0.11460  0.93890  Biso   1.000  O
  O17      1.0000 0.69290  0.63280  0.54420  Biso   1.000  O
  O18      1.0000 0.80710  0.36720  0.04420  Biso   1.000  O
  O19      1.0000 0.19290  0.86720  0.45580  Biso   1.000  O
  O20      1.0000 0.30710  0.13280  0.95580  Biso   1.000  O
  O21      1.0000 0.14030  0.52510  0.45560  Biso   1.000  O
  O22      1.0000 0.35970  0.47490  0.95560  Biso   1.000  O
  O23      1.0000 0.64030  0.97490  0.54440  Biso   1.000  O
  O24      1.0000 0.85970  0.02510  0.04440  Biso   1.000  O
  N1       1.0000 0.38120  0.42520  0.32970  Biso   1.000  N
  N2       1.0000 0.11880  0.57480  0.82970  Biso   1.000  N
  N3       1.0000 0.88120  0.07480  0.67030  Biso   1.000  N
  N4       1.0000 0.61880  0.92520  0.17030  Biso   1.000  N
  C5       1.0000 0.23960  0.59040  0.63390  Biso   1.000  C
  C6       1.0000 0.26040  0.40960  0.13390  Biso   1.000  C
  C7       1.0000 0.73960  0.90960  0.36610  Biso   1.000  C
  C8       1.0000 0.76040  0.09040  0.86610  Biso   1.000  C
  O25      1.0000 0.43080  0.58550  0.58340  Biso   1.000  O
  O26      1.0000 0.06920  0.41450  0.08340  Biso   1.000  O
  O27      1.0000 0.93080  0.91450  0.41660  Biso   1.000  O
  O28      1.0000 0.56920  0.08550  0.91660  Biso   1.000  O
  O29      1.0000 0.41640  0.47400  0.53930  Biso   1.000  O
  O30      1.0000 0.08360  0.52600  0.03930  Biso   1.000  O
  O31      1.0000 0.91640  0.02600  0.46070  Biso   1.000  O
  O32      1.0000 0.58360  0.97400  0.96070  Biso   1.000  O
  C9       1.0000 0.97970  0.60740  0.38590  Biso   1.000  C
  C10      1.0000 0.52030  0.39260  0.88590  Biso   1.000  C
  C11      1.0000 0.47970  0.89260  0.61410  Biso   1.000  C
  C12      1.0000 0.02030  0.10740  0.11410  Biso   1.000  C
  H5       1.0000 0.04650  0.59360  0.40610  Biso   1.000  H
  H6       1.0000 0.45350  0.40640  0.90610  Biso   1.000  H
  H7       1.0000 0.54650  0.90640  0.59390  Biso   1.000  H
  H8       1.0000 0.95350  0.09360  0.09390  Biso   1.000  H
  N5       1.0000 0.12960  0.60690  0.71850  Biso   1.000  N
  N6       1.0000 0.37040  0.39310  0.21850  Biso   1.000  N
  N7       1.0000 0.62960  0.89310  0.28150  Biso   1.000  N
  N8       1.0000 0.87040  0.10690  0.78150  Biso   1.000  N
  O33      1.0000 0.87660  0.46430  0.49270  Biso   1.000  O
  O34      1.0000 0.62340  0.53570  0.99270  Biso   1.000  O
  O35      1.0000 0.37660  0.03570  0.50730  Biso   1.000  O
  O36      1.0000 0.12340  0.96430  0.00730  Biso   1.000  O
  C13      1.0000 0.79040  0.67650  0.60790  Biso   1.000  C
  C14      1.0000 0.70960  0.32350  0.10790  Biso   1.000  C
  C15      1.0000 0.29040  0.82350  0.39210  Biso   1.000  C
  C16      1.0000 0.20960  0.17650  0.89210  Biso   1.000  C
  N9       1.0000 0.77900  0.33110  0.36740  Biso   1.000  N
  N10      1.0000 0.72100  0.66890  0.86740  Biso   1.000  N
  N11      1.0000 0.27900  0.16890  0.63260  Biso   1.000  N
  N12      1.0000 0.22100  0.83110  0.13260  Biso   1.000  N
  C17      1.0000 0.26990  0.52250  0.44400  Biso   1.000  C
  C18      1.0000 0.23010  0.47750  0.94400  Biso   1.000  C
  C19      1.0000 0.76990  0.97750  0.55600  Biso   1.000  C
  C20      1.0000 0.73010  0.02250  0.05600  Biso   1.000  C
  O37      1.0000 0.64680  0.48380  0.47720  Biso   1.000  O
  O38      1.0000 0.85320  0.51620  0.97720  Biso   1.000  O
  O39      1.0000 0.14680  0.01620  0.52280  Biso   1.000  O
  O40      1.0000 0.35320  0.98380  0.02280  Biso   1.000  O
  O41      1.0000 0.92050  0.48900  0.58660  Biso   1.000  O
  O42      1.0000 0.57950  0.51100  0.08660  Biso   1.000  O
  O43      1.0000 0.42050  0.01100  0.41340  Biso   1.000  O
  O44      1.0000 0.07950  0.98900  0.91340  Biso   1.000  O
  C21      1.0000 0.30300  0.48790  0.40430  Biso   1.000  C
  C22      1.0000 0.19700  0.51210  0.90430  Biso   1.000  C
  C23      1.0000 0.80300  0.01210  0.59570  Biso   1.000  C
  C24      1.0000 0.69700  0.98790  0.09570  Biso   1.000  C
  C25      1.0000 0.76360  0.45790  0.47190  Biso   1.000  C
  C26      1.0000 0.73640  0.54210  0.97190  Biso   1.000  C
  C27      1.0000 0.26360  0.04210  0.52810  Biso   1.000  C
  C28      1.0000 0.23640  0.95790  0.02810  Biso   1.000  C
  O45      1.0000 0.65250  0.60080  0.45130  Biso   1.000  O
  O46      1.0000 0.84750  0.39920  0.95130  Biso   1.000  O
  O47      1.0000 0.15250  0.89920  0.54870  Biso   1.000  O
  O48      1.0000 0.34750  0.10080  0.04870  Biso   1.000  O
  O49      1.0000 0.70220  0.51820  0.56650  Biso   1.000  O
  O50      1.0000 0.79780  0.48180  0.06650  Biso   1.000  O
  O51      1.0000 0.20220  0.98180  0.43350  Biso   1.000  O
  O52      1.0000 0.29780  0.01820  0.93350  Biso   1.000  O
  O53      1.0000 0.20630  0.57360  0.55850  Biso   1.000  O
  O54      1.0000 0.29370  0.42640  0.05850  Biso   1.000  O
  O55      1.0000 0.70630  0.92640  0.44150  Biso   1.000  O
  O56      1.0000 0.79370  0.07360  0.94150  Biso   1.000  O
  C29      1.0000 0.78520  0.59980  0.44340  Biso   1.000  C
  C30      1.0000 0.71480  0.40020  0.94340  Biso   1.000  C
  C31      1.0000 0.28520  0.90020  0.55660  Biso   1.000  C
  C32      1.0000 0.21480  0.09980  0.05660  Biso   1.000  C
  N13      1.0000 0.76390  0.74470  0.68200  Biso   1.000  N
  N14      1.0000 0.73610  0.25530  0.18200  Biso   1.000  N
  N15      1.0000 0.26390  0.75530  0.31800  Biso   1.000  N
  N16      1.0000 0.23610  0.24470  0.81800  Biso   1.000  N
  C33      1.0000 0.80300  0.63800  0.56660  Biso   1.000  C
  C34      1.0000 0.69700  0.36200  0.06660  Biso   1.000  C
  C35      1.0000 0.30300  0.86200  0.43340  Biso   1.000  C
  C36      1.0000 0.19700  0.13800  0.93340  Biso   1.000  C
  C37      1.0000 0.30200  0.39840  0.57630  Biso   1.000  C
  C38      1.0000 0.19800  0.60160  0.07630  Biso   1.000  C
  C39      1.0000 0.80200  0.10160  0.42370  Biso   1.000  C
  C40      1.0000 0.69800  0.89840  0.92370  Biso   1.000  C
  N17      1.0000 0.59460  0.40500  0.70220  Biso   1.000  N
  N18      1.0000 0.90540  0.59500  0.20220  Biso   1.000  N
  N19      1.0000 0.09460  0.09500  0.29780  Biso   1.000  N
  N20      1.0000 0.40540  0.90500  0.79780  Biso   1.000  N
  C41      1.0000 0.52080  0.44030  0.67650  Biso   1.000  C
  C42      1.0000 0.97920  0.55970  0.17650  Biso   1.000  C
  C43      1.0000 0.02080  0.05970  0.32350  Biso   1.000  C
  C44      1.0000 0.47920  0.94030  0.82350  Biso   1.000  C
  H9       1.0000 0.42350  0.44560  0.68280  Biso   1.000  H
  H10      1.0000 0.07650  0.55440  0.18280  Biso   1.000  H
  H11      1.0000 0.92350  0.05440  0.31720  Biso   1.000  H
  H12      1.0000 0.57650  0.94560  0.81720  Biso   1.000  H
  C45      1.0000 0.02010  0.61880  0.34390  Biso   1.000  C
  C46      1.0000 0.47990  0.38120  0.84390  Biso   1.000  C
  C47      1.0000 0.52010  0.88120  0.65610  Biso   1.000  C
  C48      1.0000 0.97990  0.11880  0.15610  Biso   1.000  C
  H13      1.0000 0.11490  0.61080  0.33600  Biso   1.000  H
  H14      1.0000 0.38510  0.38920  0.83600  Biso   1.000  H
  H15      1.0000 0.61490  0.88920  0.66400  Biso   1.000  H
  H16      1.0000 0.88510  0.11080  0.16400  Biso   1.000  H
  C49      1.0000 0.32650  0.67430  0.48220  Biso   1.000  C
  C50      1.0000 0.17350  0.32570  0.98220  Biso   1.000  C
  C51      1.0000 0.82650  0.82570  0.51780  Biso   1.000  C
  C52      1.0000 0.67350  0.17430  0.01780  Biso   1.000  C
  C53      1.0000 0.65570  0.69470  0.62090  Biso   1.000  C
  C54      1.0000 0.84430  0.30530  0.12090  Biso   1.000  C
  C55      1.0000 0.15570  0.80530  0.37910  Biso   1.000  C
  C56      1.0000 0.34430  0.19470  0.87910  Biso   1.000  C
  H17      1.0000 0.57340  0.68470  0.60520  Biso   1.000  H
  H18      1.0000 0.92660  0.31530  0.10520  Biso   1.000  H
  H19      1.0000 0.07340  0.81530  0.39480  Biso   1.000  H
  H20      1.0000 0.42660  0.18470  0.89480  Biso   1.000  H
  C57      1.0000 0.76610  0.41260  0.43590  Biso   1.000  C
  C58      1.0000 0.73390  0.58740  0.93590  Biso   1.000  C
  C59      1.0000 0.26610  0.08740  0.56410  Biso   1.000  C
  C60      1.0000 0.23390  0.91260  0.06410  Biso   1.000  C
  C61      1.0000 0.80130  0.43000  0.65980  Biso   1.000  C
  C62      1.0000 0.69870  0.57000  0.15980  Biso   1.000  C
  C63      1.0000 0.30130  0.07000  0.34020  Biso   1.000  C
  C64      1.0000 0.19870  0.93000  0.84020  Biso   1.000  C
  H21      1.0000 0.90000  0.42600  0.65520  Biso   1.000  H
  H22      1.0000 0.60000  0.57400  0.15520  Biso   1.000  H
  H23      1.0000 0.40000  0.07400  0.34480  Biso   1.000  H
  H24      1.0000 0.10000  0.92600  0.84480  Biso   1.000  H
  O57      1.0000 0.88380  0.58570  0.47020  Biso   1.000  O
  O58      1.0000 0.61620  0.41430  0.97020  Biso   1.000  O
  O59      1.0000 0.38380  0.91430  0.52980  Biso   1.000  O
  O60      1.0000 0.11620  0.08570  0.02980  Biso   1.000  O
  N21      1.0000 0.29380  0.30620  0.63550  Biso   1.000  N
  N22      1.0000 0.20620  0.69380  0.13550  Biso   1.000  N
  N23      1.0000 0.79380  0.19380  0.36450  Biso   1.000  N
  N24      1.0000 0.70620  0.80620  0.86450  Biso   1.000  N
  C65      1.0000 0.64710  0.72990  0.65930  Biso   1.000  C
  C66      1.0000 0.85290  0.27010  0.15930  Biso   1.000  C
  C67      1.0000 0.14710  0.77010  0.34070  Biso   1.000  C
  C68      1.0000 0.35290  0.22990  0.84070  Biso   1.000  C
  H25      1.0000 0.55720  0.74270  0.66870  Biso   1.000  H
  H26      1.0000 0.94280  0.25730  0.16870  Biso   1.000  H
  H27      1.0000 0.05720  0.75730  0.33130  Biso   1.000  H
  H28      1.0000 0.44280  0.24270  0.83130  Biso   1.000  H
  C69      1.0000 0.83620  0.61680  0.39830  Biso   1.000  C
  C70      1.0000 0.66380  0.38320  0.89830  Biso   1.000  C
  C71      1.0000 0.33620  0.88320  0.60170  Biso   1.000  C
  C72      1.0000 0.16380  0.11680  0.10170  Biso   1.000  C
  C73      1.0000 0.64420  0.39530  0.41420  Biso   1.000  C
  C74      1.0000 0.85580  0.60470  0.91420  Biso   1.000  C
  C75      1.0000 0.14420  0.10470  0.58580  Biso   1.000  C
  C76      1.0000 0.35580  0.89530  0.08580  Biso   1.000  C
  H29      1.0000 0.55460  0.40980  0.42230  Biso   1.000  H
  H30      1.0000 0.94540  0.59020  0.92230  Biso   1.000  H
  H31      1.0000 0.05460  0.09020  0.57770  Biso   1.000  H
  H32      1.0000 0.44540  0.90980  0.07770  Biso   1.000  H
  C77      1.0000 0.09090  0.56190  0.69370  Biso   1.000  C
  C78      1.0000 0.40910  0.43810  0.19370  Biso   1.000  C
  C79      1.0000 0.59090  0.93810  0.30630  Biso   1.000  C
  C80      1.0000 0.90910  0.06190  0.80630  Biso   1.000  C
  H33      1.0000 0.02750  0.53510  0.70570  Biso   1.000  H
  H34      1.0000 0.47250  0.46490  0.20570  Biso   1.000  H
  H35      1.0000 0.52750  0.96490  0.29430  Biso   1.000  H
  H36      1.0000 0.97250  0.03510  0.79430  Biso   1.000  H
  N25      1.0000 0.93300  0.64050  0.31370  Biso   1.000  N
  N26      1.0000 0.56700  0.35950  0.81370  Biso   1.000  N
  N27      1.0000 0.43300  0.85950  0.68630  Biso   1.000  N
  N28      1.0000 0.06700  0.14050  0.18630  Biso   1.000  N
  C81      1.0000 0.28300  0.06870  0.74220  Biso   1.000  C
  C82      1.0000 0.21700  0.93130  0.24220  Biso   1.000  C
  C83      1.0000 0.78300  0.43130  0.25780  Biso   1.000  C
  C84      1.0000 0.71700  0.56870  0.75780  Biso   1.000  C
  N29      1.0000 0.22020  0.70540  0.49920  Biso   1.000  N
  N30      1.0000 0.27980  0.29460  0.99920  Biso   1.000  N
  N31      1.0000 0.72020  0.79460  0.50080  Biso   1.000  N
  N32      1.0000 0.77980  0.20540  0.00080  Biso   1.000  N
  C85      1.0000 0.28490  0.63720  0.66020  Biso   1.000  C
  C86      1.0000 0.21510  0.36280  0.16020  Biso   1.000  C
  C87      1.0000 0.78490  0.86280  0.33980  Biso   1.000  C
  C88      1.0000 0.71510  0.13720  0.83980  Biso   1.000  C
  H37      1.0000 0.35470  0.66260  0.64990  Biso   1.000  H
  H38      1.0000 0.14530  0.33740  0.14990  Biso   1.000  H
  H39      1.0000 0.85470  0.83740  0.35010  Biso   1.000  H
  H40      1.0000 0.64530  0.16260  0.85010  Biso   1.000  H
  C89      1.0000 0.17840  0.38750  0.60180  Biso   1.000  C
  C90      1.0000 0.32160  0.61250  0.10180  Biso   1.000  C
  C91      1.0000 0.67840  0.11250  0.39820  Biso   1.000  C
  C92      1.0000 0.82160  0.88750  0.89820  Biso   1.000  C
  H41      1.0000 0.09760  0.41110  0.59980  Biso   1.000  H
  H42      1.0000 0.40240  0.58890  0.09980  Biso   1.000  H
  H43      1.0000 0.59760  0.08890  0.40020  Biso   1.000  H
  H44      1.0000 0.90240  0.91110  0.90020  Biso   1.000  H
  C93      1.0000 0.22580  0.64480  0.70060  Biso   1.000  C
  C94      1.0000 0.27420  0.35520  0.20060  Biso   1.000  C
  C95      1.0000 0.72580  0.85520  0.29940  Biso   1.000  C
  C96      1.0000 0.77420  0.14480  0.79940  Biso   1.000  C
  H45      1.0000 0.25200  0.67720  0.71670  Biso   1.000  H
  H46      1.0000 0.24800  0.32280  0.21670  Biso   1.000  H
  H47      1.0000 0.75200  0.82280  0.28330  Biso   1.000  H
  H48      1.0000 0.74800  0.17720  0.78330  Biso   1.000  H
  C97      1.0000 0.57530  0.46940  0.64190  Biso   1.000  C
  C98      1.0000 0.92470  0.53060  0.14190  Biso   1.000  C
  C99      1.0000 0.07530  0.03060  0.35810  Biso   1.000  C
  C100     1.0000 0.42470  0.96940  0.85810  Biso   1.000  C
  H49      1.0000 0.51610  0.49270  0.62480  Biso   1.000  H
  H50      1.0000 0.98390  0.50730  0.12480  Biso   1.000  H
  H51      1.0000 0.01610  0.00730  0.37520  Biso   1.000  H
  H52      1.0000 0.48390  0.99270  0.87520  Biso   1.000  H
  C101     1.0000 0.41850  0.36290  0.58230  Biso   1.000  C
  C102     1.0000 0.08150  0.63710  0.08230  Biso   1.000  C
  C103     1.0000 0.91850  0.13710  0.41770  Biso   1.000  C
  C104     1.0000 0.58150  0.86290  0.91770  Biso   1.000  C
  H53      1.0000 0.50380  0.36890  0.56690  Biso   1.000  H
  H54      1.0000 0.99620  0.63110  0.06690  Biso   1.000  H
  H55      1.0000 0.00380  0.13110  0.43310  Biso   1.000  H
  H56      1.0000 0.49620  0.86890  0.93310  Biso   1.000  H
  C105     1.0000 0.65480  0.35690  0.38070  Biso   1.000  C
  C106     1.0000 0.84520  0.64310  0.88070  Biso   1.000  C
  C107     1.0000 0.15480  0.14310  0.61930  Biso   1.000  C
  C108     1.0000 0.34520  0.85690  0.11930  Biso   1.000  C
  H57      1.0000 0.57060  0.34750  0.36570  Biso   1.000  H
  H58      1.0000 0.92940  0.65250  0.86570  Biso   1.000  H
  H59      1.0000 0.07060  0.15250  0.63430  Biso   1.000  H
  H60      1.0000 0.42940  0.84750  0.13430  Biso   1.000  H
  C109     1.0000 0.73950  0.40220  0.69400  Biso   1.000  C
  C110     1.0000 0.76050  0.59780  0.19400  Biso   1.000  C
  C111     1.0000 0.23950  0.09780  0.30600  Biso   1.000  C
  C112     1.0000 0.26050  0.90220  0.80600  Biso   1.000  C
  H61      1.0000 0.79770  0.38040  0.71250  Biso   1.000  H
  H62      1.0000 0.70230  0.61960  0.21250  Biso   1.000  H
  H63      1.0000 0.29770  0.11960  0.28750  Biso   1.000  H
  H64      1.0000 0.20230  0.88040  0.78750  Biso   1.000  H
  C113     1.0000 0.29810  0.40140  0.36060  Biso   1.000  C
  C114     1.0000 0.20190  0.59860  0.86060  Biso   1.000  C
  C115     1.0000 0.79810  0.09860  0.63940  Biso   1.000  C
  C116     1.0000 0.70190  0.90140  0.13940  Biso   1.000  C
  H65      1.0000 0.26410  0.36400  0.35690  Biso   1.000  H
  H66      1.0000 0.23590  0.63600  0.85690  Biso   1.000  H
  H67      1.0000 0.76410  0.13600  0.64310  Biso   1.000  H
  H68      1.0000 0.73590  0.86400  0.14310  Biso   1.000  H
  O61      1.0000 0.15470  0.06310  0.72920  Biso   1.000  O
  O62      1.0000 0.34530  0.93690  0.22920  Biso   1.000  O
  O63      1.0000 0.65470  0.43690  0.27080  Biso   1.000  O
  O64      1.0000 0.84530  0.56310  0.77080  Biso   1.000  O
  C117     1.0000 0.89090  0.72680  0.66820  Biso   1.000  C
  C118     1.0000 0.60910  0.27320  0.16820  Biso   1.000  C
  C119     1.0000 0.39090  0.77320  0.33180  Biso   1.000  C
  C120     1.0000 0.10910  0.22680  0.83180  Biso   1.000  C
  H69      1.0000 0.97230  0.73760  0.68400  Biso   1.000  H
  H70      1.0000 0.52770  0.26240  0.18400  Biso   1.000  H
  H71      1.0000 0.47230  0.76240  0.31600  Biso   1.000  H
  H72      1.0000 0.02770  0.23760  0.81600  Biso   1.000  H
  C121     1.0000 0.29680  0.58350  0.58730  Biso   1.000  C
  C122     1.0000 0.20320  0.41650  0.08730  Biso   1.000  C
  C123     1.0000 0.79680  0.91650  0.41270  Biso   1.000  C
  C124     1.0000 0.70320  0.08350  0.91270  Biso   1.000  C
  C125     1.0000 0.26210  0.43180  0.39800  Biso   1.000  C
  C126     1.0000 0.23790  0.56820  0.89800  Biso   1.000  C
  C127     1.0000 0.76210  0.06820  0.60200  Biso   1.000  C
  C128     1.0000 0.73790  0.93180  0.10200  Biso   1.000  C
  H73      1.0000 0.20840  0.41340  0.41960  Biso   1.000  H
  H74      1.0000 0.29160  0.58660  0.91960  Biso   1.000  H
  H75      1.0000 0.70840  0.08660  0.58040  Biso   1.000  H
  H76      1.0000 0.79160  0.91340  0.08040  Biso   1.000  H
  C129     1.0000 0.79750  0.65160  0.32500  Biso   1.000  C
  C130     1.0000 0.70250  0.34840  0.82500  Biso   1.000  C
  C131     1.0000 0.29750  0.84840  0.67500  Biso   1.000  C
  C132     1.0000 0.20250  0.15160  0.17500  Biso   1.000  C
  H77      1.0000 0.73500  0.66730  0.30440  Biso   1.000  H
  H78      1.0000 0.76500  0.33270  0.80440  Biso   1.000  H
  H79      1.0000 0.23500  0.83270  0.69560  Biso   1.000  H
  H80      1.0000 0.26500  0.16730  0.19560  Biso   1.000  H
  N33      1.0000 0.38600  0.04860  0.71960  Biso   1.000  N
  N34      1.0000 0.11400  0.95140  0.21960  Biso   1.000  N
  N35      1.0000 0.88600  0.45140  0.28040  Biso   1.000  N
  N36      1.0000 0.61400  0.54860  0.78040  Biso   1.000  N
  C133     1.0000 0.78440  0.49350  0.59170  Biso   1.000  C
  C134     1.0000 0.71560  0.50650  0.09170  Biso   1.000  C
  C135     1.0000 0.28440  0.00650  0.40830  Biso   1.000  C
  C136     1.0000 0.21560  0.99350  0.90830  Biso   1.000  C
  C137     1.0000 0.72390  0.46380  0.63200  Biso   1.000  C
  C138     1.0000 0.77610  0.53620  0.13200  Biso   1.000  C
  C139     1.0000 0.22390  0.03620  0.36800  Biso   1.000  C
  C140     1.0000 0.27610  0.96380  0.86800  Biso   1.000  C
  C141     1.0000 0.74680  0.64020  0.36710  Biso   1.000  C
  C142     1.0000 0.75320  0.35980  0.86710  Biso   1.000  C
  C143     1.0000 0.24680  0.85980  0.63290  Biso   1.000  C
  C144     1.0000 0.25320  0.14020  0.13290  Biso   1.000  C
  H81      1.0000 0.65140  0.64860  0.37410  Biso   1.000  H
  H82      1.0000 0.84860  0.35140  0.87410  Biso   1.000  H
  H83      1.0000 0.15140  0.85140  0.62590  Biso   1.000  H
  H84      1.0000 0.34860  0.14860  0.12590  Biso   1.000  H
  C145     1.0000 0.30900  0.10460  0.78390  Biso   1.000  C
  C146     1.0000 0.19100  0.89540  0.28390  Biso   1.000  C
  C147     1.0000 0.80900  0.39540  0.21610  Biso   1.000  C
  C148     1.0000 0.69100  0.60460  0.71610  Biso   1.000  C
  H85      1.0000 0.21860  0.11810  0.79510  Biso   1.000  H
  H86      1.0000 0.28140  0.88190  0.29510  Biso   1.000  H
  H87      1.0000 0.71860  0.38190  0.20490  Biso   1.000  H
  H88      1.0000 0.78140  0.61810  0.70490  Biso   1.000  H
  H89      1.0000 0.36970  0.13700  0.77700  Biso   1.000  H
  H90      1.0000 0.13030  0.86300  0.27700  Biso   1.000  H
  H91      1.0000 0.86970  0.36300  0.22300  Biso   1.000  H
  H92      1.0000 0.63030  0.63700  0.72300  Biso   1.000  H
  H93      1.0000 0.35590  0.08110  0.80550  Biso   1.000  H
  H94      1.0000 0.14410  0.91890  0.30550  Biso   1.000  H
  H95      1.0000 0.85590  0.41890  0.19450  Biso   1.000  H
  H96      1.0000 0.64410  0.58110  0.69450  Biso   1.000  H
  C149     1.0000 0.89840  0.38590  0.42540  Biso   1.000  C
  C150     1.0000 0.60160  0.61410  0.92540  Biso   1.000  C
  C151     1.0000 0.39840  0.11410  0.57460  Biso   1.000  C
  C152     1.0000 0.10160  0.88590  0.07460  Biso   1.000  C
  H97      1.0000 0.98250  0.39500  0.44050  Biso   1.000  H
  H98      1.0000 0.51750  0.60500  0.94050  Biso   1.000  H
  H99      1.0000 0.48250  0.10500  0.55950  Biso   1.000  H
  H100     1.0000 0.01750  0.89500  0.05950  Biso   1.000  H
  C153     1.0000 0.89930  0.34540  0.39170  Biso   1.000  C
  C154     1.0000 0.60070  0.65460  0.89170  Biso   1.000  C
  C155     1.0000 0.39930  0.15460  0.60830  Biso   1.000  C
  C156     1.0000 0.10070  0.84540  0.10830  Biso   1.000  C
  H101     1.0000 0.98590  0.32700  0.38520  Biso   1.000  H
  H102     1.0000 0.51410  0.67300  0.88520  Biso   1.000  H
  H103     1.0000 0.48590  0.17300  0.61480  Biso   1.000  H
  H104     1.0000 0.01410  0.82700  0.11480  Biso   1.000  H
  C157     1.0000 0.09170  0.72410  0.47610  Biso   1.000  C
  C158     1.0000 0.40830  0.27590  0.97610  Biso   1.000  C
  C159     1.0000 0.59170  0.77590  0.52390  Biso   1.000  C
  C160     1.0000 0.90830  0.22410  0.02390  Biso   1.000  C
  H105     1.0000 0.09500  0.76520  0.47210  Biso   1.000  H
  H106     1.0000 0.40500  0.23480  0.97210  Biso   1.000  H
  H107     1.0000 0.59500  0.73480  0.52790  Biso   1.000  H
  H108     1.0000 0.90500  0.26520  0.02790  Biso   1.000  H
  H109     1.0000 0.00770  0.71420  0.49290  Biso   1.000  H
  H110     1.0000 0.49230  0.28580  0.99290  Biso   1.000  H
  H111     1.0000 0.50770  0.78580  0.50710  Biso   1.000  H
  H112     1.0000 0.99230  0.21420  0.00710  Biso   1.000  H
  H113     1.0000 0.08730  0.70540  0.44810  Biso   1.000  H
  H114     1.0000 0.41270  0.29460  0.94810  Biso   1.000  H
  H115     1.0000 0.58730  0.79460  0.55190  Biso   1.000  H
  H116     1.0000 0.91270  0.20540  0.05190  Biso   1.000  H
  C161     1.0000 0.42100  0.48040  0.33470  Biso   1.000  C
  C162     1.0000 0.07900  0.51960  0.83470  Biso   1.000  C
  C163     1.0000 0.92100  0.01960  0.66530  Biso   1.000  C
  C164     1.0000 0.57900  0.98040  0.16530  Biso   1.000  C
  H117     1.0000 0.47380  0.49810  0.31250  Biso   1.000  H
  H118     1.0000 0.02620  0.50190  0.81250  Biso   1.000  H
  H119     1.0000 0.97380  0.00190  0.68750  Biso   1.000  H
  H120     1.0000 0.52620  0.99810  0.18750  Biso   1.000  H
  C165     1.0000 0.29730  0.44980  0.54650  Biso   1.000  C
  C166     1.0000 0.20270  0.55020  0.04650  Biso   1.000  C
  C167     1.0000 0.79730  0.05020  0.45350  Biso   1.000  C
  C168     1.0000 0.70270  0.94980  0.95350  Biso   1.000  C
  C169     1.0000 0.40650  0.31800  0.61170  Biso   1.000  C
  C170     1.0000 0.09350  0.68200  0.11170  Biso   1.000  C
  C171     1.0000 0.90650  0.18200  0.38830  Biso   1.000  C
  C172     1.0000 0.59350  0.81800  0.88830  Biso   1.000  C
  H121     1.0000 0.48620  0.29400  0.61490  Biso   1.000  H
  H122     1.0000 0.01380  0.70600  0.11490  Biso   1.000  H
  H123     1.0000 0.98620  0.20600  0.38510  Biso   1.000  H
  H124     1.0000 0.51380  0.79400  0.88510  Biso   1.000  H
  C173     1.0000 0.13850  0.55300  0.65210  Biso   1.000  C
  C174     1.0000 0.36150  0.44700  0.15210  Biso   1.000  C
  C175     1.0000 0.63850  0.94700  0.34790  Biso   1.000  C
  C176     1.0000 0.86150  0.05300  0.84790  Biso   1.000  C
  H125     1.0000 0.10350  0.52210  0.63590  Biso   1.000  H
  H126     1.0000 0.39650  0.47790  0.13590  Biso   1.000  H
  H127     1.0000 0.60350  0.97790  0.36410  Biso   1.000  H
  H128     1.0000 0.89650  0.02210  0.86410  Biso   1.000  H
  C177     1.0000 0.22500  0.71860  0.54630  Biso   1.000  C
  C178     1.0000 0.27500  0.28140  0.04630  Biso   1.000  C
  C179     1.0000 0.72500  0.78140  0.45370  Biso   1.000  C
  C180     1.0000 0.77500  0.21860  0.95370  Biso   1.000  C
  H129     1.0000 0.14890  0.69850  0.56100  Biso   1.000  H
  H130     1.0000 0.35110  0.30150  0.06100  Biso   1.000  H
  H131     1.0000 0.64890  0.80150  0.43900  Biso   1.000  H
  H132     1.0000 0.85110  0.19850  0.93900  Biso   1.000  H
  H133     1.0000 0.21410  0.75930  0.55060  Biso   1.000  H
  H134     1.0000 0.28590  0.24070  0.05060  Biso   1.000  H
  H135     1.0000 0.71410  0.74070  0.44940  Biso   1.000  H
  H136     1.0000 0.78590  0.25930  0.94940  Biso   1.000  H
  H137     1.0000 0.31660  0.70650  0.55810  Biso   1.000  H
  H138     1.0000 0.18340  0.29350  0.05810  Biso   1.000  H
  H139     1.0000 0.81660  0.79350  0.44190  Biso   1.000  H
  H140     1.0000 0.68340  0.20650  0.94190  Biso   1.000  H
  C181     1.0000 0.18030  0.34090  0.63000  Biso   1.000  C
  C182     1.0000 0.31970  0.65910  0.13000  Biso   1.000  C
  C183     1.0000 0.68030  0.15910  0.37000  Biso   1.000  C
  C184     1.0000 0.81970  0.84090  0.87000  Biso   1.000  C
  H141     1.0000 0.09740  0.33330  0.64620  Biso   1.000  H
  H142     1.0000 0.40260  0.66670  0.14620  Biso   1.000  H
  H143     1.0000 0.59740  0.16670  0.35380  Biso   1.000  H
  H144     1.0000 0.90260  0.83330  0.85380  Biso   1.000  H
  C185     1.0000 0.38700  0.51180  0.37160  Biso   1.000  C
  C186     1.0000 0.11300  0.48820  0.87160  Biso   1.000  C
  C187     1.0000 0.88700  0.98820  0.62840  Biso   1.000  C
  C188     1.0000 0.61300  0.01180  0.12840  Biso   1.000  C
  H145     1.0000 0.42110  0.54940  0.37450  Biso   1.000  H
  H146     1.0000 0.07890  0.45060  0.87450  Biso   1.000  H
  H147     1.0000 0.92110  0.95060  0.62550  Biso   1.000  H
  H148     1.0000 0.57890  0.04940  0.12550  Biso   1.000  H
  C189     1.0000 0.32800  0.66780  0.43220  Biso   1.000  C
  C190     1.0000 0.17200  0.33220  0.93220  Biso   1.000  C
  C191     1.0000 0.82800  0.83220  0.56780  Biso   1.000  C
  C192     1.0000 0.67200  0.16780  0.06780  Biso   1.000  C
  H149     1.0000 0.41640  0.65000  0.42320  Biso   1.000  H
  H150     1.0000 0.08360  0.35000  0.92320  Biso   1.000  H
  H151     1.0000 0.91640  0.85000  0.57680  Biso   1.000  H
  H152     1.0000 0.58360  0.15000  0.07680  Biso   1.000  H
  H153     1.0000 0.31960  0.70510  0.41890  Biso   1.000  H
  H154     1.0000 0.18040  0.29490  0.91890  Biso   1.000  H
  H155     1.0000 0.81960  0.79490  0.58110  Biso   1.000  H
  H156     1.0000 0.68040  0.20510  0.08110  Biso   1.000  H
  H157     1.0000 0.24790  0.64410  0.42330  Biso   1.000  H
  H158     1.0000 0.25210  0.35590  0.92330  Biso   1.000  H
  H159     1.0000 0.74790  0.85590  0.57670  Biso   1.000  H
  H160     1.0000 0.75210  0.14410  0.07670  Biso   1.000  H
  C193     1.0000 0.53800  0.05280  0.73470  Biso   1.000  C
  C194     1.0000 0.96200  0.94720  0.23470  Biso   1.000  C
  C195     1.0000 0.03800  0.44720  0.26530  Biso   1.000  C
  C196     1.0000 0.46200  0.55280  0.76530  Biso   1.000  C
  H161     1.0000 0.56460  0.09270  0.73760  Biso   1.000  H
  H162     1.0000 0.93540  0.90730  0.23760  Biso   1.000  H
  H163     1.0000 0.06460  0.40730  0.26240  Biso   1.000  H
  H164     1.0000 0.43540  0.59270  0.76240  Biso   1.000  H
  H165     1.0000 0.60050  0.03460  0.71370  Biso   1.000  H
  H166     1.0000 0.89950  0.96540  0.21370  Biso   1.000  H
  H167     1.0000 0.10050  0.46540  0.28630  Biso   1.000  H
  H168     1.0000 0.39950  0.53460  0.78630  Biso   1.000  H
  H169     1.0000 0.54820  0.03390  0.76250  Biso   1.000  H
  H170     1.0000 0.95180  0.96610  0.26250  Biso   1.000  H
  H171     1.0000 0.04820  0.46610  0.23750  Biso   1.000  H
  H172     1.0000 0.45180  0.53390  0.73750  Biso   1.000  H
  C197     1.0000 0.35600  0.01570  0.68010  Biso   1.000  C
  C198     1.0000 0.14400  0.98430  0.18010  Biso   1.000  C
  C199     1.0000 0.85600  0.48430  0.31990  Biso   1.000  C
  C200     1.0000 0.64400  0.51570  0.81990  Biso   1.000  C
  H173     1.0000 0.30180  0.98180  0.68750  Biso   1.000  H
  H174     1.0000 0.19820  0.01820  0.18750  Biso   1.000  H
  H175     1.0000 0.80180  0.51820  0.31250  Biso   1.000  H
  H176     1.0000 0.69820  0.48180  0.81250  Biso   1.000  H
  H177     1.0000 0.44570  0.00450  0.66670  Biso   1.000  H
  H178     1.0000 0.05430  0.99550  0.16670  Biso   1.000  H
  H179     1.0000 0.94570  0.49550  0.33330  Biso   1.000  H
  H180     1.0000 0.55430  0.50450  0.83330  Biso   1.000  H
  H181     1.0000 0.30180  0.03900  0.66010  Biso   1.000  H
  H182     1.0000 0.19820  0.96100  0.16010  Biso   1.000  H
  H183     1.0000 0.80180  0.46100  0.33990  Biso   1.000  H
  H184     1.0000 0.69820  0.53900  0.83990  Biso   1.000  H
  N37      1.0000 0.77800  0.28240  0.55580  Biso   1.000  N
  N38      1.0000 0.72200  0.71760  0.05580  Biso   1.000  N
  N39      1.0000 0.27800  0.21760  0.44420  Biso   1.000  N
  N40      1.0000 0.22200  0.78240  0.94420  Biso   1.000  N
  O65      1.0000 0.69000  0.19630  0.55860  Biso   1.000  O
  O66      1.0000 0.81000  0.80370  0.05860  Biso   1.000  O
  O67      1.0000 0.19000  0.30370  0.44140  Biso   1.000  O
  O68      1.0000 0.31000  0.69630  0.94140  Biso   1.000  O
  C201     1.0000 0.82400  0.33880  0.53760  Biso   1.000  C
  C202     1.0000 0.67600  0.66120  0.03760  Biso   1.000  C
  C203     1.0000 0.32400  0.16120  0.46240  Biso   1.000  C
  C204     1.0000 0.17600  0.83880  0.96240  Biso   1.000  C
  H185     1.0000 0.89900  0.33270  0.51640  Biso   1.000  H
  H186     1.0000 0.60100  0.66730  0.01640  Biso   1.000  H
  H187     1.0000 0.39900  0.16730  0.48360  Biso   1.000  H
  H188     1.0000 0.10100  0.83270  0.98360  Biso   1.000  H
  H189     1.0000 0.85930  0.36280  0.56080  Biso   1.000  H
  H190     1.0000 0.64070  0.63720  0.06080  Biso   1.000  H
  H191     1.0000 0.35930  0.13720  0.43920  Biso   1.000  H
  H192     1.0000 0.14070  0.86280  0.93920  Biso   1.000  H
  H193     1.0000 0.74310  0.35720  0.52370  Biso   1.000  H
  H194     1.0000 0.75690  0.64280  0.02370  Biso   1.000  H
  H195     1.0000 0.24310  0.14280  0.47630  Biso   1.000  H
  H196     1.0000 0.25690  0.85720  0.97630  Biso   1.000  H
  C205     1.0000 0.72100  0.23800  0.53670  Biso   1.000  C
  C206     1.0000 0.77900  0.76200  0.03670  Biso   1.000  C
  C207     1.0000 0.22100  0.26200  0.46330  Biso   1.000  C
  C208     1.0000 0.27900  0.73800  0.96330  Biso   1.000  C
  C209     1.0000 0.81500  0.27110  0.60420  Biso   1.000  C
  C210     1.0000 0.68500  0.72890  0.10420  Biso   1.000  C
  C211     1.0000 0.31500  0.22890  0.39580  Biso   1.000  C
  C212     1.0000 0.18500  0.77110  0.89580  Biso   1.000  C
  H197     1.0000 0.88340  0.24030  0.60620  Biso   1.000  H
  H198     1.0000 0.61660  0.75970  0.10620  Biso   1.000  H
  H199     1.0000 0.38340  0.25970  0.39380  Biso   1.000  H
  H200     1.0000 0.11660  0.74030  0.89380  Biso   1.000  H
  H201     1.0000 0.72850  0.26070  0.61980  Biso   1.000  H
  H202     1.0000 0.77150  0.73930  0.11980  Biso   1.000  H
  H203     1.0000 0.22850  0.23930  0.38020  Biso   1.000  H
  H204     1.0000 0.27150  0.76070  0.88020  Biso   1.000  H
  H205     1.0000 0.85500  0.30540  0.61690  Biso   1.000  H
  H206     1.0000 0.64500  0.69460  0.11690  Biso   1.000  H
  H207     1.0000 0.35500  0.19460  0.38310  Biso   1.000  H
  H208     1.0000 0.14500  0.80540  0.88310  Biso   1.000  H
  C213     1.0000 0.69100  0.25440  0.48930  Biso   1.000  C
  C214     1.0000 0.80900  0.74560  0.98930  Biso   1.000  C
  C215     1.0000 0.19100  0.24560  0.51070  Biso   1.000  C
  C216     1.0000 0.30900  0.75440  0.01070  Biso   1.000  C
  H209     1.0000 0.60750  0.27880  0.48810  Biso   1.000  H
  H210     1.0000 0.89250  0.72120  0.98810  Biso   1.000  H
  H211     1.0000 0.10750  0.22120  0.51190  Biso   1.000  H
  H212     1.0000 0.39250  0.77880  0.01190  Biso   1.000  H
  H213     1.0000 0.67440  0.22020  0.47250  Biso   1.000  H
  H214     1.0000 0.82560  0.77980  0.97250  Biso   1.000  H
  H215     1.0000 0.17440  0.27980  0.52750  Biso   1.000  H
  H216     1.0000 0.32560  0.72020  0.02750  Biso   1.000  H
  H217     1.0000 0.77280  0.27470  0.47760  Biso   1.000  H
  H218     1.0000 0.72720  0.72530  0.97760  Biso   1.000  H
  H219     1.0000 0.27280  0.22530  0.52240  Biso   1.000  H
  H220     1.0000 0.22720  0.77470  0.02240  Biso   1.000  H
