data_image0
_cell_length_a       9.357
_cell_length_b       22.932
_cell_length_c       31.089
_cell_angle_alpha    90
_cell_angle_beta     90
_cell_angle_gamma    90

_symmetry_space_group_name_H-M    "P 1"
_symmetry_int_tables_number       1

loop_
  _symmetry_equiv_pos_as_xyz
  'x, y, z'

loop_
  _atom_site_label
  _atom_site_occupancy
  _atom_site_fract_x
  _atom_site_fract_y
  _atom_site_fract_z
  _atom_site_thermal_displace_type
  _atom_site_B_iso_or_equiv
  _atom_site_type_symbol
  Pr1      1.0000 0.99246  0.47085  0.52209  Biso   1.000  Pr
  Pr2      1.0000 0.50754  0.52915  0.02209  Biso   1.000  Pr
  Pr3      1.0000 0.49246  0.02915  0.47791  Biso   1.000  Pr
  Pr4      1.0000 0.00754  0.97085  0.97791  Biso   1.000  Pr
  Pr5      1.0000 0.46138  0.44150  0.51521  Biso   1.000  Pr
  Pr6      1.0000 0.03862  0.55850  0.01521  Biso   1.000  Pr
  Pr7      1.0000 0.96138  0.05850  0.48479  Biso   1.000  Pr
  Pr8      1.0000 0.53862  0.94150  0.98479  Biso   1.000  Pr
  I1       1.0000 0.79031  0.60525  0.75398  Biso   1.000  I
  I2       1.0000 0.70969  0.39475  0.25398  Biso   1.000  I
  I3       1.0000 0.29031  0.89475  0.24602  Biso   1.000  I
  I4       1.0000 0.20969  0.10525  0.74602  Biso   1.000  I
  I5       1.0000 0.48575  0.75487  0.72983  Biso   1.000  I
  I6       1.0000 0.01425  0.24513  0.22983  Biso   1.000  I
  I7       1.0000 0.98575  0.74513  0.27017  Biso   1.000  I
  I8       1.0000 0.51425  0.25487  0.77017  Biso   1.000  I
  I9       1.0000 0.97313  0.77080  0.71778  Biso   1.000  I
  I10      1.0000 0.52687  0.22920  0.21778  Biso   1.000  I
  I11      1.0000 0.47313  0.72920  0.28222  Biso   1.000  I
  I12      1.0000 0.02687  0.27080  0.78222  Biso   1.000  I
  Cu1      1.0000 0.04040  0.88333  0.72503  Biso   1.000  Cu
  Cu2      1.0000 0.45960  0.11667  0.22503  Biso   1.000  Cu
  Cu3      1.0000 0.54040  0.61667  0.27497  Biso   1.000  Cu
  Cu4      1.0000 0.95960  0.38333  0.77497  Biso   1.000  Cu
  Cu5      1.0000 0.71590  0.76588  0.68175  Biso   1.000  Cu
  Cu6      1.0000 0.78410  0.23412  0.18175  Biso   1.000  Cu
  Cu7      1.0000 0.21590  0.73412  0.31825  Biso   1.000  Cu
  Cu8      1.0000 0.28410  0.26588  0.81825  Biso   1.000  Cu
  Cu9      1.0000 0.51290  0.63974  0.75139  Biso   1.000  Cu
  Cu10     1.0000 0.98710  0.36026  0.25139  Biso   1.000  Cu
  Cu11     1.0000 0.01290  0.86026  0.24861  Biso   1.000  Cu
  Cu12     1.0000 0.48710  0.13974  0.74861  Biso   1.000  Cu
  Cu13     1.0000 0.74360  0.71629  0.76064  Biso   1.000  Cu
  Cu14     1.0000 0.75640  0.28371  0.26064  Biso   1.000  Cu
  Cu15     1.0000 0.24360  0.78371  0.23936  Biso   1.000  Cu
  Cu16     1.0000 0.25640  0.21629  0.73936  Biso   1.000  Cu
  C1       1.0000 0.20400  0.57410  0.66280  Biso   1.000  C
  C2       1.0000 0.29600  0.42590  0.16280  Biso   1.000  C
  C3       1.0000 0.70400  0.92590  0.33720  Biso   1.000  C
  C4       1.0000 0.79600  0.07410  0.83720  Biso   1.000  C
  H1       1.0000 0.10560  0.57940  0.65960  Biso   1.000  H
  H2       1.0000 0.39440  0.42060  0.15960  Biso   1.000  H
  H3       1.0000 0.60560  0.92060  0.34040  Biso   1.000  H
  H4       1.0000 0.89440  0.07940  0.84040  Biso   1.000  H
  O1       1.0000 0.58340  0.34670  0.50110  Biso   1.000  O
  O2       1.0000 0.91660  0.65330  0.00110  Biso   1.000  O
  O3       1.0000 0.08340  0.15330  0.49890  Biso   1.000  O
  O4       1.0000 0.41660  0.84670  0.99890  Biso   1.000  O
  N1       1.0000 0.87360  0.39330  0.71690  Biso   1.000  N
  N2       1.0000 0.62640  0.60670  0.21690  Biso   1.000  N
  N3       1.0000 0.37360  0.10670  0.28310  Biso   1.000  N
  N4       1.0000 0.12640  0.89330  0.78310  Biso   1.000  N
  O5       1.0000 0.81630  0.54500  0.53370  Biso   1.000  O
  O6       1.0000 0.68370  0.45500  0.03370  Biso   1.000  O
  O7       1.0000 0.31630  0.95500  0.46630  Biso   1.000  O
  O8       1.0000 0.18370  0.04500  0.96630  Biso   1.000  O
  O9       1.0000 0.35230  0.52350  0.47710  Biso   1.000  O
  O10      1.0000 0.14770  0.47650  0.97710  Biso   1.000  O
  O11      1.0000 0.85230  0.97650  0.52290  Biso   1.000  O
  O12      1.0000 0.64770  0.02350  0.02290  Biso   1.000  O
  C5       1.0000 0.10400  0.66150  0.39040  Biso   1.000  C
  C6       1.0000 0.39600  0.33850  0.89040  Biso   1.000  C
  C7       1.0000 0.60400  0.83850  0.60960  Biso   1.000  C
  C8       1.0000 0.89600  0.16150  0.10960  Biso   1.000  C
  H5       1.0000 0.01680  0.67740  0.38200  Biso   1.000  H
  H6       1.0000 0.48320  0.32260  0.88200  Biso   1.000  H
  H7       1.0000 0.51680  0.82260  0.61800  Biso   1.000  H
  H8       1.0000 0.98320  0.17740  0.11800  Biso   1.000  H
  O13      1.0000 0.64310  0.45870  0.46410  Biso   1.000  O
  O14      1.0000 0.85690  0.54130  0.96410  Biso   1.000  O
  O15      1.0000 0.14310  0.04130  0.53590  Biso   1.000  O
  O16      1.0000 0.35690  0.95870  0.03590  Biso   1.000  O
  C9       1.0000 0.28000  0.53740  0.63430  Biso   1.000  C
  C10      1.0000 0.22000  0.46260  0.13430  Biso   1.000  C
  C11      1.0000 0.78000  0.96260  0.36570  Biso   1.000  C
  C12      1.0000 0.72000  0.03740  0.86570  Biso   1.000  C
  O17      1.0000 0.30480  0.36360  0.54270  Biso   1.000  O
  O18      1.0000 0.19520  0.63640  0.04270  Biso   1.000  O
  O19      1.0000 0.80480  0.13640  0.45730  Biso   1.000  O
  O20      1.0000 0.69520  0.86360  0.95730  Biso   1.000  O
  O21      1.0000 0.86890  0.48570  0.45310  Biso   1.000  O
  O22      1.0000 0.63110  0.51430  0.95310  Biso   1.000  O
  O23      1.0000 0.36890  0.01430  0.54690  Biso   1.000  O
  O24      1.0000 0.13110  0.98570  0.04690  Biso   1.000  O
  C13      1.0000 0.60900  0.94670  0.72230  Biso   1.000  C
  C14      1.0000 0.89100  0.05330  0.22230  Biso   1.000  C
  C15      1.0000 0.10900  0.55330  0.27770  Biso   1.000  C
  C16      1.0000 0.39100  0.44670  0.77770  Biso   1.000  C
  C17      1.0000 0.24600  0.63490  0.86460  Biso   1.000  C
  C18      1.0000 0.25400  0.36510  0.36460  Biso   1.000  C
  C19      1.0000 0.74600  0.86510  0.13540  Biso   1.000  C
  C20      1.0000 0.75400  0.13490  0.63540  Biso   1.000  C
  H9       1.0000 0.15030  0.64210  0.87040  Biso   1.000  H
  H10      1.0000 0.34970  0.35790  0.37040  Biso   1.000  H
  H11      1.0000 0.65030  0.85790  0.12960  Biso   1.000  H
  H12      1.0000 0.84970  0.14210  0.62960  Biso   1.000  H
  O25      1.0000 0.57020  0.41070  0.58520  Biso   1.000  O
  O26      1.0000 0.92980  0.58930  0.08520  Biso   1.000  O
  O27      1.0000 0.07020  0.08930  0.41480  Biso   1.000  O
  O28      1.0000 0.42980  0.91070  0.91480  Biso   1.000  O
  O29      1.0000 0.57920  0.52980  0.54300  Biso   1.000  O
  O30      1.0000 0.92080  0.47020  0.04300  Biso   1.000  O
  O31      1.0000 0.07920  0.97020  0.45700  Biso   1.000  O
  O32      1.0000 0.42080  0.02980  0.95700  Biso   1.000  O
  O33      1.0000 0.14200  0.59830  0.94680  Biso   1.000  O
  O34      1.0000 0.35800  0.40170  0.44680  Biso   1.000  O
  O35      1.0000 0.64200  0.90170  0.05320  Biso   1.000  O
  O36      1.0000 0.85800  0.09830  0.55320  Biso   1.000  O
  C21      1.0000 0.91300  0.44140  0.69260  Biso   1.000  C
  C22      1.0000 0.58700  0.55860  0.19260  Biso   1.000  C
  C23      1.0000 0.41300  0.05860  0.30740  Biso   1.000  C
  C24      1.0000 0.08700  0.94140  0.80740  Biso   1.000  C
  H13      1.0000 0.97660  0.46880  0.70330  Biso   1.000  H
  H14      1.0000 0.52340  0.53120  0.20330  Biso   1.000  H
  H15      1.0000 0.47660  0.03120  0.29670  Biso   1.000  H
  H16      1.0000 0.02340  0.96880  0.79670  Biso   1.000  H
  O37      1.0000 0.84350  0.93770  0.73080  Biso   1.000  O
  O38      1.0000 0.65650  0.06230  0.23080  Biso   1.000  O
  O39      1.0000 0.34350  0.56230  0.26920  Biso   1.000  O
  O40      1.0000 0.15650  0.43770  0.76920  Biso   1.000  O
  C25      1.0000 0.76200  0.41010  0.63270  Biso   1.000  C
  C26      1.0000 0.73800  0.58990  0.13270  Biso   1.000  C
  C27      1.0000 0.26200  0.08990  0.36730  Biso   1.000  C
  C28      1.0000 0.23800  0.91010  0.86730  Biso   1.000  C
  O41      1.0000 0.13120  0.54880  0.49630  Biso   1.000  O
  O42      1.0000 0.36880  0.45120  0.99630  Biso   1.000  O
  O43      1.0000 0.63120  0.95120  0.50370  Biso   1.000  O
  O44      1.0000 0.86880  0.04880  0.00370  Biso   1.000  O
  C29      1.0000 0.47370  0.59870  0.88550  Biso   1.000  C
  C30      1.0000 0.02630  0.40130  0.38550  Biso   1.000  C
  C31      1.0000 0.97370  0.90130  0.11450  Biso   1.000  C
  C32      1.0000 0.52630  0.09870  0.61450  Biso   1.000  C
  H17      1.0000 0.53500  0.58070  0.90490  Biso   1.000  H
  H18      1.0000 0.96500  0.41930  0.40490  Biso   1.000  H
  H19      1.0000 0.03500  0.91930  0.09510  Biso   1.000  H
  H20      1.0000 0.46500  0.08070  0.59510  Biso   1.000  H
  C33      1.0000 0.85700  0.44700  0.65420  Biso   1.000  C
  C34      1.0000 0.64300  0.55300  0.15420  Biso   1.000  C
  C35      1.0000 0.35700  0.05300  0.34580  Biso   1.000  C
  C36      1.0000 0.14300  0.94700  0.84580  Biso   1.000  C
  H21      1.0000 0.88380  0.48030  0.63920  Biso   1.000  H
  H22      1.0000 0.61620  0.51970  0.13920  Biso   1.000  H
  H23      1.0000 0.38380  0.01970  0.36080  Biso   1.000  H
  H24      1.0000 0.11620  0.98030  0.86080  Biso   1.000  H
  O45      1.0000 0.07370  0.38310  0.55870  Biso   1.000  O
  O46      1.0000 0.42630  0.61690  0.05870  Biso   1.000  O
  O47      1.0000 0.57370  0.11690  0.44130  Biso   1.000  O
  O48      1.0000 0.92630  0.88310  0.94130  Biso   1.000  O
  N5       1.0000 0.70170  0.69220  0.64450  Biso   1.000  N
  N6       1.0000 0.79830  0.30780  0.14450  Biso   1.000  N
  N7       1.0000 0.20170  0.80780  0.35550  Biso   1.000  N
  N8       1.0000 0.29830  0.19220  0.85550  Biso   1.000  N
  O49      1.0000 0.28830  0.48190  0.56860  Biso   1.000  O
  O50      1.0000 0.21170  0.51810  0.06860  Biso   1.000  O
  O51      1.0000 0.78830  0.01810  0.43140  Biso   1.000  O
  O52      1.0000 0.71170  0.98190  0.93140  Biso   1.000  O
  N9       1.0000 0.60910  0.57480  0.32730  Biso   1.000  N
  N10      1.0000 0.89090  0.42520  0.82730  Biso   1.000  N
  N11      1.0000 0.10910  0.92520  0.67270  Biso   1.000  N
  N12      1.0000 0.39090  0.07480  0.17270  Biso   1.000  N
  O53      1.0000 0.07970  0.51670  0.59000  Biso   1.000  O
  O54      1.0000 0.42030  0.48330  0.09000  Biso   1.000  O
  O55      1.0000 0.57970  0.98330  0.41000  Biso   1.000  O
  O56      1.0000 0.92030  0.01670  0.91000  Biso   1.000  O
  C37      1.0000 0.23500  0.59450  0.43650  Biso   1.000  C
  C38      1.0000 0.26500  0.40550  0.93650  Biso   1.000  C
  C39      1.0000 0.73500  0.90550  0.56350  Biso   1.000  C
  C40      1.0000 0.76500  0.09450  0.06350  Biso   1.000  C
  C41      1.0000 0.09100  0.30650  0.63010  Biso   1.000  C
  C42      1.0000 0.40900  0.69350  0.13010  Biso   1.000  C
  C43      1.0000 0.59100  0.19350  0.36990  Biso   1.000  C
  C44      1.0000 0.90900  0.80650  0.86990  Biso   1.000  C
  H25      1.0000 0.00060  0.31960  0.62260  Biso   1.000  H
  H26      1.0000 0.49940  0.68040  0.12260  Biso   1.000  H
  H27      1.0000 0.50060  0.18040  0.37740  Biso   1.000  H
  H28      1.0000 0.99940  0.81960  0.87740  Biso   1.000  H
  C45      1.0000 0.73670  0.48630  0.44280  Biso   1.000  C
  C46      1.0000 0.76330  0.51370  0.94280  Biso   1.000  C
  C47      1.0000 0.23670  0.01370  0.55720  Biso   1.000  C
  C48      1.0000 0.26330  0.98630  0.05720  Biso   1.000  C
  O57      1.0000 0.78590  0.42970  0.55930  Biso   1.000  O
  O58      1.0000 0.71410  0.57030  0.05930  Biso   1.000  O
  O59      1.0000 0.28590  0.07030  0.44070  Biso   1.000  O
  O60      1.0000 0.21410  0.92970  0.94070  Biso   1.000  O
  C49      1.0000 0.24270  0.55420  0.47400  Biso   1.000  C
  C50      1.0000 0.25730  0.44580  0.97400  Biso   1.000  C
  C51      1.0000 0.74270  0.94580  0.52600  Biso   1.000  C
  C52      1.0000 0.75730  0.05420  0.02600  Biso   1.000  C
  O61      1.0000 0.36520  0.57770  0.96780  Biso   1.000  O
  O62      1.0000 0.13480  0.42230  0.46780  Biso   1.000  O
  O63      1.0000 0.86520  0.92230  0.03220  Biso   1.000  O
  O64      1.0000 0.63480  0.07770  0.53220  Biso   1.000  O
  C53      1.0000 0.27290  0.59530  0.94130  Biso   1.000  C
  C54      1.0000 0.22710  0.40470  0.44130  Biso   1.000  C
  C55      1.0000 0.77290  0.90470  0.05870  Biso   1.000  C
  C56      1.0000 0.72710  0.09530  0.55870  Biso   1.000  C
  N13      1.0000 0.24020  0.25300  0.67990  Biso   1.000  N
  N14      1.0000 0.25980  0.74700  0.17990  Biso   1.000  N
  N15      1.0000 0.74020  0.24700  0.32010  Biso   1.000  N
  N16      1.0000 0.75980  0.75300  0.82010  Biso   1.000  N
  C57      1.0000 0.48100  0.55450  0.68070  Biso   1.000  C
  C58      1.0000 0.01900  0.44550  0.18070  Biso   1.000  C
  C59      1.0000 0.98100  0.94550  0.31930  Biso   1.000  C
  C60      1.0000 0.51900  0.05450  0.81930  Biso   1.000  C
  H29      1.0000 0.57470  0.54580  0.68830  Biso   1.000  H
  H30      1.0000 0.92530  0.45420  0.18830  Biso   1.000  H
  H31      1.0000 0.07470  0.95420  0.31170  Biso   1.000  H
  H32      1.0000 0.42530  0.04580  0.81170  Biso   1.000  H
  C61      1.0000 0.69570  0.60170  0.58240  Biso   1.000  C
  C62      1.0000 0.80430  0.39830  0.08240  Biso   1.000  C
  C63      1.0000 0.19570  0.89830  0.41760  Biso   1.000  C
  C64      1.0000 0.30430  0.10170  0.91760  Biso   1.000  C
  C65      1.0000 0.19870  0.35950  0.56460  Biso   1.000  C
  C66      1.0000 0.30130  0.64050  0.06460  Biso   1.000  C
  C67      1.0000 0.69870  0.14050  0.43540  Biso   1.000  C
  C68      1.0000 0.80130  0.85950  0.93540  Biso   1.000  C
  N17      1.0000 0.43800  0.63530  0.81300  Biso   1.000  N
  N18      1.0000 0.06200  0.36470  0.31300  Biso   1.000  N
  N19      1.0000 0.93800  0.86470  0.18700  Biso   1.000  N
  N20      1.0000 0.56200  0.13530  0.68700  Biso   1.000  N
  C69      1.0000 0.34250  0.30300  0.61880  Biso   1.000  C
  C70      1.0000 0.15750  0.69700  0.11880  Biso   1.000  C
  C71      1.0000 0.84250  0.19700  0.38120  Biso   1.000  C
  C72      1.0000 0.65750  0.80300  0.88120  Biso   1.000  C
  H33      1.0000 0.42250  0.31170  0.60230  Biso   1.000  H
  H34      1.0000 0.07750  0.68830  0.10230  Biso   1.000  H
  H35      1.0000 0.92250  0.18830  0.39770  Biso   1.000  H
  H36      1.0000 0.57750  0.81170  0.89770  Biso   1.000  H
  C73      1.0000 0.68600  0.32690  0.48080  Biso   1.000  C
  C74      1.0000 0.81400  0.67310  0.98080  Biso   1.000  C
  C75      1.0000 0.18600  0.17310  0.51920  Biso   1.000  C
  C76      1.0000 0.31400  0.82690  0.01920  Biso   1.000  C
  C77      1.0000 0.81600  0.65780  0.63650  Biso   1.000  C
  C78      1.0000 0.68400  0.34220  0.13650  Biso   1.000  C
  C79      1.0000 0.31600  0.84220  0.36350  Biso   1.000  C
  C80      1.0000 0.18400  0.15780  0.86350  Biso   1.000  C
  H37      1.0000 0.89850  0.66470  0.65220  Biso   1.000  H
  H38      1.0000 0.60150  0.33530  0.15220  Biso   1.000  H
  H39      1.0000 0.39850  0.83530  0.34780  Biso   1.000  H
  H40      1.0000 0.10150  0.16470  0.84780  Biso   1.000  H
  C81      1.0000 0.69800  0.51570  0.40350  Biso   1.000  C
  C82      1.0000 0.80200  0.48430  0.90350  Biso   1.000  C
  C83      1.0000 0.19800  0.98430  0.59650  Biso   1.000  C
  C84      1.0000 0.30200  0.01570  0.09650  Biso   1.000  C
  C85      1.0000 0.11210  0.27090  0.66500  Biso   1.000  C
  C86      1.0000 0.38790  0.72910  0.16500  Biso   1.000  C
  C87      1.0000 0.61210  0.22910  0.33500  Biso   1.000  C
  C88      1.0000 0.88790  0.77090  0.83500  Biso   1.000  C
  H41      1.0000 0.03130  0.25810  0.67960  Biso   1.000  H
  H42      1.0000 0.46870  0.74190  0.17960  Biso   1.000  H
  H43      1.0000 0.53130  0.24190  0.32040  Biso   1.000  H
  H44      1.0000 0.96870  0.75810  0.82040  Biso   1.000  H
  N21      1.0000 0.40990  0.59160  0.70410  Biso   1.000  N
  N22      1.0000 0.09010  0.40840  0.20410  Biso   1.000  N
  N23      1.0000 0.90990  0.90840  0.29590  Biso   1.000  N
  N24      1.0000 0.59010  0.09160  0.79590  Biso   1.000  N
  C89      1.0000 0.33800  0.64200  0.37690  Biso   1.000  C
  C90      1.0000 0.16200  0.35800  0.87690  Biso   1.000  C
  C91      1.0000 0.83800  0.85800  0.62310  Biso   1.000  C
  C92      1.0000 0.66200  0.14200  0.12310  Biso   1.000  C
  H45      1.0000 0.41640  0.64520  0.35870  Biso   1.000  H
  H46      1.0000 0.08360  0.35480  0.85870  Biso   1.000  H
  H47      1.0000 0.91640  0.85480  0.64130  Biso   1.000  H
  H48      1.0000 0.58360  0.14520  0.14130  Biso   1.000  H
  N25      1.0000 0.21500  0.67230  0.36680  Biso   1.000  N
  N26      1.0000 0.28500  0.32770  0.86680  Biso   1.000  N
  N27      1.0000 0.71500  0.82770  0.63320  Biso   1.000  N
  N28      1.0000 0.78500  0.17230  0.13320  Biso   1.000  N
  N29      1.0000 0.71900  0.92820  0.74420  Biso   1.000  N
  N30      1.0000 0.78100  0.07180  0.24420  Biso   1.000  N
  N31      1.0000 0.21900  0.57180  0.25580  Biso   1.000  N
  N32      1.0000 0.28100  0.42820  0.75580  Biso   1.000  N
  C93      1.0000 0.77800  0.28100  0.54360  Biso   1.000  C
  C94      1.0000 0.72200  0.71900  0.04360  Biso   1.000  C
  C95      1.0000 0.27800  0.21900  0.45640  Biso   1.000  C
  C96      1.0000 0.22200  0.78100  0.95640  Biso   1.000  C
  H49      1.0000 0.80940  0.31320  0.56100  Biso   1.000  H
  H50      1.0000 0.69060  0.68680  0.06100  Biso   1.000  H
  H51      1.0000 0.30940  0.18680  0.43900  Biso   1.000  H
  H52      1.0000 0.19060  0.81320  0.93900  Biso   1.000  H
  H53      1.0000 0.83710  0.24760  0.54950  Biso   1.000  H
  H54      1.0000 0.66290  0.75240  0.04950  Biso   1.000  H
  H55      1.0000 0.33710  0.25240  0.45050  Biso   1.000  H
  H56      1.0000 0.16290  0.74760  0.95050  Biso   1.000  H
  H57      1.0000 0.68060  0.27210  0.55010  Biso   1.000  H
  H58      1.0000 0.81940  0.72790  0.05010  Biso   1.000  H
  H59      1.0000 0.18060  0.22790  0.44990  Biso   1.000  H
  H60      1.0000 0.31940  0.77210  0.94990  Biso   1.000  H
  C97      1.0000 0.51900  0.61290  0.84400  Biso   1.000  C
  C98      1.0000 0.98100  0.38710  0.34400  Biso   1.000  C
  C99      1.0000 0.01900  0.88710  0.15600  Biso   1.000  C
  C100     1.0000 0.48100  0.11290  0.65600  Biso   1.000  C
  H61      1.0000 0.61430  0.60600  0.83740  Biso   1.000  H
  H62      1.0000 0.88570  0.39400  0.33740  Biso   1.000  H
  H63      1.0000 0.11430  0.89400  0.16260  Biso   1.000  H
  H64      1.0000 0.38570  0.10600  0.66260  Biso   1.000  H
  C101     1.0000 0.21100  0.50940  0.59600  Biso   1.000  C
  C102     1.0000 0.28900  0.49060  0.09600  Biso   1.000  C
  C103     1.0000 0.71100  0.99060  0.40400  Biso   1.000  C
  C104     1.0000 0.78900  0.00940  0.90400  Biso   1.000  C
  C105     1.0000 0.72500  0.36210  0.66150  Biso   1.000  C
  C106     1.0000 0.77500  0.63790  0.16150  Biso   1.000  C
  C107     1.0000 0.22500  0.13790  0.33850  Biso   1.000  C
  C108     1.0000 0.27500  0.86210  0.83850  Biso   1.000  C
  H65      1.0000 0.65730  0.33530  0.65210  Biso   1.000  H
  H66      1.0000 0.84270  0.66470  0.15210  Biso   1.000  H
  H67      1.0000 0.15730  0.16470  0.34790  Biso   1.000  H
  H68      1.0000 0.34270  0.83530  0.84790  Biso   1.000  H
  C109     1.0000 0.33240  0.61250  0.89670  Biso   1.000  C
  C110     1.0000 0.16760  0.38750  0.39670  Biso   1.000  C
  C111     1.0000 0.83240  0.88750  0.10330  Biso   1.000  C
  C112     1.0000 0.66760  0.11250  0.60330  Biso   1.000  C
  C113     1.0000 0.70500  0.59670  0.35440  Biso   1.000  C
  C114     1.0000 0.79500  0.40330  0.85440  Biso   1.000  C
  C115     1.0000 0.20500  0.90330  0.64560  Biso   1.000  C
  C116     1.0000 0.29500  0.09670  0.14560  Biso   1.000  C
  H69      1.0000 0.74250  0.63330  0.34790  Biso   1.000  H
  H70      1.0000 0.75750  0.36670  0.84790  Biso   1.000  H
  H71      1.0000 0.24250  0.86670  0.65210  Biso   1.000  H
  H72      1.0000 0.25750  0.13330  0.15210  Biso   1.000  H
  C117     1.0000 0.78000  0.35410  0.69920  Biso   1.000  C
  C118     1.0000 0.72000  0.64590  0.19920  Biso   1.000  C
  C119     1.0000 0.28000  0.14590  0.30080  Biso   1.000  C
  C120     1.0000 0.22000  0.85410  0.80080  Biso   1.000  C
  H73      1.0000 0.75550  0.32090  0.71480  Biso   1.000  H
  H74      1.0000 0.74450  0.67910  0.21480  Biso   1.000  H
  H75      1.0000 0.25550  0.17910  0.28520  Biso   1.000  H
  H76      1.0000 0.24450  0.82090  0.78520  Biso   1.000  H
  N33      1.0000 0.79100  0.29650  0.49840  Biso   1.000  N
  N34      1.0000 0.70900  0.70350  0.99840  Biso   1.000  N
  N35      1.0000 0.29100  0.20350  0.50160  Biso   1.000  N
  N36      1.0000 0.20900  0.79650  0.00160  Biso   1.000  N
  C121     1.0000 0.42170  0.52750  0.64490  Biso   1.000  C
  C122     1.0000 0.07830  0.47250  0.14490  Biso   1.000  C
  C123     1.0000 0.92170  0.97250  0.35510  Biso   1.000  C
  C124     1.0000 0.57830  0.02750  0.85510  Biso   1.000  C
  H77      1.0000 0.47730  0.50290  0.62800  Biso   1.000  H
  H78      1.0000 0.02270  0.49710  0.12800  Biso   1.000  H
  H79      1.0000 0.97730  0.99710  0.37200  Biso   1.000  H
  H80      1.0000 0.52270  0.00290  0.87200  Biso   1.000  H
  C125     1.0000 0.70110  0.41680  0.58930  Biso   1.000  C
  C126     1.0000 0.79890  0.58320  0.08930  Biso   1.000  C
  C127     1.0000 0.20110  0.08320  0.41070  Biso   1.000  C
  C128     1.0000 0.29890  0.91680  0.91070  Biso   1.000  C
  C129     1.0000 0.56500  0.52360  0.33890  Biso   1.000  C
  C130     1.0000 0.93500  0.47640  0.83890  Biso   1.000  C
  C131     1.0000 0.06500  0.97640  0.66110  Biso   1.000  C
  C132     1.0000 0.43500  0.02360  0.16110  Biso   1.000  C
  H81      1.0000 0.50120  0.50610  0.31990  Biso   1.000  H
  H82      1.0000 0.99880  0.49390  0.81990  Biso   1.000  H
  H83      1.0000 0.00120  0.99390  0.68010  Biso   1.000  H
  H84      1.0000 0.49880  0.00610  0.18010  Biso   1.000  H
  C133     1.0000 0.21000  0.32210  0.60650  Biso   1.000  C
  C134     1.0000 0.29000  0.67790  0.10650  Biso   1.000  C
  C135     1.0000 0.71000  0.17790  0.39350  Biso   1.000  C
  C136     1.0000 0.79000  0.82210  0.89350  Biso   1.000  C
  C137     1.0000 0.57500  0.63600  0.59160  Biso   1.000  C
  C138     1.0000 0.92500  0.36400  0.09160  Biso   1.000  C
  C139     1.0000 0.07500  0.86400  0.40840  Biso   1.000  C
  C140     1.0000 0.42500  0.13600  0.90840  Biso   1.000  C
  H85      1.0000 0.48850  0.62860  0.57770  Biso   1.000  H
  H86      1.0000 0.01150  0.37140  0.07770  Biso   1.000  H
  H87      1.0000 0.98850  0.87140  0.42230  Biso   1.000  H
  H88      1.0000 0.51150  0.12860  0.92230  Biso   1.000  H
  C141     1.0000 0.81880  0.61260  0.60650  Biso   1.000  C
  C142     1.0000 0.68120  0.38740  0.10650  Biso   1.000  C
  C143     1.0000 0.31880  0.88740  0.39350  Biso   1.000  C
  C144     1.0000 0.18120  0.11260  0.89350  Biso   1.000  C
  H89      1.0000 0.90080  0.59030  0.60260  Biso   1.000  H
  H90      1.0000 0.59920  0.40970  0.10260  Biso   1.000  H
  H91      1.0000 0.40080  0.90970  0.39740  Biso   1.000  H
  H92      1.0000 0.09920  0.09030  0.89740  Biso   1.000  H
  C145     1.0000 0.46100  0.94340  0.73830  Biso   1.000  C
  C146     1.0000 0.03900  0.05660  0.23830  Biso   1.000  C
  C147     1.0000 0.96100  0.55660  0.26170  Biso   1.000  C
  C148     1.0000 0.53900  0.44340  0.76170  Biso   1.000  C
  H93      1.0000 0.45840  0.92010  0.76400  Biso   1.000  H
  H94      1.0000 0.04160  0.07990  0.26400  Biso   1.000  H
  H95      1.0000 0.95840  0.57990  0.23600  Biso   1.000  H
  H96      1.0000 0.54160  0.42010  0.73600  Biso   1.000  H
  H97      1.0000 0.40120  0.92600  0.71680  Biso   1.000  H
  H98      1.0000 0.09880  0.07400  0.21680  Biso   1.000  H
  H99      1.0000 0.90120  0.57400  0.28320  Biso   1.000  H
  H100     1.0000 0.59880  0.42600  0.78320  Biso   1.000  H
  H101     1.0000 0.42710  0.98190  0.74470  Biso   1.000  H
  H102     1.0000 0.07290  0.01810  0.24470  Biso   1.000  H
  H103     1.0000 0.92710  0.51810  0.25530  Biso   1.000  H
  H104     1.0000 0.57290  0.48190  0.75530  Biso   1.000  H
  C149     1.0000 0.27400  0.60110  0.69430  Biso   1.000  C
  C150     1.0000 0.22600  0.39890  0.19430  Biso   1.000  C
  C151     1.0000 0.77400  0.89890  0.30570  Biso   1.000  C
  C152     1.0000 0.72600  0.10110  0.80570  Biso   1.000  C
  H105     1.0000 0.22450  0.62850  0.71050  Biso   1.000  H
  H106     1.0000 0.27550  0.37150  0.21050  Biso   1.000  H
  H107     1.0000 0.72450  0.87150  0.28950  Biso   1.000  H
  H108     1.0000 0.77550  0.12850  0.78950  Biso   1.000  H
  C153     1.0000 0.58400  0.68060  0.62110  Biso   1.000  C
  C154     1.0000 0.91600  0.31940  0.12110  Biso   1.000  C
  C155     1.0000 0.08400  0.81940  0.37890  Biso   1.000  C
  C156     1.0000 0.41600  0.18060  0.87890  Biso   1.000  C
  H109     1.0000 0.50400  0.70410  0.62520  Biso   1.000  H
  H110     1.0000 0.99600  0.29590  0.12520  Biso   1.000  H
  H111     1.0000 0.00400  0.79590  0.37480  Biso   1.000  H
  H112     1.0000 0.49600  0.20410  0.87480  Biso   1.000  H
  C157     1.0000 0.69730  0.55580  0.54980  Biso   1.000  C
  C158     1.0000 0.80270  0.44420  0.04980  Biso   1.000  C
  C159     1.0000 0.19730  0.94420  0.45020  Biso   1.000  C
  C160     1.0000 0.30270  0.05580  0.95020  Biso   1.000  C
  C161     1.0000 0.34900  0.60710  0.41280  Biso   1.000  C
  C162     1.0000 0.15100  0.39290  0.91280  Biso   1.000  C
  C163     1.0000 0.84900  0.89290  0.58720  Biso   1.000  C
  C164     1.0000 0.65100  0.10710  0.08720  Biso   1.000  C
  H113     1.0000 0.43810  0.59220  0.42060  Biso   1.000  H
  H114     1.0000 0.06190  0.40780  0.92060  Biso   1.000  H
  H115     1.0000 0.93810  0.90780  0.57940  Biso   1.000  H
  H116     1.0000 0.56190  0.09220  0.07940  Biso   1.000  H
  C165     1.0000 0.29900  0.64660  0.82510  Biso   1.000  C
  C166     1.0000 0.20100  0.35340  0.32510  Biso   1.000  C
  C167     1.0000 0.79900  0.85340  0.17490  Biso   1.000  C
  C168     1.0000 0.70100  0.14660  0.67490  Biso   1.000  C
  H117     1.0000 0.23810  0.66320  0.80490  Biso   1.000  H
  H118     1.0000 0.26190  0.33680  0.30490  Biso   1.000  H
  H119     1.0000 0.73810  0.83680  0.19510  Biso   1.000  H
  H120     1.0000 0.76190  0.16320  0.69510  Biso   1.000  H
  C169     1.0000 0.35600  0.27040  0.65660  Biso   1.000  C
  C170     1.0000 0.14400  0.72960  0.15660  Biso   1.000  C
  C171     1.0000 0.85600  0.22960  0.34340  Biso   1.000  C
  C172     1.0000 0.64400  0.77040  0.84340  Biso   1.000  C
  H121     1.0000 0.44680  0.26020  0.66610  Biso   1.000  H
  H122     1.0000 0.05320  0.73980  0.16610  Biso   1.000  H
  H123     1.0000 0.94680  0.23980  0.33390  Biso   1.000  H
  H124     1.0000 0.55320  0.76020  0.83390  Biso   1.000  H
  C173     1.0000 0.69500  0.89580  0.78690  Biso   1.000  C
  C174     1.0000 0.80500  0.10420  0.28690  Biso   1.000  C
  C175     1.0000 0.19500  0.60420  0.21310  Biso   1.000  C
  C176     1.0000 0.30500  0.39580  0.71310  Biso   1.000  C
  H125     1.0000 0.66510  0.92300  0.80860  Biso   1.000  H
  H126     1.0000 0.83490  0.07700  0.30860  Biso   1.000  H
  H127     1.0000 0.16510  0.57700  0.19140  Biso   1.000  H
  H128     1.0000 0.33490  0.42300  0.69140  Biso   1.000  H
  H129     1.0000 0.78190  0.87720  0.79570  Biso   1.000  H
  H130     1.0000 0.71810  0.12280  0.29570  Biso   1.000  H
  H131     1.0000 0.28190  0.62280  0.20430  Biso   1.000  H
  H132     1.0000 0.21810  0.37720  0.70430  Biso   1.000  H
  H133     1.0000 0.62180  0.86680  0.78310  Biso   1.000  H
  H134     1.0000 0.87820  0.13320  0.28310  Biso   1.000  H
  H135     1.0000 0.12180  0.63320  0.21690  Biso   1.000  H
  H136     1.0000 0.37820  0.36680  0.71690  Biso   1.000  H
  C177     1.0000 0.59800  0.49050  0.37510  Biso   1.000  C
  C178     1.0000 0.90200  0.50950  0.87510  Biso   1.000  C
  C179     1.0000 0.09800  0.00950  0.62490  Biso   1.000  C
  C180     1.0000 0.40200  0.99050  0.12490  Biso   1.000  C
  H137     1.0000 0.55640  0.45440  0.38020  Biso   1.000  H
  H138     1.0000 0.94360  0.54560  0.88020  Biso   1.000  H
  H139     1.0000 0.05640  0.04560  0.61980  Biso   1.000  H
  H140     1.0000 0.44360  0.95440  0.11980  Biso   1.000  H
  C181     1.0000 0.75400  0.57020  0.39100  Biso   1.000  C
  C182     1.0000 0.74600  0.42980  0.89100  Biso   1.000  C
  C183     1.0000 0.25400  0.92980  0.60900  Biso   1.000  C
  C184     1.0000 0.24600  0.07020  0.10900  Biso   1.000  C
  H141     1.0000 0.82450  0.58810  0.40760  Biso   1.000  H
  H142     1.0000 0.67550  0.41190  0.90760  Biso   1.000  H
  H143     1.0000 0.32450  0.91190  0.59240  Biso   1.000  H
  H144     1.0000 0.17550  0.08810  0.09240  Biso   1.000  H
  C185     1.0000 0.68400  0.33540  0.43120  Biso   1.000  C
  C186     1.0000 0.81600  0.66460  0.93120  Biso   1.000  C
  C187     1.0000 0.18400  0.16460  0.56880  Biso   1.000  C
  C188     1.0000 0.31600  0.83540  0.06880  Biso   1.000  C
  H145     1.0000 0.58720  0.33800  0.42130  Biso   1.000  H
  H146     1.0000 0.91280  0.66200  0.92130  Biso   1.000  H
  H147     1.0000 0.08720  0.16200  0.57870  Biso   1.000  H
  H148     1.0000 0.41280  0.83800  0.07870  Biso   1.000  H
  H149     1.0000 0.73040  0.30290  0.41760  Biso   1.000  H
  H150     1.0000 0.76960  0.69710  0.91760  Biso   1.000  H
  H151     1.0000 0.23040  0.19710  0.58240  Biso   1.000  H
  H152     1.0000 0.26960  0.80290  0.08240  Biso   1.000  H
  H153     1.0000 0.73410  0.37070  0.42400  Biso   1.000  H
  H154     1.0000 0.76590  0.62930  0.92400  Biso   1.000  H
  H155     1.0000 0.23410  0.12930  0.57600  Biso   1.000  H
  H156     1.0000 0.26590  0.87070  0.07600  Biso   1.000  H
  C189     1.0000 0.92400  0.27950  0.47280  Biso   1.000  C
  C190     1.0000 0.57600  0.72050  0.97280  Biso   1.000  C
  C191     1.0000 0.42400  0.22050  0.52720  Biso   1.000  C
  C192     1.0000 0.07600  0.77950  0.02720  Biso   1.000  C
  H157     1.0000 0.92190  0.23840  0.46710  Biso   1.000  H
  H158     1.0000 0.57810  0.76160  0.96710  Biso   1.000  H
  H159     1.0000 0.42190  0.26160  0.53290  Biso   1.000  H
  H160     1.0000 0.07810  0.73840  0.03290  Biso   1.000  H
  H161     1.0000 0.00760  0.28900  0.48910  Biso   1.000  H
  H162     1.0000 0.49240  0.71100  0.98910  Biso   1.000  H
  H163     1.0000 0.50760  0.21100  0.51090  Biso   1.000  H
  H164     1.0000 0.99240  0.78900  0.01090  Biso   1.000  H
  H165     1.0000 0.92470  0.30050  0.44600  Biso   1.000  H
  H166     1.0000 0.57530  0.69950  0.94600  Biso   1.000  H
  H167     1.0000 0.42470  0.19950  0.55400  Biso   1.000  H
  H168     1.0000 0.07530  0.80050  0.05400  Biso   1.000  H
  C193     1.0000 0.10700  0.62490  0.43030  Biso   1.000  C
  C194     1.0000 0.39300  0.37510  0.93030  Biso   1.000  C
  C195     1.0000 0.60700  0.87510  0.56970  Biso   1.000  C
  C196     1.0000 0.89300  0.12490  0.06970  Biso   1.000  C
  H169     1.0000 0.03090  0.62270  0.44940  Biso   1.000  H
  H170     1.0000 0.46910  0.37730  0.94940  Biso   1.000  H
  H171     1.0000 0.53090  0.87730  0.55060  Biso   1.000  H
  H172     1.0000 0.96910  0.12270  0.05060  Biso   1.000  H
  C197     1.0000 0.63000  0.97230  0.68280  Biso   1.000  C
  C198     1.0000 0.87000  0.02770  0.18280  Biso   1.000  C
  C199     1.0000 0.13000  0.52770  0.31720  Biso   1.000  C
  C200     1.0000 0.37000  0.47230  0.81720  Biso   1.000  C
  H173     1.0000 0.68390  0.00760  0.68640  Biso   1.000  H
  H174     1.0000 0.81610  0.99240  0.18640  Biso   1.000  H
  H175     1.0000 0.18390  0.49240  0.31360  Biso   1.000  H
  H176     1.0000 0.31610  0.50760  0.81360  Biso   1.000  H
  H177     1.0000 0.53940  0.98110  0.66990  Biso   1.000  H
  H178     1.0000 0.96060  0.01890  0.16990  Biso   1.000  H
  H179     1.0000 0.03940  0.51890  0.33010  Biso   1.000  H
  H180     1.0000 0.46060  0.48110  0.83010  Biso   1.000  H
  H181     1.0000 0.68190  0.94600  0.66450  Biso   1.000  H
  H182     1.0000 0.81810  0.05400  0.16450  Biso   1.000  H
  H183     1.0000 0.18190  0.55400  0.33550  Biso   1.000  H
  H184     1.0000 0.31810  0.44600  0.83550  Biso   1.000  H
  O65      1.0000 0.30800  0.78850  0.57300  Biso   1.000  O
  O66      1.0000 0.19200  0.21150  0.07300  Biso   1.000  O
  O67      1.0000 0.80800  0.71150  0.42700  Biso   1.000  O
  O68      1.0000 0.69200  0.28850  0.92700  Biso   1.000  O
  C201     1.0000 0.14200  0.82280  0.51930  Biso   1.000  C
  C202     1.0000 0.35800  0.17720  0.01930  Biso   1.000  C
  C203     1.0000 0.64200  0.67720  0.48070  Biso   1.000  C
  C204     1.0000 0.85800  0.32280  0.98070  Biso   1.000  C
  H185     1.0000 0.24300  0.82900  0.52240  Biso   1.000  H
  H186     1.0000 0.25700  0.17100  0.02240  Biso   1.000  H
  H187     1.0000 0.74300  0.67100  0.47760  Biso   1.000  H
  H188     1.0000 0.75700  0.32900  0.97760  Biso   1.000  H
  H189     1.0000 0.09110  0.85270  0.53430  Biso   1.000  H
  H190     1.0000 0.40890  0.14730  0.03430  Biso   1.000  H
  H191     1.0000 0.59110  0.64730  0.46570  Biso   1.000  H
  H192     1.0000 0.90890  0.35270  0.96570  Biso   1.000  H
  H193     1.0000 0.11710  0.82390  0.48930  Biso   1.000  H
  H194     1.0000 0.38290  0.17610  0.98930  Biso   1.000  H
  H195     1.0000 0.61710  0.67610  0.51070  Biso   1.000  H
  H196     1.0000 0.88290  0.32390  0.01070  Biso   1.000  H
  N37      1.0000 0.10400  0.76430  0.53770  Biso   1.000  N
  N38      1.0000 0.39600  0.23570  0.03770  Biso   1.000  N
  N39      1.0000 0.60400  0.73570  0.46230  Biso   1.000  N
  N40      1.0000 0.89600  0.26430  0.96230  Biso   1.000  N
  C205     1.0000 0.22200  0.74780  0.56730  Biso   1.000  C
  C206     1.0000 0.27800  0.25220  0.06730  Biso   1.000  C
  C207     1.0000 0.72200  0.75220  0.43270  Biso   1.000  C
  C208     1.0000 0.77800  0.24780  0.93270  Biso   1.000  C
  C209     1.0000 0.97200  0.72880  0.52920  Biso   1.000  C
  C210     1.0000 0.52800  0.27120  0.02920  Biso   1.000  C
  C211     1.0000 0.47200  0.77120  0.47080  Biso   1.000  C
  C212     1.0000 0.02800  0.22880  0.97080  Biso   1.000  C
  H197     1.0000 0.94310  0.73410  0.49980  Biso   1.000  H
  H198     1.0000 0.55690  0.26590  0.99980  Biso   1.000  H
  H199     1.0000 0.44310  0.76590  0.50020  Biso   1.000  H
  H200     1.0000 0.05690  0.23410  0.00020  Biso   1.000  H
  H201     1.0000 0.89640  0.74140  0.54790  Biso   1.000  H
  H202     1.0000 0.60360  0.25860  0.04790  Biso   1.000  H
  H203     1.0000 0.39640  0.75860  0.45210  Biso   1.000  H
  H204     1.0000 0.10360  0.24140  0.95210  Biso   1.000  H
  H205     1.0000 0.99180  0.68830  0.53430  Biso   1.000  H
  H206     1.0000 0.50820  0.31170  0.03430  Biso   1.000  H
  H207     1.0000 0.49180  0.81170  0.46570  Biso   1.000  H
  H208     1.0000 0.00820  0.18830  0.96570  Biso   1.000  H
  C213     1.0000 0.17500  0.69210  0.58920  Biso   1.000  C
  C214     1.0000 0.32500  0.30790  0.08920  Biso   1.000  C
  C215     1.0000 0.67500  0.80790  0.41080  Biso   1.000  C
  C216     1.0000 0.82500  0.19210  0.91080  Biso   1.000  C
  H209     1.0000 0.22270  0.68810  0.61640  Biso   1.000  H
  H210     1.0000 0.27730  0.31190  0.11640  Biso   1.000  H
  H211     1.0000 0.72270  0.81190  0.38360  Biso   1.000  H
  H212     1.0000 0.77730  0.18810  0.88360  Biso   1.000  H
  H213     1.0000 0.19980  0.65980  0.57100  Biso   1.000  H
  H214     1.0000 0.30020  0.34020  0.07100  Biso   1.000  H
  H215     1.0000 0.69980  0.84020  0.42900  Biso   1.000  H
  H216     1.0000 0.80020  0.15980  0.92900  Biso   1.000  H
  H217     1.0000 0.07340  0.69250  0.59370  Biso   1.000  H
  H218     1.0000 0.42660  0.30750  0.09370  Biso   1.000  H
  H219     1.0000 0.57340  0.80750  0.40630  Biso   1.000  H
  H220     1.0000 0.92660  0.19250  0.90630  Biso   1.000  H
