data_image0
_cell_length_a       9.254
_cell_length_b       23.199
_cell_length_c       30.538
_cell_angle_alpha    90
_cell_angle_beta     90
_cell_angle_gamma    90

_symmetry_space_group_name_H-M    "P 1"
_symmetry_int_tables_number       1

loop_
  _symmetry_equiv_pos_as_xyz
  'x, y, z'

loop_
  _atom_site_label
  _atom_site_occupancy
  _atom_site_fract_x
  _atom_site_fract_y
  _atom_site_fract_z
  _atom_site_thermal_displace_type
  _atom_site_B_iso_or_equiv
  _atom_site_type_symbol
  Er1      1.0000 0.01157  0.96506  0.47801  Biso   1.000  Er
  Er2      1.0000 0.48843  0.03494  0.97801  Biso   1.000  Er
  Er3      1.0000 0.51157  0.53494  0.52199  Biso   1.000  Er
  Er4      1.0000 0.98843  0.46506  0.02199  Biso   1.000  Er
  Er5      1.0000 0.54321  0.93994  0.48432  Biso   1.000  Er
  Er6      1.0000 0.95679  0.06006  0.98432  Biso   1.000  Er
  Er7      1.0000 0.04321  0.56006  0.51568  Biso   1.000  Er
  Er8      1.0000 0.45679  0.43994  0.01568  Biso   1.000  Er
  I1       1.0000 0.97947  0.77075  0.21404  Biso   1.000  I
  I2       1.0000 0.52053  0.22925  0.71404  Biso   1.000  I
  I3       1.0000 0.47947  0.72925  0.78596  Biso   1.000  I
  I4       1.0000 0.02053  0.27075  0.28596  Biso   1.000  I
  I5       1.0000 0.48664  0.75569  0.22395  Biso   1.000  I
  I6       1.0000 0.01336  0.24431  0.72395  Biso   1.000  I
  I7       1.0000 0.98664  0.74431  0.77605  Biso   1.000  I
  I8       1.0000 0.51336  0.25569  0.27605  Biso   1.000  I
  I9       1.0000 0.79045  0.60868  0.25132  Biso   1.000  I
  I10      1.0000 0.70955  0.39132  0.75132  Biso   1.000  I
  I11      1.0000 0.29045  0.89132  0.74868  Biso   1.000  I
  I12      1.0000 0.20955  0.10868  0.24868  Biso   1.000  I
  Cu1      1.0000 0.72109  0.76523  0.17560  Biso   1.000  Cu
  Cu2      1.0000 0.77891  0.23477  0.67560  Biso   1.000  Cu
  Cu3      1.0000 0.22109  0.73477  0.82440  Biso   1.000  Cu
  Cu4      1.0000 0.27891  0.26523  0.32440  Biso   1.000  Cu
  Cu5      1.0000 0.50522  0.64387  0.24956  Biso   1.000  Cu
  Cu6      1.0000 0.99478  0.35613  0.74956  Biso   1.000  Cu
  Cu7      1.0000 0.00522  0.85613  0.75044  Biso   1.000  Cu
  Cu8      1.0000 0.49478  0.14387  0.25044  Biso   1.000  Cu
  Cu9      1.0000 0.04830  0.88090  0.22196  Biso   1.000  Cu
  Cu10     1.0000 0.45170  0.11910  0.72196  Biso   1.000  Cu
  Cu11     1.0000 0.54830  0.61910  0.77804  Biso   1.000  Cu
  Cu12     1.0000 0.95170  0.38090  0.27804  Biso   1.000  Cu
  Cu13     1.0000 0.74489  0.71848  0.25697  Biso   1.000  Cu
  Cu14     1.0000 0.75511  0.28152  0.75697  Biso   1.000  Cu
  Cu15     1.0000 0.24489  0.78152  0.74303  Biso   1.000  Cu
  Cu16     1.0000 0.25511  0.21848  0.24303  Biso   1.000  Cu
  O1       1.0000 0.87630  0.03530  0.50800  Biso   1.000  O
  O2       1.0000 0.62370  0.96470  0.00800  Biso   1.000  O
  O3       1.0000 0.37630  0.46470  0.49200  Biso   1.000  O
  O4       1.0000 0.12370  0.53530  0.99200  Biso   1.000  O
  O5       1.0000 0.20550  0.92560  0.44200  Biso   1.000  O
  O6       1.0000 0.29450  0.07440  0.94200  Biso   1.000  O
  O7       1.0000 0.70550  0.57440  0.55800  Biso   1.000  O
  O8       1.0000 0.79450  0.42560  0.05800  Biso   1.000  O
  O9       1.0000 0.17630  0.03690  0.46820  Biso   1.000  O
  O10      1.0000 0.32370  0.96310  0.96820  Biso   1.000  O
  O11      1.0000 0.67630  0.46310  0.53180  Biso   1.000  O
  O12      1.0000 0.82370  0.53690  0.03180  Biso   1.000  O
  O13      1.0000 0.69090  0.86880  0.45560  Biso   1.000  O
  O14      1.0000 0.80910  0.13120  0.95560  Biso   1.000  O
  O15      1.0000 0.19090  0.63120  0.54440  Biso   1.000  O
  O16      1.0000 0.30910  0.36880  0.04440  Biso   1.000  O
  N1       1.0000 0.37730  0.07470  0.66980  Biso   1.000  N
  N2       1.0000 0.12270  0.92530  0.16980  Biso   1.000  N
  N3       1.0000 0.87730  0.42530  0.33020  Biso   1.000  N
  N4       1.0000 0.62270  0.57470  0.83020  Biso   1.000  N
  O17      1.0000 0.42970  0.91540  0.41810  Biso   1.000  O
  O18      1.0000 0.07030  0.08460  0.91810  Biso   1.000  O
  O19      1.0000 0.92970  0.58460  0.58190  Biso   1.000  O
  O20      1.0000 0.57030  0.41540  0.08190  Biso   1.000  O
  O21      1.0000 0.41580  0.02520  0.46160  Biso   1.000  O
  O22      1.0000 0.08420  0.97480  0.96160  Biso   1.000  O
  O23      1.0000 0.91580  0.47480  0.53840  Biso   1.000  O
  O24      1.0000 0.58420  0.52520  0.03840  Biso   1.000  O
  C1       1.0000 0.80200  0.86340  0.43260  Biso   1.000  C
  C2       1.0000 0.69800  0.13660  0.93260  Biso   1.000  C
  C3       1.0000 0.30200  0.63660  0.56740  Biso   1.000  C
  C4       1.0000 0.19800  0.36340  0.06740  Biso   1.000  C
  N5       1.0000 0.76620  0.75570  0.31820  Biso   1.000  N
  N6       1.0000 0.73380  0.24430  0.81820  Biso   1.000  N
  N7       1.0000 0.26620  0.74430  0.68180  Biso   1.000  N
  N8       1.0000 0.23380  0.25570  0.18180  Biso   1.000  N
  C5       1.0000 0.97760  0.89240  0.61390  Biso   1.000  C
  C6       1.0000 0.52240  0.10760  0.11390  Biso   1.000  C
  C7       1.0000 0.47760  0.60760  0.38610  Biso   1.000  C
  C8       1.0000 0.02240  0.39240  0.88610  Biso   1.000  C
  H1       1.0000 0.04380  0.90580  0.59340  Biso   1.000  H
  H2       1.0000 0.45620  0.09420  0.09340  Biso   1.000  H
  H3       1.0000 0.54380  0.59420  0.40660  Biso   1.000  H
  H4       1.0000 0.95620  0.40580  0.90660  Biso   1.000  H
  C9       1.0000 0.26950  0.97610  0.55460  Biso   1.000  C
  C10      1.0000 0.23050  0.02390  0.05460  Biso   1.000  C
  C11      1.0000 0.76950  0.52390  0.44540  Biso   1.000  C
  C12      1.0000 0.73050  0.47610  0.94540  Biso   1.000  C
  C13      1.0000 0.91250  0.80820  0.36830  Biso   1.000  C
  C14      1.0000 0.58750  0.19180  0.86830  Biso   1.000  C
  C15      1.0000 0.41250  0.69180  0.63170  Biso   1.000  C
  C16      1.0000 0.08750  0.30820  0.13170  Biso   1.000  C
  H5       1.0000 0.00390  0.82070  0.37660  Biso   1.000  H
  H6       1.0000 0.49610  0.17930  0.87660  Biso   1.000  H
  H7       1.0000 0.50390  0.67930  0.62340  Biso   1.000  H
  H8       1.0000 0.99610  0.32070  0.12340  Biso   1.000  H
  O25      1.0000 0.92030  0.01000  0.41370  Biso   1.000  O
  O26      1.0000 0.57970  0.99000  0.91370  Biso   1.000  O
  O27      1.0000 0.42030  0.49000  0.58630  Biso   1.000  O
  O28      1.0000 0.07970  0.51000  0.08630  Biso   1.000  O
  N9       1.0000 0.77760  0.16810  0.63230  Biso   1.000  N
  N10      1.0000 0.72240  0.83190  0.13230  Biso   1.000  N
  N11      1.0000 0.27760  0.33190  0.36770  Biso   1.000  N
  N12      1.0000 0.22240  0.66810  0.86770  Biso   1.000  N
  C17      1.0000 0.76610  0.04150  0.52770  Biso   1.000  C
  C18      1.0000 0.73390  0.95850  0.02770  Biso   1.000  C
  C19      1.0000 0.26610  0.45850  0.47230  Biso   1.000  C
  C20      1.0000 0.23390  0.54150  0.97230  Biso   1.000  C
  O29      1.0000 0.88450  0.91330  0.52890  Biso   1.000  O
  O30      1.0000 0.61550  0.08670  0.02890  Biso   1.000  O
  O31      1.0000 0.38450  0.58670  0.47110  Biso   1.000  O
  O32      1.0000 0.11550  0.41330  0.97110  Biso   1.000  O
  N13      1.0000 0.13110  0.89370  0.28190  Biso   1.000  N
  N14      1.0000 0.36890  0.10630  0.78190  Biso   1.000  N
  N15      1.0000 0.63110  0.60630  0.71810  Biso   1.000  N
  N16      1.0000 0.86890  0.39370  0.21810  Biso   1.000  N
  C21      1.0000 0.79050  0.82380  0.39250  Biso   1.000  C
  C22      1.0000 0.70950  0.17620  0.89250  Biso   1.000  C
  C23      1.0000 0.29050  0.67620  0.60750  Biso   1.000  C
  C24      1.0000 0.20950  0.32380  0.10750  Biso   1.000  C
  C25      1.0000 0.78150  0.00630  0.40820  Biso   1.000  C
  C26      1.0000 0.71850  0.99370  0.90820  Biso   1.000  C
  C27      1.0000 0.28150  0.49370  0.59180  Biso   1.000  C
  C28      1.0000 0.21850  0.50630  0.09180  Biso   1.000  C
  C29      1.0000 0.78790  0.90110  0.55600  Biso   1.000  C
  C30      1.0000 0.71210  0.09890  0.05600  Biso   1.000  C
  C31      1.0000 0.28790  0.59890  0.44400  Biso   1.000  C
  C32      1.0000 0.21210  0.40110  0.94400  Biso   1.000  C
  O33      1.0000 0.42530  0.84790  0.49500  Biso   1.000  O
  O34      1.0000 0.07470  0.15210  0.99500  Biso   1.000  O
  O35      1.0000 0.92530  0.65210  0.50500  Biso   1.000  O
  O36      1.0000 0.57470  0.34790  0.00500  Biso   1.000  O
  C33      1.0000 0.24030  0.91020  0.36650  Biso   1.000  C
  C34      1.0000 0.25970  0.08980  0.86650  Biso   1.000  C
  C35      1.0000 0.74030  0.58980  0.63350  Biso   1.000  C
  C36      1.0000 0.75970  0.41020  0.13350  Biso   1.000  C
  O37      1.0000 0.64490  0.01580  0.52260  Biso   1.000  O
  O38      1.0000 0.85510  0.98420  0.02260  Biso   1.000  O
  O39      1.0000 0.14490  0.48420  0.47740  Biso   1.000  O
  O40      1.0000 0.35510  0.51580  0.97740  Biso   1.000  O
  C37      1.0000 0.64280  0.10300  0.58640  Biso   1.000  C
  C38      1.0000 0.85720  0.89700  0.08640  Biso   1.000  C
  C39      1.0000 0.14280  0.39700  0.41360  Biso   1.000  C
  C40      1.0000 0.35720  0.60300  0.91360  Biso   1.000  C
  H9       1.0000 0.55420  0.08660  0.57920  Biso   1.000  H
  H10      1.0000 0.94580  0.91340  0.07920  Biso   1.000  H
  H11      1.0000 0.05420  0.41340  0.42080  Biso   1.000  H
  H12      1.0000 0.44580  0.58660  0.92080  Biso   1.000  H
  N17      1.0000 0.29540  0.19370  0.36490  Biso   1.000  N
  N18      1.0000 0.20460  0.80630  0.86490  Biso   1.000  N
  N19      1.0000 0.79540  0.30630  0.63510  Biso   1.000  N
  N20      1.0000 0.70460  0.69370  0.13510  Biso   1.000  N
  C41      1.0000 0.29610  0.04930  0.45340  Biso   1.000  C
  C42      1.0000 0.20390  0.95070  0.95340  Biso   1.000  C
  C43      1.0000 0.79610  0.45070  0.54660  Biso   1.000  C
  C44      1.0000 0.70390  0.54930  0.04660  Biso   1.000  C
  O41      1.0000 0.37280  0.95360  0.53660  Biso   1.000  O
  O42      1.0000 0.12720  0.04640  0.03660  Biso   1.000  O
  O43      1.0000 0.87280  0.54640  0.46340  Biso   1.000  O
  O44      1.0000 0.62720  0.45360  0.96340  Biso   1.000  O
  C45      1.0000 0.30370  0.01050  0.59530  Biso   1.000  C
  C46      1.0000 0.19630  0.98950  0.09530  Biso   1.000  C
  C47      1.0000 0.80370  0.48950  0.40470  Biso   1.000  C
  C48      1.0000 0.69630  0.51050  0.90470  Biso   1.000  C
  O45      1.0000 0.14170  0.97430  0.54280  Biso   1.000  O
  O46      1.0000 0.35830  0.02570  0.04280  Biso   1.000  O
  O47      1.0000 0.64170  0.52570  0.45720  Biso   1.000  O
  O48      1.0000 0.85830  0.47430  0.95720  Biso   1.000  O
  C49      1.0000 0.33500  0.83260  0.56780  Biso   1.000  C
  C50      1.0000 0.16500  0.16740  0.06780  Biso   1.000  C
  C51      1.0000 0.83500  0.66740  0.43220  Biso   1.000  C
  C52      1.0000 0.66500  0.33260  0.93220  Biso   1.000  C
  H13      1.0000 0.43380  0.83680  0.57680  Biso   1.000  H
  H14      1.0000 0.06620  0.16320  0.07680  Biso   1.000  H
  H15      1.0000 0.93380  0.66320  0.42320  Biso   1.000  H
  H16      1.0000 0.56620  0.33680  0.92320  Biso   1.000  H
  H17      1.0000 0.29440  0.79890  0.58130  Biso   1.000  H
  H18      1.0000 0.20560  0.20110  0.08130  Biso   1.000  H
  H19      1.0000 0.79440  0.70110  0.41870  Biso   1.000  H
  H20      1.0000 0.70560  0.29890  0.91870  Biso   1.000  H
  H21      1.0000 0.28100  0.86600  0.57670  Biso   1.000  H
  H22      1.0000 0.21900  0.13400  0.07670  Biso   1.000  H
  H23      1.0000 0.78100  0.63400  0.42330  Biso   1.000  H
  H24      1.0000 0.71900  0.36600  0.92330  Biso   1.000  H
  C53      1.0000 0.13910  0.94580  0.34860  Biso   1.000  C
  C54      1.0000 0.36090  0.05420  0.84860  Biso   1.000  C
  C55      1.0000 0.63910  0.55420  0.65140  Biso   1.000  C
  C56      1.0000 0.86090  0.44580  0.15140  Biso   1.000  C
  H25      1.0000 0.10080  0.97580  0.36510  Biso   1.000  H
  H26      1.0000 0.39920  0.02420  0.86510  Biso   1.000  H
  H27      1.0000 0.60080  0.52420  0.63490  Biso   1.000  H
  H28      1.0000 0.89920  0.47580  0.13490  Biso   1.000  H
  O49      1.0000 0.92480  0.88620  0.43860  Biso   1.000  O
  O50      1.0000 0.57520  0.11380  0.93860  Biso   1.000  O
  O51      1.0000 0.42480  0.61380  0.56140  Biso   1.000  O
  O52      1.0000 0.07520  0.38620  0.06140  Biso   1.000  O
  O53      1.0000 0.65220  0.89910  0.54800  Biso   1.000  O
  O54      1.0000 0.84780  0.10090  0.04800  Biso   1.000  O
  O55      1.0000 0.15220  0.60090  0.45200  Biso   1.000  O
  O56      1.0000 0.34780  0.39910  0.95200  Biso   1.000  O
  C57      1.0000 0.51770  0.06060  0.32390  Biso   1.000  C
  C58      1.0000 0.98230  0.93940  0.82390  Biso   1.000  C
  C59      1.0000 0.01770  0.43940  0.67610  Biso   1.000  C
  C60      1.0000 0.48230  0.56060  0.17610  Biso   1.000  C
  H29      1.0000 0.41950  0.05670  0.31820  Biso   1.000  H
  H30      1.0000 0.08050  0.94330  0.81820  Biso   1.000  H
  H31      1.0000 0.91950  0.44330  0.68180  Biso   1.000  H
  H32      1.0000 0.58050  0.55670  0.18180  Biso   1.000  H
  C61      1.0000 0.76770  0.08720  0.56410  Biso   1.000  C
  C62      1.0000 0.73230  0.91280  0.06410  Biso   1.000  C
  C63      1.0000 0.26770  0.41280  0.43590  Biso   1.000  C
  C64      1.0000 0.23230  0.58720  0.93590  Biso   1.000  C
  C65      1.0000 0.30070  0.10180  0.42370  Biso   1.000  C
  C66      1.0000 0.19930  0.89820  0.92370  Biso   1.000  C
  C67      1.0000 0.80070  0.39820  0.57630  Biso   1.000  C
  C68      1.0000 0.69930  0.60180  0.07630  Biso   1.000  C
  C69      1.0000 0.02150  0.88180  0.65690  Biso   1.000  C
  C70      1.0000 0.47850  0.11820  0.15690  Biso   1.000  C
  C71      1.0000 0.52150  0.61820  0.34310  Biso   1.000  C
  C72      1.0000 0.97850  0.38180  0.84310  Biso   1.000  C
  H33      1.0000 0.11570  0.89090  0.66500  Biso   1.000  H
  H34      1.0000 0.38430  0.10910  0.16500  Biso   1.000  H
  H35      1.0000 0.61570  0.60910  0.33500  Biso   1.000  H
  H36      1.0000 0.88430  0.39090  0.83500  Biso   1.000  H
  N21      1.0000 0.59420  0.09490  0.29740  Biso   1.000  N
  N22      1.0000 0.90580  0.90510  0.79740  Biso   1.000  N
  N23      1.0000 0.09420  0.40510  0.70260  Biso   1.000  N
  N24      1.0000 0.40580  0.59490  0.20260  Biso   1.000  N
  C73      1.0000 0.32820  0.82640  0.51790  Biso   1.000  C
  C74      1.0000 0.17180  0.17360  0.01790  Biso   1.000  C
  C75      1.0000 0.82820  0.67360  0.48210  Biso   1.000  C
  C76      1.0000 0.67180  0.32640  0.98210  Biso   1.000  C
  C77      1.0000 0.17760  0.11380  0.39830  Biso   1.000  C
  C78      1.0000 0.32240  0.88620  0.89830  Biso   1.000  C
  C79      1.0000 0.67760  0.38620  0.60170  Biso   1.000  C
  C80      1.0000 0.82240  0.61380  0.10170  Biso   1.000  C
  H37      1.0000 0.09580  0.09080  0.40080  Biso   1.000  H
  H38      1.0000 0.40420  0.90920  0.90080  Biso   1.000  H
  H39      1.0000 0.59580  0.40920  0.59920  Biso   1.000  H
  H40      1.0000 0.90420  0.59080  0.09920  Biso   1.000  H
  C81      1.0000 0.83540  0.88280  0.60180  Biso   1.000  C
  C82      1.0000 0.66460  0.11720  0.10180  Biso   1.000  C
  C83      1.0000 0.33540  0.61720  0.39820  Biso   1.000  C
  C84      1.0000 0.16460  0.38280  0.89820  Biso   1.000  C
  C85      1.0000 0.80350  0.06820  0.34070  Biso   1.000  C
  C86      1.0000 0.69650  0.93180  0.84070  Biso   1.000  C
  C87      1.0000 0.30350  0.43180  0.65930  Biso   1.000  C
  C88      1.0000 0.19650  0.56820  0.15930  Biso   1.000  C
  H41      1.0000 0.90290  0.07050  0.34470  Biso   1.000  H
  H42      1.0000 0.59710  0.92950  0.84470  Biso   1.000  H
  H43      1.0000 0.40290  0.42950  0.65530  Biso   1.000  H
  H44      1.0000 0.09710  0.57050  0.15530  Biso   1.000  H
  O57      1.0000 0.69900  0.98260  0.43360  Biso   1.000  O
  O58      1.0000 0.80100  0.01740  0.93360  Biso   1.000  O
  O59      1.0000 0.19900  0.51740  0.56640  Biso   1.000  O
  O60      1.0000 0.30100  0.48260  0.06640  Biso   1.000  O
  N25      1.0000 0.22240  0.79430  0.49990  Biso   1.000  N
  N26      1.0000 0.27760  0.20570  0.99990  Biso   1.000  N
  N27      1.0000 0.72240  0.70570  0.50010  Biso   1.000  N
  N28      1.0000 0.77760  0.29430  0.00010  Biso   1.000  N
  C89      1.0000 0.64840  0.77050  0.34130  Biso   1.000  C
  C90      1.0000 0.85160  0.22950  0.84130  Biso   1.000  C
  C91      1.0000 0.14840  0.72950  0.65870  Biso   1.000  C
  C92      1.0000 0.35160  0.27050  0.15870  Biso   1.000  C
  H45      1.0000 0.55860  0.75760  0.33180  Biso   1.000  H
  H46      1.0000 0.94140  0.24240  0.83180  Biso   1.000  H
  H47      1.0000 0.05860  0.74240  0.66820  Biso   1.000  H
  H48      1.0000 0.44140  0.25760  0.16820  Biso   1.000  H
  N29      1.0000 0.93350  0.85930  0.68670  Biso   1.000  N
  N30      1.0000 0.56650  0.14070  0.18670  Biso   1.000  N
  N31      1.0000 0.43350  0.64070  0.31330  Biso   1.000  N
  N32      1.0000 0.06650  0.35930  0.81330  Biso   1.000  N
  C93      1.0000 0.65510  0.80510  0.37970  Biso   1.000  C
  C94      1.0000 0.84490  0.19490  0.87970  Biso   1.000  C
  C95      1.0000 0.15510  0.69490  0.62030  Biso   1.000  C
  C96      1.0000 0.34490  0.30510  0.12030  Biso   1.000  C
  H49      1.0000 0.57240  0.81460  0.39540  Biso   1.000  H
  H50      1.0000 0.92760  0.18540  0.89540  Biso   1.000  H
  H51      1.0000 0.07240  0.68540  0.60460  Biso   1.000  H
  H52      1.0000 0.42760  0.31460  0.10460  Biso   1.000  H
  C97      1.0000 0.09440  0.93780  0.30710  Biso   1.000  C
  C98      1.0000 0.40560  0.06220  0.80710  Biso   1.000  C
  C99      1.0000 0.59440  0.56220  0.69290  Biso   1.000  C
  C100     1.0000 0.90560  0.43780  0.19290  Biso   1.000  C
  H53      1.0000 0.03290  0.96530  0.29520  Biso   1.000  H
  H54      1.0000 0.46710  0.03470  0.79520  Biso   1.000  H
  H55      1.0000 0.53290  0.53470  0.70480  Biso   1.000  H
  H56      1.0000 0.96710  0.46530  0.20480  Biso   1.000  H
  C101     1.0000 0.89690  0.11540  0.57430  Biso   1.000  C
  C102     1.0000 0.60310  0.88460  0.07430  Biso   1.000  C
  C103     1.0000 0.39690  0.38460  0.42570  Biso   1.000  C
  C104     1.0000 0.10310  0.61540  0.92570  Biso   1.000  C
  H57      1.0000 0.98050  0.10820  0.55820  Biso   1.000  H
  H58      1.0000 0.51950  0.89180  0.05820  Biso   1.000  H
  H59      1.0000 0.48050  0.39180  0.44180  Biso   1.000  H
  H60      1.0000 0.01950  0.60820  0.94180  Biso   1.000  H
  C105     1.0000 0.72300  0.93090  0.24090  Biso   1.000  C
  C106     1.0000 0.77700  0.06910  0.74090  Biso   1.000  C
  C107     1.0000 0.22300  0.56910  0.75910  Biso   1.000  C
  C108     1.0000 0.27700  0.43090  0.25910  Biso   1.000  C
  C109     1.0000 0.22720  0.85750  0.29980  Biso   1.000  C
  C110     1.0000 0.27280  0.14250  0.79980  Biso   1.000  C
  C111     1.0000 0.72720  0.64250  0.70020  Biso   1.000  C
  C112     1.0000 0.77280  0.35750  0.20020  Biso   1.000  C
  H61      1.0000 0.25490  0.82570  0.28320  Biso   1.000  H
  H62      1.0000 0.24510  0.17430  0.78320  Biso   1.000  H
  H63      1.0000 0.75490  0.67430  0.71680  Biso   1.000  H
  H64      1.0000 0.74510  0.32570  0.21680  Biso   1.000  H
  C113     1.0000 0.28810  0.86340  0.34060  Biso   1.000  C
  C114     1.0000 0.21190  0.13660  0.84060  Biso   1.000  C
  C115     1.0000 0.78810  0.63660  0.65940  Biso   1.000  C
  C116     1.0000 0.71190  0.36340  0.15940  Biso   1.000  C
  H65      1.0000 0.35780  0.83780  0.35070  Biso   1.000  H
  H66      1.0000 0.14220  0.16220  0.85070  Biso   1.000  H
  H67      1.0000 0.85780  0.66220  0.64930  Biso   1.000  H
  H68      1.0000 0.64220  0.33780  0.14930  Biso   1.000  H
  C117     1.0000 0.65280  0.14340  0.61920  Biso   1.000  C
  C118     1.0000 0.84720  0.85660  0.11920  Biso   1.000  C
  C119     1.0000 0.15280  0.35660  0.38080  Biso   1.000  C
  C120     1.0000 0.34720  0.64340  0.88080  Biso   1.000  C
  H69      1.0000 0.56810  0.15440  0.63330  Biso   1.000  H
  H70      1.0000 0.93190  0.84560  0.13330  Biso   1.000  H
  H71      1.0000 0.06810  0.34560  0.36670  Biso   1.000  H
  H72      1.0000 0.43190  0.65440  0.86670  Biso   1.000  H
  C121     1.0000 0.71930  0.03620  0.36780  Biso   1.000  C
  C122     1.0000 0.78070  0.96380  0.86780  Biso   1.000  C
  C123     1.0000 0.21930  0.46380  0.63220  Biso   1.000  C
  C124     1.0000 0.28070  0.53620  0.13220  Biso   1.000  C
  C125     1.0000 0.89490  0.77410  0.33200  Biso   1.000  C
  C126     1.0000 0.60510  0.22590  0.83200  Biso   1.000  C
  C127     1.0000 0.39490  0.72590  0.66800  Biso   1.000  C
  C128     1.0000 0.10510  0.27410  0.16800  Biso   1.000  C
  H73      1.0000 0.97660  0.76330  0.31630  Biso   1.000  H
  H74      1.0000 0.52340  0.23670  0.81630  Biso   1.000  H
  H75      1.0000 0.47660  0.73670  0.68370  Biso   1.000  H
  H76      1.0000 0.02340  0.26330  0.18370  Biso   1.000  H
  O61      1.0000 0.85030  0.93760  0.22920  Biso   1.000  O
  O62      1.0000 0.64970  0.06240  0.72920  Biso   1.000  O
  O63      1.0000 0.35030  0.56240  0.77080  Biso   1.000  O
  O64      1.0000 0.14970  0.43760  0.27080  Biso   1.000  O
  C129     1.0000 0.26030  0.06740  0.60000  Biso   1.000  C
  C130     1.0000 0.23970  0.93260  0.10000  Biso   1.000  C
  C131     1.0000 0.76030  0.43260  0.40000  Biso   1.000  C
  C132     1.0000 0.73970  0.56740  0.90000  Biso   1.000  C
  H77      1.0000 0.20460  0.08520  0.57860  Biso   1.000  H
  H78      1.0000 0.29540  0.91480  0.07860  Biso   1.000  H
  H79      1.0000 0.70460  0.41480  0.42140  Biso   1.000  H
  H80      1.0000 0.79540  0.58520  0.92140  Biso   1.000  H
  C133     1.0000 0.73350  0.09810  0.30620  Biso   1.000  C
  C134     1.0000 0.76650  0.90190  0.80620  Biso   1.000  C
  C135     1.0000 0.23350  0.40190  0.69380  Biso   1.000  C
  C136     1.0000 0.26650  0.59810  0.19380  Biso   1.000  C
  H81      1.0000 0.78990  0.12160  0.28840  Biso   1.000  H
  H82      1.0000 0.71010  0.87840  0.78840  Biso   1.000  H
  H83      1.0000 0.28990  0.37840  0.71160  Biso   1.000  H
  H84      1.0000 0.21010  0.62160  0.21160  Biso   1.000  H
  C137     1.0000 0.57420  0.03080  0.35880  Biso   1.000  C
  C138     1.0000 0.92580  0.96920  0.85880  Biso   1.000  C
  C139     1.0000 0.07420  0.46920  0.64120  Biso   1.000  C
  C140     1.0000 0.42580  0.53080  0.14120  Biso   1.000  C
  H85      1.0000 0.51550  0.00740  0.37600  Biso   1.000  H
  H86      1.0000 0.98450  0.99260  0.87600  Biso   1.000  H
  H87      1.0000 0.01550  0.49260  0.62400  Biso   1.000  H
  H88      1.0000 0.48450  0.50740  0.12400  Biso   1.000  H
  C141     1.0000 0.41720  0.13740  0.41720  Biso   1.000  C
  C142     1.0000 0.08280  0.86260  0.91720  Biso   1.000  C
  C143     1.0000 0.91720  0.36260  0.58280  Biso   1.000  C
  C144     1.0000 0.58280  0.63740  0.08280  Biso   1.000  C
  H89      1.0000 0.50330  0.13080  0.43210  Biso   1.000  H
  H90      1.0000 0.99670  0.86920  0.93210  Biso   1.000  H
  H91      1.0000 0.00330  0.36920  0.56790  Biso   1.000  H
  H92      1.0000 0.49670  0.63080  0.06790  Biso   1.000  H
  C145     1.0000 0.30250  0.09740  0.63780  Biso   1.000  C
  C146     1.0000 0.19750  0.90260  0.13780  Biso   1.000  C
  C147     1.0000 0.80250  0.40260  0.36220  Biso   1.000  C
  C148     1.0000 0.69750  0.59740  0.86220  Biso   1.000  C
  H93      1.0000 0.27540  0.13580  0.64030  Biso   1.000  H
  H94      1.0000 0.22460  0.86420  0.14030  Biso   1.000  H
  H95      1.0000 0.77540  0.36420  0.35970  Biso   1.000  H
  H96      1.0000 0.72460  0.63580  0.85970  Biso   1.000  H
  C149     1.0000 0.09550  0.77610  0.52370  Biso   1.000  C
  C150     1.0000 0.40450  0.22390  0.02370  Biso   1.000  C
  C151     1.0000 0.59550  0.72390  0.47630  Biso   1.000  C
  C152     1.0000 0.90450  0.27610  0.97630  Biso   1.000  C
  H97      1.0000 0.09250  0.73480  0.52490  Biso   1.000  H
  H98      1.0000 0.40750  0.26520  0.02490  Biso   1.000  H
  H99      1.0000 0.59250  0.76520  0.47510  Biso   1.000  H
  H100     1.0000 0.90750  0.23480  0.97510  Biso   1.000  H
  H101     1.0000 0.01060  0.79020  0.50920  Biso   1.000  H
  H102     1.0000 0.48940  0.20980  0.00920  Biso   1.000  H
  H103     1.0000 0.51060  0.70980  0.49080  Biso   1.000  H
  H104     1.0000 0.98940  0.29020  0.99080  Biso   1.000  H
  H105     1.0000 0.09910  0.79130  0.55290  Biso   1.000  H
  H106     1.0000 0.40090  0.20870  0.05290  Biso   1.000  H
  H107     1.0000 0.59910  0.70870  0.44710  Biso   1.000  H
  H108     1.0000 0.90090  0.29130  0.94710  Biso   1.000  H
  C153     1.0000 0.29700  0.91770  0.41220  Biso   1.000  C
  C154     1.0000 0.20300  0.08230  0.91220  Biso   1.000  C
  C155     1.0000 0.79700  0.58230  0.58780  Biso   1.000  C
  C156     1.0000 0.70300  0.41770  0.08780  Biso   1.000  C
  C157     1.0000 0.74390  0.86000  0.63210  Biso   1.000  C
  C158     1.0000 0.75610  0.14000  0.13210  Biso   1.000  C
  C159     1.0000 0.24390  0.64000  0.36790  Biso   1.000  C
  C160     1.0000 0.25610  0.36000  0.86790  Biso   1.000  C
  H109     1.0000 0.64800  0.85260  0.62490  Biso   1.000  H
  H110     1.0000 0.85200  0.14740  0.12490  Biso   1.000  H
  H111     1.0000 0.14800  0.64740  0.37510  Biso   1.000  H
  H112     1.0000 0.35200  0.35260  0.87510  Biso   1.000  H
  N33      1.0000 0.61380  0.95250  0.21930  Biso   1.000  N
  N34      1.0000 0.88620  0.04750  0.71930  Biso   1.000  N
  N35      1.0000 0.11380  0.54750  0.78070  Biso   1.000  N
  N36      1.0000 0.38620  0.45250  0.28070  Biso   1.000  N
  C161     1.0000 0.89770  0.15410  0.60860  Biso   1.000  C
  C162     1.0000 0.60230  0.84590  0.10860  Biso   1.000  C
  C163     1.0000 0.39770  0.34590  0.39140  Biso   1.000  C
  C164     1.0000 0.10230  0.65410  0.89140  Biso   1.000  C
  H113     1.0000 0.98470  0.17170  0.61600  Biso   1.000  H
  H114     1.0000 0.51530  0.82830  0.11600  Biso   1.000  H
  H115     1.0000 0.48470  0.32830  0.38400  Biso   1.000  H
  H116     1.0000 0.01530  0.67170  0.88400  Biso   1.000  H
  C165     1.0000 0.69200  0.89700  0.28350  Biso   1.000  C
  C166     1.0000 0.80800  0.10300  0.78350  Biso   1.000  C
  C167     1.0000 0.19200  0.60300  0.71650  Biso   1.000  C
  C168     1.0000 0.30800  0.39700  0.21650  Biso   1.000  C
  H117     1.0000 0.64840  0.86060  0.27640  Biso   1.000  H
  H118     1.0000 0.85160  0.13940  0.77640  Biso   1.000  H
  H119     1.0000 0.14840  0.63940  0.72360  Biso   1.000  H
  H120     1.0000 0.35160  0.36060  0.22360  Biso   1.000  H
  H121     1.0000 0.62690  0.91880  0.30170  Biso   1.000  H
  H122     1.0000 0.87310  0.08120  0.80170  Biso   1.000  H
  H123     1.0000 0.12690  0.58120  0.69830  Biso   1.000  H
  H124     1.0000 0.37310  0.41880  0.19830  Biso   1.000  H
  H125     1.0000 0.78060  0.89050  0.29900  Biso   1.000  H
  H126     1.0000 0.71940  0.10950  0.79900  Biso   1.000  H
  H127     1.0000 0.28060  0.60950  0.70100  Biso   1.000  H
  H128     1.0000 0.21940  0.39050  0.20100  Biso   1.000  H
  C169     1.0000 0.41600  0.01920  0.66520  Biso   1.000  C
  C170     1.0000 0.08400  0.98080  0.16520  Biso   1.000  C
  C171     1.0000 0.91600  0.48080  0.33480  Biso   1.000  C
  C172     1.0000 0.58400  0.51920  0.83480  Biso   1.000  C
  H129     1.0000 0.46730  0.00160  0.68780  Biso   1.000  H
  H130     1.0000 0.03270  0.99840  0.18780  Biso   1.000  H
  H131     1.0000 0.96730  0.49840  0.31220  Biso   1.000  H
  H132     1.0000 0.53270  0.50160  0.81220  Biso   1.000  H
  C173     1.0000 0.79550  0.84770  0.67430  Biso   1.000  C
  C174     1.0000 0.70450  0.15230  0.17430  Biso   1.000  C
  C175     1.0000 0.29550  0.65230  0.32570  Biso   1.000  C
  C176     1.0000 0.20450  0.34770  0.82570  Biso   1.000  C
  H133     1.0000 0.73300  0.83100  0.69460  Biso   1.000  H
  H134     1.0000 0.76700  0.16900  0.19460  Biso   1.000  H
  H135     1.0000 0.23300  0.66900  0.30540  Biso   1.000  H
  H136     1.0000 0.26700  0.33100  0.80540  Biso   1.000  H
  C177     1.0000 0.17860  0.15980  0.36980  Biso   1.000  C
  C178     1.0000 0.32140  0.84020  0.86980  Biso   1.000  C
  C179     1.0000 0.67860  0.34020  0.63020  Biso   1.000  C
  C180     1.0000 0.82140  0.65980  0.13020  Biso   1.000  C
  H137     1.0000 0.09610  0.16760  0.35340  Biso   1.000  H
  H138     1.0000 0.40390  0.83240  0.85340  Biso   1.000  H
  H139     1.0000 0.59610  0.33240  0.64660  Biso   1.000  H
  H140     1.0000 0.90390  0.66760  0.14660  Biso   1.000  H
  C181     1.0000 0.23100  0.78280  0.45340  Biso   1.000  C
  C182     1.0000 0.26900  0.21720  0.95340  Biso   1.000  C
  C183     1.0000 0.73100  0.71720  0.54660  Biso   1.000  C
  C184     1.0000 0.76900  0.28280  0.04660  Biso   1.000  C
  H141     1.0000 0.31630  0.80070  0.44160  Biso   1.000  H
  H142     1.0000 0.18370  0.19930  0.94160  Biso   1.000  H
  H143     1.0000 0.81630  0.69930  0.55840  Biso   1.000  H
  H144     1.0000 0.68370  0.30070  0.05840  Biso   1.000  H
  H145     1.0000 0.14720  0.79800  0.43910  Biso   1.000  H
  H146     1.0000 0.35280  0.20200  0.93910  Biso   1.000  H
  H147     1.0000 0.64720  0.70200  0.56090  Biso   1.000  H
  H148     1.0000 0.85280  0.29800  0.06090  Biso   1.000  H
  H149     1.0000 0.23600  0.74190  0.44870  Biso   1.000  H
  H150     1.0000 0.26400  0.25810  0.94870  Biso   1.000  H
  H151     1.0000 0.73600  0.75810  0.55130  Biso   1.000  H
  H152     1.0000 0.76400  0.24190  0.05130  Biso   1.000  H
  C185     1.0000 0.40580  0.18110  0.38970  Biso   1.000  C
  C186     1.0000 0.09420  0.81890  0.88970  Biso   1.000  C
  C187     1.0000 0.90580  0.31890  0.61030  Biso   1.000  C
  C188     1.0000 0.59420  0.68110  0.11030  Biso   1.000  C
  H153     1.0000 0.48530  0.20550  0.38770  Biso   1.000  H
  H154     1.0000 0.01470  0.79450  0.88770  Biso   1.000  H
  H155     1.0000 0.98530  0.29450  0.61230  Biso   1.000  H
  H156     1.0000 0.51470  0.70550  0.11230  Biso   1.000  H
  C189     1.0000 0.38440  0.98810  0.62910  Biso   1.000  C
  C190     1.0000 0.11560  0.01190  0.12910  Biso   1.000  C
  C191     1.0000 0.88440  0.51190  0.37090  Biso   1.000  C
  C192     1.0000 0.61560  0.48810  0.87090  Biso   1.000  C
  H157     1.0000 0.41800  0.95040  0.62710  Biso   1.000  H
  H158     1.0000 0.08200  0.04960  0.12710  Biso   1.000  H
  H159     1.0000 0.91800  0.54960  0.37290  Biso   1.000  H
  H160     1.0000 0.58200  0.45040  0.87290  Biso   1.000  H
  C193     1.0000 0.65000  0.98440  0.17980  Biso   1.000  C
  C194     1.0000 0.85000  0.01560  0.67980  Biso   1.000  C
  C195     1.0000 0.15000  0.51560  0.82020  Biso   1.000  C
  C196     1.0000 0.35000  0.48440  0.32020  Biso   1.000  C
  H161     1.0000 0.70600  0.01770  0.18740  Biso   1.000  H
  H162     1.0000 0.79400  0.98230  0.68740  Biso   1.000  H
  H163     1.0000 0.20600  0.48230  0.81260  Biso   1.000  H
  H164     1.0000 0.29400  0.51770  0.31260  Biso   1.000  H
  H165     1.0000 0.56260  0.99630  0.16550  Biso   1.000  H
  H166     1.0000 0.93740  0.00370  0.66550  Biso   1.000  H
  H167     1.0000 0.06260  0.50370  0.83450  Biso   1.000  H
  H168     1.0000 0.43740  0.49630  0.33450  Biso   1.000  H
  H169     1.0000 0.70470  0.96010  0.16050  Biso   1.000  H
  H170     1.0000 0.79530  0.03990  0.66050  Biso   1.000  H
  H171     1.0000 0.20470  0.53990  0.83950  Biso   1.000  H
  H172     1.0000 0.29530  0.46010  0.33950  Biso   1.000  H
  C197     1.0000 0.46300  0.94730  0.23390  Biso   1.000  C
  C198     1.0000 0.03700  0.05270  0.73390  Biso   1.000  C
  C199     1.0000 0.96300  0.55270  0.76610  Biso   1.000  C
  C200     1.0000 0.53700  0.44730  0.26610  Biso   1.000  C
  H173     1.0000 0.42100  0.91300  0.22170  Biso   1.000  H
  H174     1.0000 0.07900  0.08700  0.72170  Biso   1.000  H
  H175     1.0000 0.92100  0.58700  0.77830  Biso   1.000  H
  H176     1.0000 0.57900  0.41300  0.27830  Biso   1.000  H
  H177     1.0000 0.40890  0.98030  0.22430  Biso   1.000  H
  H178     1.0000 0.09110  0.01970  0.72430  Biso   1.000  H
  H179     1.0000 0.90890  0.51970  0.77570  Biso   1.000  H
  H180     1.0000 0.59110  0.48030  0.27570  Biso   1.000  H
  H181     1.0000 0.45980  0.94510  0.26530  Biso   1.000  H
  H182     1.0000 0.04020  0.05490  0.76530  Biso   1.000  H
  H183     1.0000 0.95980  0.55490  0.73470  Biso   1.000  H
  H184     1.0000 0.54020  0.44510  0.23470  Biso   1.000  H
  N37      1.0000 0.78200  0.21730  0.44300  Biso   1.000  N
  N38      1.0000 0.71800  0.78270  0.94300  Biso   1.000  N
  N39      1.0000 0.28200  0.28270  0.55700  Biso   1.000  N
  N40      1.0000 0.21800  0.71730  0.05700  Biso   1.000  N
  O65      1.0000 0.68900  0.30420  0.44280  Biso   1.000  O
  O66      1.0000 0.81100  0.69580  0.94280  Biso   1.000  O
  O67      1.0000 0.18900  0.19580  0.55720  Biso   1.000  O
  O68      1.0000 0.31100  0.80420  0.05720  Biso   1.000  O
  C201     1.0000 0.71500  0.26110  0.46480  Biso   1.000  C
  C202     1.0000 0.78500  0.73890  0.96480  Biso   1.000  C
  C203     1.0000 0.21500  0.23890  0.53520  Biso   1.000  C
  C204     1.0000 0.28500  0.76110  0.03520  Biso   1.000  C
  C205     1.0000 0.82400  0.16060  0.46000  Biso   1.000  C
  C206     1.0000 0.67600  0.83940  0.96000  Biso   1.000  C
  C207     1.0000 0.32400  0.33940  0.54000  Biso   1.000  C
  C208     1.0000 0.17600  0.66060  0.04000  Biso   1.000  C
  H185     1.0000 0.83330  0.16260  0.49130  Biso   1.000  H
  H186     1.0000 0.66670  0.83740  0.99130  Biso   1.000  H
  H187     1.0000 0.33330  0.33740  0.50870  Biso   1.000  H
  H188     1.0000 0.16670  0.66260  0.00870  Biso   1.000  H
  H189     1.0000 0.91420  0.14930  0.44730  Biso   1.000  H
  H190     1.0000 0.58580  0.85070  0.94730  Biso   1.000  H
  H191     1.0000 0.41420  0.35070  0.55270  Biso   1.000  H
  H192     1.0000 0.08580  0.64930  0.05270  Biso   1.000  H
  H193     1.0000 0.75080  0.13290  0.45260  Biso   1.000  H
  H194     1.0000 0.74920  0.86710  0.95260  Biso   1.000  H
  H195     1.0000 0.25080  0.36710  0.54740  Biso   1.000  H
  H196     1.0000 0.24920  0.63290  0.04740  Biso   1.000  H
  C209     1.0000 0.81900  0.22850  0.39520  Biso   1.000  C
  C210     1.0000 0.68100  0.77150  0.89520  Biso   1.000  C
  C211     1.0000 0.31900  0.27150  0.60480  Biso   1.000  C
  C212     1.0000 0.18100  0.72850  0.10480  Biso   1.000  C
  H197     1.0000 0.75010  0.25480  0.38300  Biso   1.000  H
  H198     1.0000 0.74990  0.74520  0.88300  Biso   1.000  H
  H199     1.0000 0.25010  0.24520  0.61700  Biso   1.000  H
  H200     1.0000 0.24990  0.75480  0.11700  Biso   1.000  H
  H201     1.0000 0.81660  0.19290  0.37930  Biso   1.000  H
  H202     1.0000 0.68340  0.80710  0.87930  Biso   1.000  H
  H203     1.0000 0.31660  0.30710  0.62070  Biso   1.000  H
  H204     1.0000 0.18340  0.69290  0.12070  Biso   1.000  H
  H205     1.0000 0.91420  0.24490  0.39340  Biso   1.000  H
  H206     1.0000 0.58580  0.75510  0.89340  Biso   1.000  H
  H207     1.0000 0.41420  0.25510  0.60660  Biso   1.000  H
  H208     1.0000 0.08580  0.74490  0.10660  Biso   1.000  H
  C213     1.0000 0.68900  0.24670  0.51190  Biso   1.000  C
  C214     1.0000 0.81100  0.75330  0.01190  Biso   1.000  C
  C215     1.0000 0.18900  0.25330  0.48810  Biso   1.000  C
  C216     1.0000 0.31100  0.74670  0.98810  Biso   1.000  C
  H209     1.0000 0.65130  0.20830  0.51410  Biso   1.000  H
  H210     1.0000 0.84870  0.79170  0.01410  Biso   1.000  H
  H211     1.0000 0.15130  0.29170  0.48590  Biso   1.000  H
  H212     1.0000 0.34870  0.70830  0.98590  Biso   1.000  H
  H213     1.0000 0.62000  0.27340  0.52400  Biso   1.000  H
  H214     1.0000 0.88000  0.72660  0.02400  Biso   1.000  H
  H215     1.0000 0.12000  0.22660  0.47600  Biso   1.000  H
  H216     1.0000 0.38000  0.77340  0.97600  Biso   1.000  H
  H217     1.0000 0.77770  0.24940  0.52790  Biso   1.000  H
  H218     1.0000 0.72230  0.75060  0.02790  Biso   1.000  H
  H219     1.0000 0.27770  0.25060  0.47210  Biso   1.000  H
  H220     1.0000 0.22230  0.74940  0.97210  Biso   1.000  H
