data_image0
_cell_length_a       9.3276
_cell_length_b       22.879
_cell_length_c       31.057
_cell_angle_alpha    90
_cell_angle_beta     90
_cell_angle_gamma    90

_symmetry_space_group_name_H-M    "P 1"
_symmetry_int_tables_number       1

loop_
  _symmetry_equiv_pos_as_xyz
  'x, y, z'

loop_
  _atom_site_label
  _atom_site_occupancy
  _atom_site_fract_x
  _atom_site_fract_y
  _atom_site_fract_z
  _atom_site_thermal_displace_type
  _atom_site_B_iso_or_equiv
  _atom_site_type_symbol
  La1      1.0000 0.46267  0.55875  0.51494  Biso   1.000  La
  La2      1.0000 0.03733  0.44125  0.01494  Biso   1.000  La
  La3      1.0000 0.96267  0.94125  0.48506  Biso   1.000  La
  La4      1.0000 0.53733  0.05875  0.98506  Biso   1.000  La
  La5      1.0000 0.99333  0.52865  0.52196  Biso   1.000  La
  La6      1.0000 0.50667  0.47135  0.02196  Biso   1.000  La
  La7      1.0000 0.49333  0.97135  0.47804  Biso   1.000  La
  La8      1.0000 0.00667  0.02865  0.97804  Biso   1.000  La
  I1       1.0000 0.29019  0.10481  0.24604  Biso   1.000  I
  I2       1.0000 0.20981  0.89519  0.74604  Biso   1.000  I
  I3       1.0000 0.79019  0.39519  0.75396  Biso   1.000  I
  I4       1.0000 0.70981  0.60481  0.25396  Biso   1.000  I
  I5       1.0000 0.98605  0.25444  0.26957  Biso   1.000  I
  I6       1.0000 0.51395  0.74556  0.76957  Biso   1.000  I
  I7       1.0000 0.48605  0.24556  0.73043  Biso   1.000  I
  I8       1.0000 0.01395  0.75444  0.23043  Biso   1.000  I
  I9       1.0000 0.47180  0.27062  0.28165  Biso   1.000  I
  I10      1.0000 0.02820  0.72938  0.78165  Biso   1.000  I
  I11      1.0000 0.97180  0.22938  0.71835  Biso   1.000  I
  I12      1.0000 0.52820  0.77062  0.21835  Biso   1.000  I
  Cu1      1.0000 0.53790  0.38325  0.27454  Biso   1.000  Cu
  Cu2      1.0000 0.96210  0.61675  0.77454  Biso   1.000  Cu
  Cu3      1.0000 0.03790  0.11675  0.72546  Biso   1.000  Cu
  Cu4      1.0000 0.46210  0.88325  0.22546  Biso   1.000  Cu
  Cu5      1.0000 0.21510  0.26608  0.31761  Biso   1.000  Cu
  Cu6      1.0000 0.28490  0.73392  0.81761  Biso   1.000  Cu
  Cu7      1.0000 0.71510  0.23392  0.68239  Biso   1.000  Cu
  Cu8      1.0000 0.78490  0.76608  0.18239  Biso   1.000  Cu
  Cu9      1.0000 0.01400  0.13903  0.24879  Biso   1.000  Cu
  Cu10     1.0000 0.48600  0.86097  0.74879  Biso   1.000  Cu
  Cu11     1.0000 0.51400  0.36097  0.75121  Biso   1.000  Cu
  Cu12     1.0000 0.98600  0.63903  0.25121  Biso   1.000  Cu
  Cu13     1.0000 0.24400  0.21553  0.23914  Biso   1.000  Cu
  Cu14     1.0000 0.25600  0.78447  0.73914  Biso   1.000  Cu
  Cu15     1.0000 0.74400  0.28447  0.76086  Biso   1.000  Cu
  Cu16     1.0000 0.75600  0.71553  0.26086  Biso   1.000  Cu
  C1       1.0000 0.59000  0.44020  0.19190  Biso   1.000  C
  C2       1.0000 0.91000  0.55980  0.69190  Biso   1.000  C
  C3       1.0000 0.09000  0.05980  0.80810  Biso   1.000  C
  C4       1.0000 0.41000  0.94020  0.30810  Biso   1.000  C
  H1       1.0000 0.52900  0.46870  0.20280  Biso   1.000  H
  H2       1.0000 0.97100  0.53130  0.70280  Biso   1.000  H
  H3       1.0000 0.02900  0.03130  0.79720  Biso   1.000  H
  H4       1.0000 0.47100  0.96870  0.29720  Biso   1.000  H
  O1       1.0000 0.34000  0.43790  0.26760  Biso   1.000  O
  O2       1.0000 0.16000  0.56210  0.76760  Biso   1.000  O
  O3       1.0000 0.84000  0.06210  0.73240  Biso   1.000  O
  O4       1.0000 0.66000  0.93790  0.23240  Biso   1.000  O
  C5       1.0000 0.20700  0.42530  0.66300  Biso   1.000  C
  C6       1.0000 0.29300  0.57470  0.16300  Biso   1.000  C
  C7       1.0000 0.70700  0.07470  0.33700  Biso   1.000  C
  C8       1.0000 0.79300  0.92530  0.83700  Biso   1.000  C
  H5       1.0000 0.10930  0.41940  0.65930  Biso   1.000  H
  H6       1.0000 0.39070  0.58060  0.15930  Biso   1.000  H
  H7       1.0000 0.60930  0.08060  0.34070  Biso   1.000  H
  H8       1.0000 0.89070  0.91940  0.84070  Biso   1.000  H
  O5       1.0000 0.58550  0.65570  0.50130  Biso   1.000  O
  O6       1.0000 0.91450  0.34430  0.00130  Biso   1.000  O
  O7       1.0000 0.08550  0.84430  0.49870  Biso   1.000  O
  O8       1.0000 0.41450  0.15570  0.99870  Biso   1.000  O
  C9       1.0000 0.10800  0.33840  0.39090  Biso   1.000  C
  C10      1.0000 0.39200  0.66160  0.89090  Biso   1.000  C
  C11      1.0000 0.60800  0.16160  0.60910  Biso   1.000  C
  C12      1.0000 0.89200  0.83840  0.10910  Biso   1.000  C
  H9       1.0000 0.02170  0.32030  0.38410  Biso   1.000  H
  H10      1.0000 0.47830  0.67970  0.88410  Biso   1.000  H
  H11      1.0000 0.52170  0.17970  0.61590  Biso   1.000  H
  H12      1.0000 0.97830  0.82030  0.11590  Biso   1.000  H
  C13      1.0000 0.62160  0.39250  0.21610  Biso   1.000  C
  C14      1.0000 0.87840  0.60750  0.71610  Biso   1.000  C
  C15      1.0000 0.12160  0.10750  0.78390  Biso   1.000  C
  C16      1.0000 0.37840  0.89250  0.28390  Biso   1.000  C
  O9       1.0000 0.93130  0.40840  0.08640  Biso   1.000  O
  O10      1.0000 0.56870  0.59160  0.58640  Biso   1.000  O
  O11      1.0000 0.43130  0.09160  0.91360  Biso   1.000  O
  O12      1.0000 0.06870  0.90840  0.41360  Biso   1.000  O
  C17      1.0000 0.64500  0.44660  0.15330  Biso   1.000  C
  C18      1.0000 0.85500  0.55340  0.65330  Biso   1.000  C
  C19      1.0000 0.14500  0.05340  0.84670  Biso   1.000  C
  C20      1.0000 0.35500  0.94660  0.34670  Biso   1.000  C
  H13      1.0000 0.62010  0.48010  0.13810  Biso   1.000  H
  H14      1.0000 0.87990  0.51990  0.63810  Biso   1.000  H
  H15      1.0000 0.12010  0.01990  0.86190  Biso   1.000  H
  H16      1.0000 0.37990  0.98010  0.36190  Biso   1.000  H
  O13      1.0000 0.87320  0.50980  0.45220  Biso   1.000  O
  O14      1.0000 0.62680  0.49020  0.95220  Biso   1.000  O
  O15      1.0000 0.37320  0.99020  0.54780  Biso   1.000  O
  O16      1.0000 0.12680  0.00980  0.04780  Biso   1.000  O
  O17      1.0000 0.81360  0.45280  0.53420  Biso   1.000  O
  O18      1.0000 0.68640  0.54720  0.03420  Biso   1.000  O
  O19      1.0000 0.31360  0.04720  0.46580  Biso   1.000  O
  O20      1.0000 0.18640  0.95280  0.96580  Biso   1.000  O
  O21      1.0000 0.64810  0.54000  0.46250  Biso   1.000  O
  O22      1.0000 0.85190  0.46000  0.96250  Biso   1.000  O
  O23      1.0000 0.14810  0.96000  0.53750  Biso   1.000  O
  O24      1.0000 0.35190  0.04000  0.03750  Biso   1.000  O
  O25      1.0000 0.13420  0.44870  0.49700  Biso   1.000  O
  O26      1.0000 0.36580  0.55130  0.99700  Biso   1.000  O
  O27      1.0000 0.63420  0.05130  0.50300  Biso   1.000  O
  O28      1.0000 0.86580  0.94870  0.00300  Biso   1.000  O
  O29      1.0000 0.35260  0.47390  0.47530  Biso   1.000  O
  O30      1.0000 0.14740  0.52610  0.97530  Biso   1.000  O
  O31      1.0000 0.85260  0.02610  0.52470  Biso   1.000  O
  O32      1.0000 0.64740  0.97390  0.02470  Biso   1.000  O
  N1       1.0000 0.10800  0.44620  0.27750  Biso   1.000  N
  N2       1.0000 0.39200  0.55380  0.77750  Biso   1.000  N
  N3       1.0000 0.60800  0.05380  0.72250  Biso   1.000  N
  N4       1.0000 0.89200  0.94620  0.22250  Biso   1.000  N
  O33      1.0000 0.57980  0.46930  0.54290  Biso   1.000  O
  O34      1.0000 0.92020  0.53070  0.04290  Biso   1.000  O
  O35      1.0000 0.07980  0.03070  0.45710  Biso   1.000  O
  O36      1.0000 0.42020  0.96930  0.95710  Biso   1.000  O
  C21      1.0000 0.10600  0.72980  0.66390  Biso   1.000  C
  C22      1.0000 0.39400  0.27020  0.16390  Biso   1.000  C
  C23      1.0000 0.60600  0.77020  0.33610  Biso   1.000  C
  C24      1.0000 0.89400  0.22980  0.83610  Biso   1.000  C
  H17      1.0000 0.02310  0.74170  0.67820  Biso   1.000  H
  H18      1.0000 0.47690  0.25830  0.17820  Biso   1.000  H
  H19      1.0000 0.52310  0.75830  0.32180  Biso   1.000  H
  H20      1.0000 0.97690  0.24170  0.82180  Biso   1.000  H
  C25      1.0000 0.33800  0.69740  0.61860  Biso   1.000  C
  C26      1.0000 0.16200  0.30260  0.11860  Biso   1.000  C
  C27      1.0000 0.83800  0.80260  0.38140  Biso   1.000  C
  C28      1.0000 0.66200  0.19740  0.88140  Biso   1.000  C
  H21      1.0000 0.41720  0.68840  0.60190  Biso   1.000  H
  H22      1.0000 0.08280  0.31160  0.10190  Biso   1.000  H
  H23      1.0000 0.91720  0.81160  0.39810  Biso   1.000  H
  H24      1.0000 0.58280  0.18840  0.89810  Biso   1.000  H
  O37      1.0000 0.36290  0.59900  0.44480  Biso   1.000  O
  O38      1.0000 0.13710  0.40100  0.94480  Biso   1.000  O
  O39      1.0000 0.86290  0.90100  0.55520  Biso   1.000  O
  O40      1.0000 0.63710  0.09900  0.05520  Biso   1.000  O
  N5       1.0000 0.60700  0.42500  0.32760  Biso   1.000  N
  N6       1.0000 0.89300  0.57500  0.82760  Biso   1.000  N
  N7       1.0000 0.10700  0.07500  0.67240  Biso   1.000  N
  N8       1.0000 0.39300  0.92500  0.17240  Biso   1.000  N
  C29      1.0000 0.27700  0.46190  0.63520  Biso   1.000  C
  C30      1.0000 0.22300  0.53810  0.13520  Biso   1.000  C
  C31      1.0000 0.77700  0.03810  0.36480  Biso   1.000  C
  C32      1.0000 0.72300  0.96190  0.86480  Biso   1.000  C
  O41      1.0000 0.07730  0.48200  0.59070  Biso   1.000  O
  O42      1.0000 0.42270  0.51800  0.09070  Biso   1.000  O
  O43      1.0000 0.57730  0.01800  0.40930  Biso   1.000  O
  O44      1.0000 0.92270  0.98200  0.90930  Biso   1.000  O
  C33      1.0000 0.23300  0.40440  0.43610  Biso   1.000  C
  C34      1.0000 0.26700  0.59560  0.93610  Biso   1.000  C
  C35      1.0000 0.73300  0.09560  0.56390  Biso   1.000  C
  C36      1.0000 0.76700  0.90440  0.06390  Biso   1.000  C
  C37      1.0000 0.09400  0.69580  0.62920  Biso   1.000  C
  C38      1.0000 0.40600  0.30420  0.12920  Biso   1.000  C
  C39      1.0000 0.59400  0.80420  0.37080  Biso   1.000  C
  C40      1.0000 0.90600  0.19580  0.87080  Biso   1.000  C
  H25      1.0000 0.00260  0.68390  0.62090  Biso   1.000  H
  H26      1.0000 0.49740  0.31610  0.12090  Biso   1.000  H
  H27      1.0000 0.50260  0.81610  0.37910  Biso   1.000  H
  H28      1.0000 0.99740  0.18390  0.87910  Biso   1.000  H
  C41      1.0000 0.56300  0.47670  0.33880  Biso   1.000  C
  C42      1.0000 0.93700  0.52330  0.83880  Biso   1.000  C
  C43      1.0000 0.06300  0.02330  0.66120  Biso   1.000  C
  C44      1.0000 0.43700  0.97670  0.16120  Biso   1.000  C
  H29      1.0000 0.49750  0.49410  0.32020  Biso   1.000  H
  H30      1.0000 0.00250  0.50590  0.82020  Biso   1.000  H
  H31      1.0000 0.99750  0.00590  0.67980  Biso   1.000  H
  H32      1.0000 0.50250  0.99410  0.17980  Biso   1.000  H
  C45      1.0000 0.02700  0.59910  0.38470  Biso   1.000  C
  C46      1.0000 0.47300  0.40090  0.88470  Biso   1.000  C
  C47      1.0000 0.52700  0.90090  0.61530  Biso   1.000  C
  C48      1.0000 0.97300  0.09910  0.11530  Biso   1.000  C
  H33      1.0000 0.96450  0.58200  0.40440  Biso   1.000  H
  H34      1.0000 0.53550  0.41800  0.90440  Biso   1.000  H
  H35      1.0000 0.46450  0.91800  0.59560  Biso   1.000  H
  H36      1.0000 0.03550  0.08200  0.09560  Biso   1.000  H
  N9       1.0000 0.21200  0.32720  0.36510  Biso   1.000  N
  N10      1.0000 0.28800  0.67280  0.86510  Biso   1.000  N
  N11      1.0000 0.71200  0.17280  0.63490  Biso   1.000  N
  N12      1.0000 0.78800  0.82720  0.13490  Biso   1.000  N
  C49      1.0000 0.48000  0.44420  0.67880  Biso   1.000  C
  C50      1.0000 0.02000  0.55580  0.17880  Biso   1.000  C
  C51      1.0000 0.98000  0.05580  0.32120  Biso   1.000  C
  C52      1.0000 0.52000  0.94420  0.82120  Biso   1.000  C
  H37      1.0000 0.57580  0.45160  0.68450  Biso   1.000  H
  H38      1.0000 0.92420  0.54840  0.18450  Biso   1.000  H
  H39      1.0000 0.07580  0.04840  0.31550  Biso   1.000  H
  H40      1.0000 0.42420  0.95160  0.81550  Biso   1.000  H
  N13      1.0000 0.73700  0.40770  0.13310  Biso   1.000  N
  N14      1.0000 0.76300  0.59230  0.63310  Biso   1.000  N
  N15      1.0000 0.23700  0.09230  0.86690  Biso   1.000  N
  N16      1.0000 0.26300  0.90770  0.36690  Biso   1.000  N
  N17      1.0000 0.70080  0.30780  0.64410  Biso   1.000  N
  N18      1.0000 0.79920  0.69220  0.14410  Biso   1.000  N
  N19      1.0000 0.20080  0.19220  0.35590  Biso   1.000  N
  N20      1.0000 0.29920  0.80780  0.85590  Biso   1.000  N
  O45      1.0000 0.30130  0.63700  0.54170  Biso   1.000  O
  O46      1.0000 0.19870  0.36300  0.04170  Biso   1.000  O
  O47      1.0000 0.80130  0.86300  0.45830  Biso   1.000  O
  O48      1.0000 0.69870  0.13700  0.95830  Biso   1.000  O
  O49      1.0000 0.14140  0.57620  0.46650  Biso   1.000  O
  O50      1.0000 0.35860  0.42380  0.96650  Biso   1.000  O
  O51      1.0000 0.64140  0.92380  0.53350  Biso   1.000  O
  O52      1.0000 0.85860  0.07620  0.03350  Biso   1.000  O
  C53      1.0000 0.35500  0.73090  0.65670  Biso   1.000  C
  C54      1.0000 0.14500  0.26910  0.15670  Biso   1.000  C
  C55      1.0000 0.85500  0.76910  0.34330  Biso   1.000  C
  C56      1.0000 0.64500  0.23090  0.84330  Biso   1.000  C
  H41      1.0000 0.44640  0.74110  0.66620  Biso   1.000  H
  H42      1.0000 0.05360  0.25890  0.16620  Biso   1.000  H
  H43      1.0000 0.94640  0.75890  0.33380  Biso   1.000  H
  H44      1.0000 0.55360  0.24110  0.83380  Biso   1.000  H
  O53      1.0000 0.07440  0.61850  0.55810  Biso   1.000  O
  O54      1.0000 0.42560  0.38150  0.05810  Biso   1.000  O
  O55      1.0000 0.57440  0.88150  0.44190  Biso   1.000  O
  O56      1.0000 0.92560  0.11850  0.94190  Biso   1.000  O
  O57      1.0000 0.28500  0.51700  0.56890  Biso   1.000  O
  O58      1.0000 0.21500  0.48300  0.06890  Biso   1.000  O
  O59      1.0000 0.78500  0.98300  0.43110  Biso   1.000  O
  O60      1.0000 0.71500  0.01700  0.93110  Biso   1.000  O
  N21      1.0000 0.23720  0.74770  0.67920  Biso   1.000  N
  N22      1.0000 0.26280  0.25230  0.17920  Biso   1.000  N
  N23      1.0000 0.73720  0.75230  0.32080  Biso   1.000  N
  N24      1.0000 0.76280  0.24770  0.82080  Biso   1.000  N
  C57      1.0000 0.69500  0.39740  0.58280  Biso   1.000  C
  C58      1.0000 0.80500  0.60260  0.08280  Biso   1.000  C
  C59      1.0000 0.19500  0.10260  0.41720  Biso   1.000  C
  C60      1.0000 0.30500  0.89740  0.91720  Biso   1.000  C
  O61      1.0000 0.71650  0.43040  0.06130  Biso   1.000  O
  O62      1.0000 0.78350  0.56960  0.56130  Biso   1.000  O
  O63      1.0000 0.21650  0.06960  0.93870  Biso   1.000  O
  O64      1.0000 0.28350  0.93040  0.43870  Biso   1.000  O
  C61      1.0000 0.69900  0.48220  0.40200  Biso   1.000  C
  C62      1.0000 0.80100  0.51780  0.90200  Biso   1.000  C
  C63      1.0000 0.19900  0.01780  0.59800  Biso   1.000  C
  C64      1.0000 0.30100  0.98220  0.09800  Biso   1.000  C
  N25      1.0000 0.06410  0.63470  0.31260  Biso   1.000  N
  N26      1.0000 0.43590  0.36530  0.81260  Biso   1.000  N
  N27      1.0000 0.56410  0.86530  0.68740  Biso   1.000  N
  N28      1.0000 0.93590  0.13470  0.18740  Biso   1.000  N
  C65      1.0000 0.23200  0.59480  0.43940  Biso   1.000  C
  C66      1.0000 0.26800  0.40520  0.93940  Biso   1.000  C
  C67      1.0000 0.73200  0.90520  0.56060  Biso   1.000  C
  C68      1.0000 0.76800  0.09480  0.06060  Biso   1.000  C
  C69      1.0000 0.19300  0.64120  0.56490  Biso   1.000  C
  C70      1.0000 0.30700  0.35880  0.06490  Biso   1.000  C
  C71      1.0000 0.69300  0.85880  0.43510  Biso   1.000  C
  C72      1.0000 0.80700  0.14120  0.93510  Biso   1.000  C
  C73      1.0000 0.81400  0.34090  0.63720  Biso   1.000  C
  C74      1.0000 0.68600  0.65910  0.13720  Biso   1.000  C
  C75      1.0000 0.31400  0.15910  0.36280  Biso   1.000  C
  C76      1.0000 0.18600  0.84090  0.86280  Biso   1.000  C
  H45      1.0000 0.89500  0.33480  0.65410  Biso   1.000  H
  H46      1.0000 0.60500  0.66520  0.15410  Biso   1.000  H
  H47      1.0000 0.39500  0.16520  0.34590  Biso   1.000  H
  H48      1.0000 0.10500  0.83480  0.84590  Biso   1.000  H
  N29      1.0000 0.41490  0.40840  0.70410  Biso   1.000  N
  N30      1.0000 0.08510  0.59160  0.20410  Biso   1.000  N
  N31      1.0000 0.91490  0.09160  0.29590  Biso   1.000  N
  N32      1.0000 0.58510  0.90840  0.79590  Biso   1.000  N
  C77      1.0000 0.68900  0.67380  0.48010  Biso   1.000  C
  C78      1.0000 0.81100  0.32620  0.98010  Biso   1.000  C
  C79      1.0000 0.18900  0.82620  0.51990  Biso   1.000  C
  C80      1.0000 0.31100  0.17380  0.01990  Biso   1.000  C
  C81      1.0000 0.21800  0.42940  0.25560  Biso   1.000  C
  C82      1.0000 0.28200  0.57060  0.75560  Biso   1.000  C
  C83      1.0000 0.71800  0.07060  0.74440  Biso   1.000  C
  C84      1.0000 0.78200  0.92940  0.24440  Biso   1.000  C
  C85      1.0000 0.24300  0.44150  0.47340  Biso   1.000  C
  C86      1.0000 0.25700  0.55850  0.97340  Biso   1.000  C
  C87      1.0000 0.74300  0.05850  0.52660  Biso   1.000  C
  C88      1.0000 0.75700  0.94150  0.02660  Biso   1.000  C
  C89      1.0000 0.69700  0.44150  0.55010  Biso   1.000  C
  C90      1.0000 0.80300  0.55850  0.05010  Biso   1.000  C
  C91      1.0000 0.19700  0.05850  0.44990  Biso   1.000  C
  C92      1.0000 0.30300  0.94150  0.94990  Biso   1.000  C
  C93      1.0000 0.77800  0.36200  0.16080  Biso   1.000  C
  C94      1.0000 0.72200  0.63800  0.66080  Biso   1.000  C
  C95      1.0000 0.27800  0.13800  0.83920  Biso   1.000  C
  C96      1.0000 0.22200  0.86200  0.33920  Biso   1.000  C
  H49      1.0000 0.84950  0.33630  0.15220  Biso   1.000  H
  H50      1.0000 0.65050  0.66370  0.65220  Biso   1.000  H
  H51      1.0000 0.34950  0.16370  0.84780  Biso   1.000  H
  H52      1.0000 0.15050  0.83630  0.34780  Biso   1.000  H
  C97      1.0000 0.21200  0.49080  0.59620  Biso   1.000  C
  C98      1.0000 0.28800  0.50920  0.09620  Biso   1.000  C
  C99      1.0000 0.71200  0.00920  0.40380  Biso   1.000  C
  C100     1.0000 0.78800  0.99080  0.90380  Biso   1.000  C
  C101     1.0000 0.71600  0.35460  0.19950  Biso   1.000  C
  C102     1.0000 0.78400  0.64540  0.69950  Biso   1.000  C
  C103     1.0000 0.21600  0.14540  0.80050  Biso   1.000  C
  C104     1.0000 0.28400  0.85460  0.30050  Biso   1.000  C
  H53      1.0000 0.73970  0.32170  0.21540  Biso   1.000  H
  H54      1.0000 0.76030  0.67830  0.71540  Biso   1.000  H
  H55      1.0000 0.23970  0.17830  0.78460  Biso   1.000  H
  H56      1.0000 0.26030  0.82170  0.28460  Biso   1.000  H
  N33      1.0000 0.79600  0.70300  0.49750  Biso   1.000  N
  N34      1.0000 0.70400  0.29700  0.99750  Biso   1.000  N
  N35      1.0000 0.29600  0.79700  0.50250  Biso   1.000  N
  N36      1.0000 0.20400  0.20300  0.00250  Biso   1.000  N
  C105     1.0000 0.57600  0.36370  0.59280  Biso   1.000  C
  C106     1.0000 0.92400  0.63630  0.09280  Biso   1.000  C
  C107     1.0000 0.07600  0.13630  0.40720  Biso   1.000  C
  C108     1.0000 0.42400  0.86370  0.90720  Biso   1.000  C
  H57      1.0000 0.48940  0.37070  0.57880  Biso   1.000  H
  H58      1.0000 0.01060  0.62930  0.07880  Biso   1.000  H
  H59      1.0000 0.98940  0.12930  0.42120  Biso   1.000  H
  H60      1.0000 0.51060  0.87070  0.92120  Biso   1.000  H
  C109     1.0000 0.98200  0.61260  0.34420  Biso   1.000  C
  C110     1.0000 0.51800  0.38740  0.84420  Biso   1.000  C
  C111     1.0000 0.48200  0.88740  0.65580  Biso   1.000  C
  C112     1.0000 0.01800  0.11260  0.15580  Biso   1.000  C
  H61      1.0000 0.88590  0.60600  0.33780  Biso   1.000  H
  H62      1.0000 0.61410  0.39400  0.83780  Biso   1.000  H
  H63      1.0000 0.38590  0.89400  0.66220  Biso   1.000  H
  H64      1.0000 0.11410  0.10600  0.16220  Biso   1.000  H
  C113     1.0000 0.73600  0.51170  0.44130  Biso   1.000  C
  C114     1.0000 0.76400  0.48830  0.94130  Biso   1.000  C
  C115     1.0000 0.23600  0.98830  0.55870  Biso   1.000  C
  C116     1.0000 0.26400  0.01170  0.05870  Biso   1.000  C
  C117     1.0000 0.70600  0.40410  0.35250  Biso   1.000  C
  C118     1.0000 0.79400  0.59590  0.85250  Biso   1.000  C
  C119     1.0000 0.20600  0.09590  0.64750  Biso   1.000  C
  C120     1.0000 0.29400  0.90410  0.14750  Biso   1.000  C
  H65      1.0000 0.74850  0.36910  0.34420  Biso   1.000  H
  H66      1.0000 0.75150  0.63090  0.84420  Biso   1.000  H
  H67      1.0000 0.24850  0.13090  0.65580  Biso   1.000  H
  H68      1.0000 0.25150  0.86910  0.15580  Biso   1.000  H
  C121     1.0000 0.78300  0.71810  0.54320  Biso   1.000  C
  C122     1.0000 0.71700  0.28190  0.04320  Biso   1.000  C
  C123     1.0000 0.28300  0.78190  0.45680  Biso   1.000  C
  C124     1.0000 0.21700  0.21810  0.95680  Biso   1.000  C
  H69      1.0000 0.68340  0.72120  0.55060  Biso   1.000  H
  H70      1.0000 0.81660  0.27880  0.05060  Biso   1.000  H
  H71      1.0000 0.18340  0.77880  0.44940  Biso   1.000  H
  H72      1.0000 0.31660  0.22120  0.94940  Biso   1.000  H
  H73      1.0000 0.82980  0.75480  0.54850  Biso   1.000  H
  H74      1.0000 0.67020  0.24520  0.04850  Biso   1.000  H
  H75      1.0000 0.32980  0.74520  0.45150  Biso   1.000  H
  H76      1.0000 0.17020  0.25480  0.95150  Biso   1.000  H
  H77      1.0000 0.82710  0.68820  0.56040  Biso   1.000  H
  H78      1.0000 0.67290  0.31180  0.06040  Biso   1.000  H
  H79      1.0000 0.32710  0.81180  0.43960  Biso   1.000  H
  H80      1.0000 0.17290  0.18820  0.93960  Biso   1.000  H
  C125     1.0000 0.58400  0.32050  0.62290  Biso   1.000  C
  C126     1.0000 0.91600  0.67950  0.12290  Biso   1.000  C
  C127     1.0000 0.08400  0.17950  0.37710  Biso   1.000  C
  C128     1.0000 0.41600  0.82050  0.87710  Biso   1.000  C
  H81      1.0000 0.50210  0.29890  0.62870  Biso   1.000  H
  H82      1.0000 0.99790  0.70110  0.12870  Biso   1.000  H
  H83      1.0000 0.00210  0.20110  0.37130  Biso   1.000  H
  H84      1.0000 0.49790  0.79890  0.87130  Biso   1.000  H
  C129     1.0000 0.25200  0.63560  0.36400  Biso   1.000  C
  C130     1.0000 0.24800  0.36440  0.86400  Biso   1.000  C
  C131     1.0000 0.75200  0.86440  0.63600  Biso   1.000  C
  C132     1.0000 0.74800  0.13560  0.13600  Biso   1.000  C
  H85      1.0000 0.34680  0.64500  0.37030  Biso   1.000  H
  H86      1.0000 0.15320  0.35500  0.87030  Biso   1.000  H
  H87      1.0000 0.84680  0.85500  0.62970  Biso   1.000  H
  H88      1.0000 0.65320  0.14500  0.12970  Biso   1.000  H
  C133     1.0000 0.42200  0.47180  0.64510  Biso   1.000  C
  C134     1.0000 0.07800  0.52820  0.14510  Biso   1.000  C
  C135     1.0000 0.92200  0.02820  0.35490  Biso   1.000  C
  C136     1.0000 0.57800  0.97180  0.85490  Biso   1.000  C
  H89      1.0000 0.47740  0.49720  0.62850  Biso   1.000  H
  H90      1.0000 0.02260  0.50280  0.12850  Biso   1.000  H
  H91      1.0000 0.97740  0.00280  0.37150  Biso   1.000  H
  H92      1.0000 0.52260  0.99720  0.87150  Biso   1.000  H
  C137     1.0000 0.75400  0.42890  0.39000  Biso   1.000  C
  C138     1.0000 0.74600  0.57110  0.89000  Biso   1.000  C
  C139     1.0000 0.25400  0.07110  0.61000  Biso   1.000  C
  C140     1.0000 0.24600  0.92890  0.11000  Biso   1.000  C
  H93      1.0000 0.82150  0.41010  0.40700  Biso   1.000  H
  H94      1.0000 0.67850  0.58990  0.90700  Biso   1.000  H
  H95      1.0000 0.32150  0.08990  0.59300  Biso   1.000  H
  H96      1.0000 0.17850  0.91010  0.09300  Biso   1.000  H
  C141     1.0000 0.80240  0.41790  0.09090  Biso   1.000  C
  C142     1.0000 0.69760  0.58210  0.59090  Biso   1.000  C
  C143     1.0000 0.30240  0.08210  0.90910  Biso   1.000  C
  C144     1.0000 0.19760  0.91790  0.40910  Biso   1.000  C
  C145     1.0000 0.20400  0.64650  0.32390  Biso   1.000  C
  C146     1.0000 0.29600  0.35350  0.82390  Biso   1.000  C
  C147     1.0000 0.70400  0.85350  0.67610  Biso   1.000  C
  C148     1.0000 0.79600  0.14650  0.17610  Biso   1.000  C
  H97      1.0000 0.26560  0.66220  0.30350  Biso   1.000  H
  H98      1.0000 0.23440  0.33780  0.80350  Biso   1.000  H
  H99      1.0000 0.76560  0.83780  0.69650  Biso   1.000  H
  H100     1.0000 0.73440  0.16220  0.19650  Biso   1.000  H
  C149     1.0000 0.27200  0.39840  0.69480  Biso   1.000  C
  C150     1.0000 0.22800  0.60160  0.19480  Biso   1.000  C
  C151     1.0000 0.77200  0.10160  0.30520  Biso   1.000  C
  C152     1.0000 0.72800  0.89840  0.80520  Biso   1.000  C
  H101     1.0000 0.22120  0.37180  0.71140  Biso   1.000  H
  H102     1.0000 0.27880  0.62820  0.21140  Biso   1.000  H
  H103     1.0000 0.72120  0.12820  0.28860  Biso   1.000  H
  H104     1.0000 0.77880  0.87180  0.78860  Biso   1.000  H
  C153     1.0000 0.16900  0.61120  0.39630  Biso   1.000  C
  C154     1.0000 0.33100  0.38880  0.89630  Biso   1.000  C
  C155     1.0000 0.66900  0.88880  0.60370  Biso   1.000  C
  C156     1.0000 0.83100  0.11120  0.10370  Biso   1.000  C
  C157     1.0000 0.10500  0.37450  0.42850  Biso   1.000  C
  C158     1.0000 0.39500  0.62550  0.92850  Biso   1.000  C
  C159     1.0000 0.60500  0.12550  0.57150  Biso   1.000  C
  C160     1.0000 0.89500  0.87450  0.07150  Biso   1.000  C
  H105     1.0000 0.02520  0.37790  0.44620  Biso   1.000  H
  H106     1.0000 0.47480  0.62210  0.94620  Biso   1.000  H
  H107     1.0000 0.52520  0.12210  0.55380  Biso   1.000  H
  H108     1.0000 0.97480  0.87790  0.05380  Biso   1.000  H
  C161     1.0000 0.81900  0.38550  0.60530  Biso   1.000  C
  C162     1.0000 0.68100  0.61450  0.10530  Biso   1.000  C
  C163     1.0000 0.31900  0.11450  0.39470  Biso   1.000  C
  C164     1.0000 0.18100  0.88550  0.89470  Biso   1.000  C
  H109     1.0000 0.90340  0.40590  0.59970  Biso   1.000  H
  H110     1.0000 0.59660  0.59410  0.09970  Biso   1.000  H
  H111     1.0000 0.40340  0.09410  0.40030  Biso   1.000  H
  H112     1.0000 0.09660  0.90590  0.90030  Biso   1.000  H
  C165     1.0000 0.19300  0.39470  0.21420  Biso   1.000  C
  C166     1.0000 0.30700  0.60530  0.71420  Biso   1.000  C
  C167     1.0000 0.69300  0.10530  0.78580  Biso   1.000  C
  C168     1.0000 0.80700  0.89470  0.28580  Biso   1.000  C
  H113     1.0000 0.28140  0.39240  0.19830  Biso   1.000  H
  H114     1.0000 0.21860  0.60760  0.69830  Biso   1.000  H
  H115     1.0000 0.78140  0.10760  0.80170  Biso   1.000  H
  H116     1.0000 0.71860  0.89240  0.30170  Biso   1.000  H
  H117     1.0000 0.12180  0.41390  0.19700  Biso   1.000  H
  H118     1.0000 0.37820  0.58610  0.69700  Biso   1.000  H
  H119     1.0000 0.62180  0.08610  0.80300  Biso   1.000  H
  H120     1.0000 0.87820  0.91390  0.30300  Biso   1.000  H
  H121     1.0000 0.16130  0.35600  0.22120  Biso   1.000  H
  H122     1.0000 0.33870  0.64400  0.72120  Biso   1.000  H
  H123     1.0000 0.66130  0.14400  0.77880  Biso   1.000  H
  H124     1.0000 0.83870  0.85600  0.27880  Biso   1.000  H
  C169     1.0000 0.96200  0.43800  0.26090  Biso   1.000  C
  C170     1.0000 0.53800  0.56200  0.76090  Biso   1.000  C
  C171     1.0000 0.46200  0.06200  0.73910  Biso   1.000  C
  C172     1.0000 0.03800  0.93800  0.23910  Biso   1.000  C
  H125     1.0000 0.92970  0.47360  0.24790  Biso   1.000  H
  H126     1.0000 0.57030  0.52640  0.74790  Biso   1.000  H
  H127     1.0000 0.42970  0.02640  0.75210  Biso   1.000  H
  H128     1.0000 0.07030  0.97360  0.25210  Biso   1.000  H
  H129     1.0000 0.89970  0.42760  0.28420  Biso   1.000  H
  H130     1.0000 0.60030  0.57240  0.78420  Biso   1.000  H
  H131     1.0000 0.39970  0.07240  0.71580  Biso   1.000  H
  H132     1.0000 0.10030  0.92760  0.21580  Biso   1.000  H
  H133     1.0000 0.96250  0.40730  0.23980  Biso   1.000  H
  H134     1.0000 0.53750  0.59270  0.73980  Biso   1.000  H
  H135     1.0000 0.46250  0.09270  0.76020  Biso   1.000  H
  H136     1.0000 0.03750  0.90730  0.26020  Biso   1.000  H
  C173     1.0000 0.20500  0.67820  0.60600  Biso   1.000  C
  C174     1.0000 0.29500  0.32180  0.10600  Biso   1.000  C
  C175     1.0000 0.70500  0.82180  0.39400  Biso   1.000  C
  C176     1.0000 0.79500  0.17820  0.89400  Biso   1.000  C
  C177     1.0000 0.59900  0.50910  0.37390  Biso   1.000  C
  C178     1.0000 0.90100  0.49090  0.87390  Biso   1.000  C
  C179     1.0000 0.09900  0.99090  0.62610  Biso   1.000  C
  C180     1.0000 0.40100  0.00910  0.12610  Biso   1.000  C
  H137     1.0000 0.56110  0.54600  0.37910  Biso   1.000  H
  H138     1.0000 0.93890  0.45400  0.87910  Biso   1.000  H
  H139     1.0000 0.06110  0.95400  0.62090  Biso   1.000  H
  H140     1.0000 0.43890  0.04600  0.12090  Biso   1.000  H
  C181     1.0000 0.69100  0.66320  0.43020  Biso   1.000  C
  C182     1.0000 0.80900  0.33680  0.93020  Biso   1.000  C
  C183     1.0000 0.19100  0.83680  0.56980  Biso   1.000  C
  C184     1.0000 0.30900  0.16320  0.06980  Biso   1.000  C
  H141     1.0000 0.74610  0.62880  0.42390  Biso   1.000  H
  H142     1.0000 0.75390  0.37120  0.92390  Biso   1.000  H
  H143     1.0000 0.24610  0.87120  0.57610  Biso   1.000  H
  H144     1.0000 0.25390  0.12880  0.07610  Biso   1.000  H
  H145     1.0000 0.73340  0.69630  0.41610  Biso   1.000  H
  H146     1.0000 0.76660  0.30370  0.91610  Biso   1.000  H
  H147     1.0000 0.23340  0.80370  0.58390  Biso   1.000  H
  H148     1.0000 0.26660  0.19630  0.08390  Biso   1.000  H
  H149     1.0000 0.59470  0.65810  0.42000  Biso   1.000  H
  H150     1.0000 0.90530  0.34190  0.92000  Biso   1.000  H
  H151     1.0000 0.09470  0.84190  0.58000  Biso   1.000  H
  H152     1.0000 0.40530  0.15810  0.08000  Biso   1.000  H
  C185     1.0000 0.92900  0.71870  0.47000  Biso   1.000  C
  C186     1.0000 0.57100  0.28130  0.97000  Biso   1.000  C
  C187     1.0000 0.42900  0.78130  0.53000  Biso   1.000  C
  C188     1.0000 0.07100  0.21870  0.03000  Biso   1.000  C
  H153     1.0000 0.92710  0.69660  0.44370  Biso   1.000  H
  H154     1.0000 0.57290  0.30340  0.94370  Biso   1.000  H
  H155     1.0000 0.42710  0.80340  0.55630  Biso   1.000  H
  H156     1.0000 0.07290  0.19660  0.05630  Biso   1.000  H
  H157     1.0000 0.01460  0.70960  0.48570  Biso   1.000  H
  H158     1.0000 0.48540  0.29040  0.98570  Biso   1.000  H
  H159     1.0000 0.51460  0.79040  0.51430  Biso   1.000  H
  H160     1.0000 0.98540  0.20960  0.01430  Biso   1.000  H
  H161     1.0000 0.92720  0.75970  0.46340  Biso   1.000  H
  H162     1.0000 0.57280  0.24030  0.96340  Biso   1.000  H
  H163     1.0000 0.42720  0.74030  0.53660  Biso   1.000  H
  H164     1.0000 0.07280  0.25970  0.03660  Biso   1.000  H
  C189     1.0000 0.33100  0.35560  0.37490  Biso   1.000  C
  C190     1.0000 0.16900  0.64440  0.87490  Biso   1.000  C
  C191     1.0000 0.83100  0.14440  0.62510  Biso   1.000  C
  C192     1.0000 0.66900  0.85560  0.12510  Biso   1.000  C
  H165     1.0000 0.40890  0.35160  0.35640  Biso   1.000  H
  H166     1.0000 0.09110  0.64840  0.85640  Biso   1.000  H
  H167     1.0000 0.90890  0.14840  0.64360  Biso   1.000  H
  H168     1.0000 0.59110  0.85160  0.14360  Biso   1.000  H
  C193     1.0000 0.34900  0.39200  0.41180  Biso   1.000  C
  C194     1.0000 0.15100  0.60800  0.91180  Biso   1.000  C
  C195     1.0000 0.84900  0.10800  0.58820  Biso   1.000  C
  C196     1.0000 0.65100  0.89200  0.08820  Biso   1.000  C
  H169     1.0000 0.43820  0.40690  0.41900  Biso   1.000  H
  H170     1.0000 0.06180  0.59310  0.91900  Biso   1.000  H
  H171     1.0000 0.93820  0.09310  0.58100  Biso   1.000  H
  H172     1.0000 0.56180  0.90690  0.08100  Biso   1.000  H
  C197     1.0000 0.14200  0.47620  0.31780  Biso   1.000  C
  C198     1.0000 0.35800  0.52380  0.81780  Biso   1.000  C
  C199     1.0000 0.64200  0.02380  0.68220  Biso   1.000  C
  C200     1.0000 0.85800  0.97620  0.18220  Biso   1.000  C
  H173     1.0000 0.16140  0.44780  0.33980  Biso   1.000  H
  H174     1.0000 0.33860  0.55220  0.83980  Biso   1.000  H
  H175     1.0000 0.66140  0.05220  0.66020  Biso   1.000  H
  H176     1.0000 0.83860  0.94780  0.16020  Biso   1.000  H
  H177     1.0000 0.06210  0.50000  0.32640  Biso   1.000  H
  H178     1.0000 0.43790  0.50000  0.82640  Biso   1.000  H
  H179     1.0000 0.56210  0.00000  0.67360  Biso   1.000  H
  H180     1.0000 0.93790  0.00000  0.17360  Biso   1.000  H
  H181     1.0000 0.22480  0.50050  0.31370  Biso   1.000  H
  H182     1.0000 0.27520  0.49950  0.81370  Biso   1.000  H
  H183     1.0000 0.72480  0.99950  0.68630  Biso   1.000  H
  H184     1.0000 0.77520  0.00050  0.18630  Biso   1.000  H
  C201     1.0000 0.68100  0.19650  0.41050  Biso   1.000  C
  C202     1.0000 0.81900  0.80350  0.91050  Biso   1.000  C
  C203     1.0000 0.18100  0.30350  0.58950  Biso   1.000  C
  C204     1.0000 0.31900  0.69650  0.08950  Biso   1.000  C
  H185     1.0000 0.74830  0.18880  0.38790  Biso   1.000  H
  H186     1.0000 0.75170  0.81120  0.88790  Biso   1.000  H
  H187     1.0000 0.24830  0.31120  0.61210  Biso   1.000  H
  H188     1.0000 0.25170  0.68880  0.11210  Biso   1.000  H
  H189     1.0000 0.58590  0.19850  0.39860  Biso   1.000  H
  H190     1.0000 0.91410  0.80150  0.89860  Biso   1.000  H
  H191     1.0000 0.08590  0.30150  0.60140  Biso   1.000  H
  H192     1.0000 0.41410  0.69850  0.10140  Biso   1.000  H
  H193     1.0000 0.68500  0.16560  0.43140  Biso   1.000  H
  H194     1.0000 0.81500  0.83440  0.93140  Biso   1.000  H
  H195     1.0000 0.18500  0.33440  0.56860  Biso   1.000  H
  H196     1.0000 0.31500  0.66560  0.06860  Biso   1.000  H
  C205     1.0000 0.64300  0.32210  0.48050  Biso   1.000  C
  C206     1.0000 0.85700  0.67790  0.98050  Biso   1.000  C
  C207     1.0000 0.14300  0.17790  0.51950  Biso   1.000  C
  C208     1.0000 0.35700  0.82210  0.01950  Biso   1.000  C
  H197     1.0000 0.59020  0.35320  0.46710  Biso   1.000  H
  H198     1.0000 0.90980  0.64680  0.96710  Biso   1.000  H
  H199     1.0000 0.09020  0.14680  0.53290  Biso   1.000  H
  H200     1.0000 0.40980  0.85320  0.03290  Biso   1.000  H
  H201     1.0000 0.74390  0.32840  0.47630  Biso   1.000  H
  H202     1.0000 0.75610  0.67160  0.97630  Biso   1.000  H
  H203     1.0000 0.24390  0.17160  0.52370  Biso   1.000  H
  H204     1.0000 0.25610  0.82840  0.02370  Biso   1.000  H
  H205     1.0000 0.62220  0.32130  0.51070  Biso   1.000  H
  H206     1.0000 0.87780  0.67870  0.01070  Biso   1.000  H
  H207     1.0000 0.12220  0.17870  0.48930  Biso   1.000  H
  H208     1.0000 0.37780  0.82130  0.98930  Biso   1.000  H
  C209     1.0000 0.47300  0.22730  0.47130  Biso   1.000  C
  C210     1.0000 0.02700  0.77270  0.97130  Biso   1.000  C
  C211     1.0000 0.97300  0.27270  0.52870  Biso   1.000  C
  C212     1.0000 0.52700  0.72730  0.02870  Biso   1.000  C
  H209     1.0000 0.46890  0.21960  0.50160  Biso   1.000  H
  H210     1.0000 0.03110  0.78040  0.00160  Biso   1.000  H
  H211     1.0000 0.96890  0.28040  0.49840  Biso   1.000  H
  H212     1.0000 0.53110  0.71960  0.99840  Biso   1.000  H
  H213     1.0000 0.47940  0.19100  0.45590  Biso   1.000  H
  H214     1.0000 0.02060  0.80900  0.95590  Biso   1.000  H
  H215     1.0000 0.97940  0.30900  0.54410  Biso   1.000  H
  H216     1.0000 0.52060  0.69100  0.04410  Biso   1.000  H
  H217     1.0000 0.38880  0.24800  0.46250  Biso   1.000  H
  H218     1.0000 0.11120  0.75200  0.96250  Biso   1.000  H
  H219     1.0000 0.88880  0.25200  0.53750  Biso   1.000  H
  H220     1.0000 0.61120  0.74800  0.03750  Biso   1.000  H
  N37      1.0000 0.60200  0.26440  0.46100  Biso   1.000  N
  N38      1.0000 0.89800  0.73560  0.96100  Biso   1.000  N
  N39      1.0000 0.10200  0.23560  0.53900  Biso   1.000  N
  N40      1.0000 0.39800  0.76440  0.03900  Biso   1.000  N
  O65      1.0000 0.80600  0.28750  0.42750  Biso   1.000  O
  O66      1.0000 0.69400  0.71250  0.92750  Biso   1.000  O
  O67      1.0000 0.30600  0.21250  0.57250  Biso   1.000  O
  O68      1.0000 0.19400  0.78750  0.07250  Biso   1.000  O
  C213     1.0000 0.71500  0.25170  0.43040  Biso   1.000  C
  C214     1.0000 0.78500  0.74830  0.93040  Biso   1.000  C
  C215     1.0000 0.21500  0.24830  0.56960  Biso   1.000  C
  C216     1.0000 0.28500  0.75170  0.06960  Biso   1.000  C
