data_image0
_cell_length_a       9.294
_cell_length_b       23.233
_cell_length_c       30.705
_cell_angle_alpha    90
_cell_angle_beta     90
_cell_angle_gamma    90

_symmetry_space_group_name_H-M    "P 1"
_symmetry_int_tables_number       1

loop_
  _symmetry_equiv_pos_as_xyz
  'x, y, z'

loop_
  _atom_site_label
  _atom_site_occupancy
  _atom_site_fract_x
  _atom_site_fract_y
  _atom_site_fract_z
  _atom_site_thermal_displace_type
  _atom_site_B_iso_or_equiv
  _atom_site_type_symbol
  Tb1      1.0000 0.54212  0.43932  0.51550  Biso   1.000  Tb
  Tb2      1.0000 0.95788  0.56068  0.01550  Biso   1.000  Tb
  Tb3      1.0000 0.04212  0.06068  0.48450  Biso   1.000  Tb
  Tb4      1.0000 0.45788  0.93932  0.98450  Biso   1.000  Tb
  Tb5      1.0000 0.01162  0.46537  0.52166  Biso   1.000  Tb
  Tb6      1.0000 0.48838  0.53463  0.02166  Biso   1.000  Tb
  Tb7      1.0000 0.51162  0.03463  0.47834  Biso   1.000  Tb
  Tb8      1.0000 0.98838  0.96537  0.97834  Biso   1.000  Tb
  I1       1.0000 0.71056  0.89228  0.24883  Biso   1.000  I
  I2       1.0000 0.78944  0.10772  0.74883  Biso   1.000  I
  I3       1.0000 0.21056  0.60772  0.75117  Biso   1.000  I
  I4       1.0000 0.28944  0.39228  0.25117  Biso   1.000  I
  I5       1.0000 0.52197  0.73002  0.28565  Biso   1.000  I
  I6       1.0000 0.97803  0.26998  0.78565  Biso   1.000  I
  I7       1.0000 0.02197  0.76998  0.71435  Biso   1.000  I
  I8       1.0000 0.47803  0.23002  0.21435  Biso   1.000  I
  I9       1.0000 0.01306  0.74467  0.27535  Biso   1.000  I
  I10      1.0000 0.48694  0.25533  0.77535  Biso   1.000  I
  I11      1.0000 0.51306  0.75533  0.72465  Biso   1.000  I
  I12      1.0000 0.98694  0.24467  0.22465  Biso   1.000  I
  Cu1      1.0000 0.45600  0.61948  0.27746  Biso   1.000  Cu
  Cu2      1.0000 0.04400  0.38052  0.77746  Biso   1.000  Cu
  Cu3      1.0000 0.95600  0.88052  0.72254  Biso   1.000  Cu
  Cu4      1.0000 0.54400  0.11948  0.22254  Biso   1.000  Cu
  Cu5      1.0000 0.77950  0.73501  0.32359  Biso   1.000  Cu
  Cu6      1.0000 0.72050  0.26499  0.82359  Biso   1.000  Cu
  Cu7      1.0000 0.27950  0.76499  0.67641  Biso   1.000  Cu
  Cu8      1.0000 0.22050  0.23501  0.17641  Biso   1.000  Cu
  Cu9      1.0000 0.99320  0.85711  0.25081  Biso   1.000  Cu
  Cu10     1.0000 0.50680  0.14289  0.75081  Biso   1.000  Cu
  Cu11     1.0000 0.49320  0.64289  0.74919  Biso   1.000  Cu
  Cu12     1.0000 0.00680  0.35711  0.24919  Biso   1.000  Cu
  Cu13     1.0000 0.75550  0.78234  0.24275  Biso   1.000  Cu
  Cu14     1.0000 0.74450  0.21766  0.74275  Biso   1.000  Cu
  Cu15     1.0000 0.25550  0.71766  0.75725  Biso   1.000  Cu
  Cu16     1.0000 0.24450  0.28234  0.25725  Biso   1.000  Cu
  O1       1.0000 0.42310  0.34740  0.50390  Biso   1.000  O
  O2       1.0000 0.07690  0.65260  0.00390  Biso   1.000  O
  O3       1.0000 0.92310  0.15260  0.49610  Biso   1.000  O
  O4       1.0000 0.57690  0.84740  0.99610  Biso   1.000  O
  O5       1.0000 0.17770  0.53840  0.53100  Biso   1.000  O
  O6       1.0000 0.32230  0.46160  0.03100  Biso   1.000  O
  O7       1.0000 0.67770  0.96160  0.46900  Biso   1.000  O
  O8       1.0000 0.82230  0.03840  0.96900  Biso   1.000  O
  O9       1.0000 0.41800  0.52570  0.53990  Biso   1.000  O
  O10      1.0000 0.08200  0.47430  0.03990  Biso   1.000  O
  O11      1.0000 0.91800  0.97430  0.46010  Biso   1.000  O
  O12      1.0000 0.58200  0.02570  0.96010  Biso   1.000  O
  C1       1.0000 0.72290  0.53610  0.63200  Biso   1.000  C
  C2       1.0000 0.77710  0.46390  0.13200  Biso   1.000  C
  C3       1.0000 0.22290  0.96390  0.36800  Biso   1.000  C
  C4       1.0000 0.27710  0.03610  0.86800  Biso   1.000  C
  C5       1.0000 0.91160  0.30780  0.63050  Biso   1.000  C
  C6       1.0000 0.58840  0.69220  0.13050  Biso   1.000  C
  C7       1.0000 0.41160  0.19220  0.36950  Biso   1.000  C
  C8       1.0000 0.08840  0.80780  0.86950  Biso   1.000  C
  H1       1.0000 0.00230  0.32020  0.62180  Biso   1.000  H
  H2       1.0000 0.49770  0.67980  0.12180  Biso   1.000  H
  H3       1.0000 0.50230  0.17980  0.37820  Biso   1.000  H
  H4       1.0000 0.99770  0.82020  0.87820  Biso   1.000  H
  O13      1.0000 0.92390  0.38470  0.56050  Biso   1.000  O
  O14      1.0000 0.57610  0.61530  0.06050  Biso   1.000  O
  O15      1.0000 0.42390  0.11530  0.43950  Biso   1.000  O
  O16      1.0000 0.07610  0.88470  0.93950  Biso   1.000  O
  O17      1.0000 0.69330  0.36620  0.54360  Biso   1.000  O
  O18      1.0000 0.80670  0.63380  0.04360  Biso   1.000  O
  O19      1.0000 0.19330  0.13380  0.45640  Biso   1.000  O
  O20      1.0000 0.30670  0.86620  0.95640  Biso   1.000  O
  O21      1.0000 0.65470  0.56360  0.27010  Biso   1.000  O
  O22      1.0000 0.84530  0.43640  0.77010  Biso   1.000  O
  O23      1.0000 0.15470  0.93640  0.72990  Biso   1.000  O
  O24      1.0000 0.34530  0.06360  0.22990  Biso   1.000  O
  O25      1.0000 0.13900  0.47410  0.45550  Biso   1.000  O
  O26      1.0000 0.36100  0.52590  0.95550  Biso   1.000  O
  O27      1.0000 0.63900  0.02590  0.54450  Biso   1.000  O
  O28      1.0000 0.86100  0.97410  0.04450  Biso   1.000  O
  C9       1.0000 0.26180  0.59040  0.13410  Biso   1.000  C
  C10      1.0000 0.23820  0.40960  0.63410  Biso   1.000  C
  C11      1.0000 0.76180  0.90960  0.86590  Biso   1.000  C
  C12      1.0000 0.73820  0.09040  0.36590  Biso   1.000  C
  N1       1.0000 0.77970  0.66880  0.36730  Biso   1.000  N
  N2       1.0000 0.72030  0.33120  0.86730  Biso   1.000  N
  N3       1.0000 0.27970  0.83120  0.63270  Biso   1.000  N
  N4       1.0000 0.22030  0.16880  0.13270  Biso   1.000  N
  N5       1.0000 0.38290  0.57480  0.32980  Biso   1.000  N
  N6       1.0000 0.11710  0.42520  0.82980  Biso   1.000  N
  N7       1.0000 0.88290  0.92520  0.67020  Biso   1.000  N
  N8       1.0000 0.61710  0.07480  0.17020  Biso   1.000  N
  O29      1.0000 0.87520  0.53620  0.49320  Biso   1.000  O
  O30      1.0000 0.62480  0.46380  0.99320  Biso   1.000  O
  O31      1.0000 0.37520  0.96380  0.50680  Biso   1.000  O
  O32      1.0000 0.12480  0.03620  0.00680  Biso   1.000  O
  O33      1.0000 0.06950  0.58580  0.08360  Biso   1.000  O
  O34      1.0000 0.43050  0.41420  0.58360  Biso   1.000  O
  O35      1.0000 0.56950  0.91420  0.91640  Biso   1.000  O
  O36      1.0000 0.93050  0.08580  0.41640  Biso   1.000  O
  N9       1.0000 0.37050  0.60720  0.21820  Biso   1.000  N
  N10      1.0000 0.12950  0.39280  0.71820  Biso   1.000  N
  N11      1.0000 0.87050  0.89280  0.78180  Biso   1.000  N
  N12      1.0000 0.62950  0.10720  0.28180  Biso   1.000  N
  C13      1.0000 0.30470  0.51310  0.40380  Biso   1.000  C
  C14      1.0000 0.19530  0.48690  0.90380  Biso   1.000  C
  C15      1.0000 0.80470  0.98690  0.59620  Biso   1.000  C
  C16      1.0000 0.69530  0.01310  0.09620  Biso   1.000  C
  C17      1.0000 0.76870  0.58800  0.43590  Biso   1.000  C
  C18      1.0000 0.73130  0.41200  0.93590  Biso   1.000  C
  C19      1.0000 0.26870  0.91200  0.56410  Biso   1.000  C
  C20      1.0000 0.23130  0.08800  0.06410  Biso   1.000  C
  N13      1.0000 0.29400  0.69350  0.63580  Biso   1.000  N
  N14      1.0000 0.20600  0.30650  0.13580  Biso   1.000  N
  N15      1.0000 0.79400  0.80650  0.36420  Biso   1.000  N
  N16      1.0000 0.70600  0.19350  0.86420  Biso   1.000  N
  C21      1.0000 0.26850  0.47900  0.44420  Biso   1.000  C
  C22      1.0000 0.23150  0.52100  0.94420  Biso   1.000  C
  C23      1.0000 0.76850  0.02100  0.55580  Biso   1.000  C
  C24      1.0000 0.73150  0.97900  0.05580  Biso   1.000  C
  O37      1.0000 0.92040  0.51070  0.58710  Biso   1.000  O
  O38      1.0000 0.57960  0.48930  0.08710  Biso   1.000  O
  O39      1.0000 0.42040  0.98930  0.41290  Biso   1.000  O
  O40      1.0000 0.07960  0.01070  0.91290  Biso   1.000  O
  O41      1.0000 0.64780  0.51710  0.47700  Biso   1.000  O
  O42      1.0000 0.85220  0.48290  0.97700  Biso   1.000  O
  O43      1.0000 0.14780  0.98290  0.52300  Biso   1.000  O
  O44      1.0000 0.35220  0.01710  0.02300  Biso   1.000  O
  O45      1.0000 0.70390  0.48150  0.56630  Biso   1.000  O
  O46      1.0000 0.79610  0.51850  0.06630  Biso   1.000  O
  O47      1.0000 0.20390  0.01850  0.43370  Biso   1.000  O
  O48      1.0000 0.29610  0.98150  0.93370  Biso   1.000  O
  O49      1.0000 0.37120  0.45410  0.46280  Biso   1.000  O
  O50      1.0000 0.12880  0.54590  0.96280  Biso   1.000  O
  O51      1.0000 0.87120  0.04590  0.53720  Biso   1.000  O
  O52      1.0000 0.62880  0.95410  0.03720  Biso   1.000  O
  O53      1.0000 0.29290  0.57280  0.05850  Biso   1.000  O
  O54      1.0000 0.20710  0.42720  0.55850  Biso   1.000  O
  O55      1.0000 0.79290  0.92720  0.94150  Biso   1.000  O
  O56      1.0000 0.70710  0.07280  0.44150  Biso   1.000  O
  N17      1.0000 0.76320  0.25560  0.68210  Biso   1.000  N
  N18      1.0000 0.73680  0.74440  0.18210  Biso   1.000  N
  N19      1.0000 0.26320  0.24440  0.31790  Biso   1.000  N
  N20      1.0000 0.23680  0.75560  0.81790  Biso   1.000  N
  C25      1.0000 0.65640  0.30370  0.62000  Biso   1.000  C
  C26      1.0000 0.84360  0.69630  0.12000  Biso   1.000  C
  C27      1.0000 0.15640  0.19630  0.38000  Biso   1.000  C
  C28      1.0000 0.34360  0.80370  0.88000  Biso   1.000  C
  H5       1.0000 0.57480  0.31230  0.60370  Biso   1.000  H
  H6       1.0000 0.92520  0.68770  0.10370  Biso   1.000  H
  H7       1.0000 0.07480  0.18770  0.39630  Biso   1.000  H
  H8       1.0000 0.42520  0.81230  0.89630  Biso   1.000  H
  C29      1.0000 0.30190  0.60200  0.57740  Biso   1.000  C
  C30      1.0000 0.19810  0.39800  0.07740  Biso   1.000  C
  C31      1.0000 0.80190  0.89800  0.42260  Biso   1.000  C
  C32      1.0000 0.69810  0.10200  0.92260  Biso   1.000  C
  C33      1.0000 0.80290  0.36180  0.56680  Biso   1.000  C
  C34      1.0000 0.69710  0.63820  0.06680  Biso   1.000  C
  C35      1.0000 0.30290  0.13820  0.43320  Biso   1.000  C
  C36      1.0000 0.19710  0.86180  0.93320  Biso   1.000  C
  C37      1.0000 0.21520  0.90110  0.05690  Biso   1.000  C
  C38      1.0000 0.28480  0.09890  0.55690  Biso   1.000  C
  C39      1.0000 0.71520  0.59890  0.94310  Biso   1.000  C
  C40      1.0000 0.78480  0.40110  0.44310  Biso   1.000  C
  C41      1.0000 0.52010  0.55980  0.67650  Biso   1.000  C
  C42      1.0000 0.97990  0.44020  0.17650  Biso   1.000  C
  C43      1.0000 0.02010  0.94020  0.32350  Biso   1.000  C
  C44      1.0000 0.47990  0.05980  0.82350  Biso   1.000  C
  H9       1.0000 0.42190  0.55620  0.68180  Biso   1.000  H
  H10      1.0000 0.07810  0.44380  0.18180  Biso   1.000  H
  H11      1.0000 0.92190  0.94380  0.31820  Biso   1.000  H
  H12      1.0000 0.57810  0.05620  0.81820  Biso   1.000  H
  C45      1.0000 0.32480  0.32610  0.48150  Biso   1.000  C
  C46      1.0000 0.17520  0.67390  0.98150  Biso   1.000  C
  C47      1.0000 0.82480  0.17390  0.51850  Biso   1.000  C
  C48      1.0000 0.67520  0.82610  0.01850  Biso   1.000  C
  C49      1.0000 0.75940  0.54380  0.47210  Biso   1.000  C
  C50      1.0000 0.74060  0.45620  0.97210  Biso   1.000  C
  C51      1.0000 0.25940  0.95620  0.52790  Biso   1.000  C
  C52      1.0000 0.24060  0.04380  0.02790  Biso   1.000  C
  C53      1.0000 0.97850  0.88260  0.15680  Biso   1.000  C
  C54      1.0000 0.52150  0.11740  0.65680  Biso   1.000  C
  C55      1.0000 0.47850  0.61740  0.84320  Biso   1.000  C
  C56      1.0000 0.02150  0.38260  0.34320  Biso   1.000  C
  H13      1.0000 0.88380  0.89070  0.16440  Biso   1.000  H
  H14      1.0000 0.61620  0.10930  0.66440  Biso   1.000  H
  H15      1.0000 0.38380  0.60930  0.83560  Biso   1.000  H
  H16      1.0000 0.11620  0.39070  0.33560  Biso   1.000  H
  C57      1.0000 0.64810  0.26980  0.65910  Biso   1.000  C
  C58      1.0000 0.85190  0.73020  0.15910  Biso   1.000  C
  C59      1.0000 0.14810  0.23020  0.34090  Biso   1.000  C
  C60      1.0000 0.35190  0.76980  0.84090  Biso   1.000  C
  H17      1.0000 0.55830  0.25730  0.66860  Biso   1.000  H
  H18      1.0000 0.94170  0.74270  0.16860  Biso   1.000  H
  H19      1.0000 0.05830  0.24270  0.33140  Biso   1.000  H
  H20      1.0000 0.44170  0.75730  0.83140  Biso   1.000  H
  N21      1.0000 0.59280  0.59370  0.70260  Biso   1.000  N
  N22      1.0000 0.90720  0.40630  0.20260  Biso   1.000  N
  N23      1.0000 0.09280  0.90630  0.29740  Biso   1.000  N
  N24      1.0000 0.40720  0.09370  0.79740  Biso   1.000  N
  O57      1.0000 0.34990  0.89930  0.04920  Biso   1.000  O
  O58      1.0000 0.15010  0.10070  0.54920  Biso   1.000  O
  O59      1.0000 0.84990  0.60070  0.95080  Biso   1.000  O
  O60      1.0000 0.65010  0.39930  0.45080  Biso   1.000  O
  N25      1.0000 0.21720  0.29470  0.49930  Biso   1.000  N
  N26      1.0000 0.28280  0.70530  0.99930  Biso   1.000  N
  N27      1.0000 0.71720  0.20530  0.50070  Biso   1.000  N
  N28      1.0000 0.78280  0.79470  0.00070  Biso   1.000  N
  C61      1.0000 0.40610  0.56170  0.19430  Biso   1.000  C
  C62      1.0000 0.09390  0.43830  0.69430  Biso   1.000  C
  C63      1.0000 0.90610  0.93830  0.80570  Biso   1.000  C
  C64      1.0000 0.59390  0.06170  0.30570  Biso   1.000  C
  H21      1.0000 0.46560  0.53410  0.20700  Biso   1.000  H
  H22      1.0000 0.03440  0.46590  0.70700  Biso   1.000  H
  H23      1.0000 0.96560  0.96590  0.79300  Biso   1.000  H
  H24      1.0000 0.53440  0.03410  0.29300  Biso   1.000  H
  C65      1.0000 0.27450  0.64590  0.20090  Biso   1.000  C
  C66      1.0000 0.22550  0.35410  0.70090  Biso   1.000  C
  C67      1.0000 0.77450  0.85410  0.79910  Biso   1.000  C
  C68      1.0000 0.72550  0.14590  0.29910  Biso   1.000  C
  H25      1.0000 0.24810  0.67830  0.21680  Biso   1.000  H
  H26      1.0000 0.25190  0.32170  0.71680  Biso   1.000  H
  H27      1.0000 0.74810  0.82170  0.78320  Biso   1.000  H
  H28      1.0000 0.75190  0.17830  0.28320  Biso   1.000  H
  C69      1.0000 0.29990  0.59810  0.36010  Biso   1.000  C
  C70      1.0000 0.20010  0.40190  0.86010  Biso   1.000  C
  C71      1.0000 0.79990  0.90190  0.63990  Biso   1.000  C
  C72      1.0000 0.70010  0.09810  0.13990  Biso   1.000  C
  H29      1.0000 0.26740  0.63560  0.35640  Biso   1.000  H
  H30      1.0000 0.23260  0.36440  0.85640  Biso   1.000  H
  H31      1.0000 0.76740  0.86440  0.64360  Biso   1.000  H
  H32      1.0000 0.73260  0.13560  0.14360  Biso   1.000  H
  N29      1.0000 0.06590  0.86090  0.18680  Biso   1.000  N
  N30      1.0000 0.43410  0.13910  0.68680  Biso   1.000  N
  N31      1.0000 0.56590  0.63910  0.81320  Biso   1.000  N
  N32      1.0000 0.93410  0.36090  0.31320  Biso   1.000  N
  C73      1.0000 0.89560  0.61490  0.42480  Biso   1.000  C
  C74      1.0000 0.60440  0.38510  0.92480  Biso   1.000  C
  C75      1.0000 0.39560  0.88510  0.57520  Biso   1.000  C
  C76      1.0000 0.10440  0.11490  0.07520  Biso   1.000  C
  H33      1.0000 0.97920  0.60670  0.44020  Biso   1.000  H
  H34      1.0000 0.52080  0.39330  0.94020  Biso   1.000  H
  H35      1.0000 0.47920  0.89330  0.55980  Biso   1.000  H
  H36      1.0000 0.02080  0.10670  0.05980  Biso   1.000  H
  C77      1.0000 0.64220  0.60550  0.41430  Biso   1.000  C
  C78      1.0000 0.85780  0.39450  0.91430  Biso   1.000  C
  C79      1.0000 0.14220  0.89450  0.58570  Biso   1.000  C
  C80      1.0000 0.35780  0.10550  0.08570  Biso   1.000  C
  H37      1.0000 0.55340  0.59040  0.42230  Biso   1.000  H
  H38      1.0000 0.94660  0.40960  0.92230  Biso   1.000  H
  H39      1.0000 0.05340  0.90960  0.57770  Biso   1.000  H
  H40      1.0000 0.44660  0.09040  0.07770  Biso   1.000  H
  C81      1.0000 0.17760  0.61240  0.60230  Biso   1.000  C
  C82      1.0000 0.32240  0.38760  0.10230  Biso   1.000  C
  C83      1.0000 0.67760  0.88760  0.39770  Biso   1.000  C
  C84      1.0000 0.82240  0.11240  0.89770  Biso   1.000  C
  H41      1.0000 0.09660  0.58920  0.59950  Biso   1.000  H
  H42      1.0000 0.40340  0.41080  0.09950  Biso   1.000  H
  H43      1.0000 0.59660  0.91080  0.40050  Biso   1.000  H
  H44      1.0000 0.90340  0.08920  0.90050  Biso   1.000  H
  C85      1.0000 0.16370  0.88400  0.10260  Biso   1.000  C
  C86      1.0000 0.33630  0.11600  0.60260  Biso   1.000  C
  C87      1.0000 0.66370  0.61600  0.89740  Biso   1.000  C
  C88      1.0000 0.83630  0.38400  0.39740  Biso   1.000  C
  C89      1.0000 0.80210  0.57070  0.65970  Biso   1.000  C
  C90      1.0000 0.69790  0.42930  0.15970  Biso   1.000  C
  C91      1.0000 0.30210  0.92930  0.34030  Biso   1.000  C
  C92      1.0000 0.19790  0.07070  0.84030  Biso   1.000  C
  H45      1.0000 0.90070  0.57460  0.65540  Biso   1.000  H
  H46      1.0000 0.59930  0.42540  0.15540  Biso   1.000  H
  H47      1.0000 0.40070  0.92540  0.34460  Biso   1.000  H
  H48      1.0000 0.09930  0.07460  0.84460  Biso   1.000  H
  C93      1.0000 0.26070  0.56860  0.39670  Biso   1.000  C
  C94      1.0000 0.23930  0.43140  0.89670  Biso   1.000  C
  C95      1.0000 0.76070  0.93140  0.60330  Biso   1.000  C
  C96      1.0000 0.73930  0.06860  0.10330  Biso   1.000  C
  H49      1.0000 0.20270  0.58660  0.41730  Biso   1.000  H
  H50      1.0000 0.29730  0.41340  0.91730  Biso   1.000  H
  H51      1.0000 0.70270  0.91340  0.58270  Biso   1.000  H
  H52      1.0000 0.79730  0.08660  0.08270  Biso   1.000  H
  C97      1.0000 0.65190  0.64580  0.38080  Biso   1.000  C
  C98      1.0000 0.84810  0.35420  0.88080  Biso   1.000  C
  C99      1.0000 0.15190  0.85420  0.61920  Biso   1.000  C
  C100     1.0000 0.34810  0.14580  0.11920  Biso   1.000  C
  H53      1.0000 0.56780  0.65760  0.36700  Biso   1.000  H
  H54      1.0000 0.93220  0.34240  0.86700  Biso   1.000  H
  H55      1.0000 0.06780  0.84240  0.63300  Biso   1.000  H
  H56      1.0000 0.43220  0.15760  0.13300  Biso   1.000  H
  C101     1.0000 0.73850  0.59880  0.69300  Biso   1.000  C
  C102     1.0000 0.76150  0.40120  0.19300  Biso   1.000  C
  C103     1.0000 0.23850  0.90120  0.30700  Biso   1.000  C
  C104     1.0000 0.26150  0.09880  0.80700  Biso   1.000  C
  H57      1.0000 0.79470  0.62280  0.71020  Biso   1.000  H
  H58      1.0000 0.70530  0.37720  0.21020  Biso   1.000  H
  H59      1.0000 0.29470  0.87720  0.28980  Biso   1.000  H
  H60      1.0000 0.20530  0.12280  0.78980  Biso   1.000  H
  C105     1.0000 0.57480  0.52910  0.64230  Biso   1.000  C
  C106     1.0000 0.92520  0.47090  0.14230  Biso   1.000  C
  C107     1.0000 0.07480  0.97090  0.35770  Biso   1.000  C
  C108     1.0000 0.42520  0.02910  0.85770  Biso   1.000  C
  H61      1.0000 0.51680  0.50440  0.62620  Biso   1.000  H
  H62      1.0000 0.98320  0.49560  0.12620  Biso   1.000  H
  H63      1.0000 0.01680  0.99560  0.37380  Biso   1.000  H
  H64      1.0000 0.48320  0.00440  0.87380  Biso   1.000  H
  C109     1.0000 0.21700  0.63700  0.15990  Biso   1.000  C
  C110     1.0000 0.28300  0.36300  0.65990  Biso   1.000  C
  C111     1.0000 0.71700  0.86300  0.84010  Biso   1.000  C
  C112     1.0000 0.78300  0.13700  0.34010  Biso   1.000  C
  H65      1.0000 0.14760  0.66220  0.14930  Biso   1.000  H
  H66      1.0000 0.35240  0.33780  0.64930  Biso   1.000  H
  H67      1.0000 0.64760  0.83780  0.85070  Biso   1.000  H
  H68      1.0000 0.85240  0.16220  0.35070  Biso   1.000  H
  C113     1.0000 0.79110  0.32310  0.60770  Biso   1.000  C
  C114     1.0000 0.70890  0.67690  0.10770  Biso   1.000  C
  C115     1.0000 0.29110  0.17690  0.39230  Biso   1.000  C
  C116     1.0000 0.20890  0.82310  0.89230  Biso   1.000  C
  C117     1.0000 0.41880  0.63760  0.58300  Biso   1.000  C
  C118     1.0000 0.08120  0.36240  0.08300  Biso   1.000  C
  C119     1.0000 0.91880  0.86240  0.41700  Biso   1.000  C
  C120     1.0000 0.58120  0.13760  0.91700  Biso   1.000  C
  H69      1.0000 0.50260  0.63240  0.56690  Biso   1.000  H
  H70      1.0000 0.99740  0.36760  0.06690  Biso   1.000  H
  H71      1.0000 0.00260  0.86760  0.43310  Biso   1.000  H
  H72      1.0000 0.49740  0.13240  0.93310  Biso   1.000  H
  C121     1.0000 0.02440  0.89380  0.11360  Biso   1.000  C
  C122     1.0000 0.47560  0.10620  0.61360  Biso   1.000  C
  C123     1.0000 0.52440  0.60620  0.88640  Biso   1.000  C
  C124     1.0000 0.97560  0.39380  0.38640  Biso   1.000  C
  H73      1.0000 0.95970  0.90770  0.09310  Biso   1.000  H
  H74      1.0000 0.54030  0.09230  0.59310  Biso   1.000  H
  H75      1.0000 0.45970  0.59230  0.90690  Biso   1.000  H
  H76      1.0000 0.04030  0.40770  0.40690  Biso   1.000  H
  C125     1.0000 0.20150  0.58290  0.08770  Biso   1.000  C
  C126     1.0000 0.29850  0.41710  0.58770  Biso   1.000  C
  C127     1.0000 0.70150  0.91710  0.91230  Biso   1.000  C
  C128     1.0000 0.79850  0.08290  0.41230  Biso   1.000  C
  C129     1.0000 0.78590  0.50600  0.59220  Biso   1.000  C
  C130     1.0000 0.71410  0.49400  0.09220  Biso   1.000  C
  C131     1.0000 0.28590  0.99400  0.40780  Biso   1.000  C
  C132     1.0000 0.21410  0.00600  0.90780  Biso   1.000  C
  C133     1.0000 0.20350  0.84950  0.17480  Biso   1.000  C
  C134     1.0000 0.29650  0.15050  0.67480  Biso   1.000  C
  C135     1.0000 0.70350  0.65050  0.82520  Biso   1.000  C
  C136     1.0000 0.79650  0.34950  0.32520  Biso   1.000  C
  H77      1.0000 0.26610  0.83450  0.19550  Biso   1.000  H
  H78      1.0000 0.23390  0.16550  0.69550  Biso   1.000  H
  H79      1.0000 0.76610  0.66550  0.80450  Biso   1.000  H
  H80      1.0000 0.73390  0.33450  0.30450  Biso   1.000  H
  C137     1.0000 0.40770  0.68170  0.61350  Biso   1.000  C
  C138     1.0000 0.09230  0.31830  0.11350  Biso   1.000  C
  C139     1.0000 0.90770  0.81830  0.38650  Biso   1.000  C
  C140     1.0000 0.59230  0.18170  0.88650  Biso   1.000  C
  H81      1.0000 0.48860  0.70440  0.61820  Biso   1.000  H
  H82      1.0000 0.01140  0.29560  0.11820  Biso   1.000  H
  H83      1.0000 0.98860  0.79560  0.38180  Biso   1.000  H
  H84      1.0000 0.51140  0.20440  0.88180  Biso   1.000  H
  C141     1.0000 0.25530  0.85920  0.13310  Biso   1.000  C
  C142     1.0000 0.24470  0.14080  0.63310  Biso   1.000  C
  C143     1.0000 0.75530  0.64080  0.86690  Biso   1.000  C
  C144     1.0000 0.74470  0.35920  0.36690  Biso   1.000  C
  H85      1.0000 0.34910  0.84940  0.12570  Biso   1.000  H
  H86      1.0000 0.15090  0.15060  0.62570  Biso   1.000  H
  H87      1.0000 0.84910  0.65060  0.87430  Biso   1.000  H
  H88      1.0000 0.65090  0.34940  0.37430  Biso   1.000  H
  N33      1.0000 0.88650  0.54910  0.28030  Biso   1.000  N
  N34      1.0000 0.61350  0.45090  0.78030  Biso   1.000  N
  N35      1.0000 0.38650  0.95090  0.71970  Biso   1.000  N
  N36      1.0000 0.11350  0.04910  0.21970  Biso   1.000  N
  C145     1.0000 0.78500  0.57010  0.25710  Biso   1.000  C
  C146     1.0000 0.71500  0.42990  0.75710  Biso   1.000  C
  C147     1.0000 0.28500  0.92990  0.74290  Biso   1.000  C
  C148     1.0000 0.21500  0.07010  0.24290  Biso   1.000  C
  C149     1.0000 0.08800  0.27540  0.47620  Biso   1.000  C
  C150     1.0000 0.41200  0.72460  0.97620  Biso   1.000  C
  C151     1.0000 0.58800  0.22460  0.52380  Biso   1.000  C
  C152     1.0000 0.91200  0.77540  0.02380  Biso   1.000  C
  H89      1.0000 0.08780  0.29140  0.44740  Biso   1.000  H
  H90      1.0000 0.41220  0.70860  0.94740  Biso   1.000  H
  H91      1.0000 0.58780  0.20860  0.55260  Biso   1.000  H
  H92      1.0000 0.91220  0.79140  0.05260  Biso   1.000  H
  H93      1.0000 0.00430  0.28790  0.49160  Biso   1.000  H
  H94      1.0000 0.49570  0.71210  0.99160  Biso   1.000  H
  H95      1.0000 0.50430  0.21210  0.50840  Biso   1.000  H
  H96      1.0000 0.99570  0.78790  0.00840  Biso   1.000  H
  H97      1.0000 0.08870  0.23410  0.47440  Biso   1.000  H
  H98      1.0000 0.41130  0.76590  0.97440  Biso   1.000  H
  H99      1.0000 0.58870  0.26590  0.52560  Biso   1.000  H
  H100     1.0000 0.91130  0.73410  0.02560  Biso   1.000  H
  C153     1.0000 0.80800  0.60650  0.21590  Biso   1.000  C
  C154     1.0000 0.69200  0.39350  0.71590  Biso   1.000  C
  C155     1.0000 0.30800  0.89350  0.78410  Biso   1.000  C
  C156     1.0000 0.19200  0.10650  0.28410  Biso   1.000  C
  H101     1.0000 0.71750  0.61200  0.20140  Biso   1.000  H
  H102     1.0000 0.78250  0.38800  0.70140  Biso   1.000  H
  H103     1.0000 0.21750  0.88800  0.79860  Biso   1.000  H
  H104     1.0000 0.28250  0.11200  0.29860  Biso   1.000  H
  H105     1.0000 0.87330  0.58700  0.19660  Biso   1.000  H
  H106     1.0000 0.62670  0.41300  0.69660  Biso   1.000  H
  H107     1.0000 0.37330  0.91300  0.80340  Biso   1.000  H
  H108     1.0000 0.12670  0.08700  0.30340  Biso   1.000  H
  H109     1.0000 0.84760  0.64320  0.22370  Biso   1.000  H
  H110     1.0000 0.65240  0.35680  0.72370  Biso   1.000  H
  H111     1.0000 0.34760  0.85680  0.77630  Biso   1.000  H
  H112     1.0000 0.15240  0.14320  0.27630  Biso   1.000  H
  C157     1.0000 0.17910  0.65830  0.63090  Biso   1.000  C
  C158     1.0000 0.32090  0.34170  0.13090  Biso   1.000  C
  C159     1.0000 0.67910  0.84170  0.36910  Biso   1.000  C
  C160     1.0000 0.82090  0.15830  0.86910  Biso   1.000  C
  H113     1.0000 0.09750  0.66520  0.64760  Biso   1.000  H
  H114     1.0000 0.40250  0.33480  0.14760  Biso   1.000  H
  H115     1.0000 0.59750  0.83480  0.35240  Biso   1.000  H
  H116     1.0000 0.90250  0.16520  0.85240  Biso   1.000  H
  C161     1.0000 0.89380  0.27250  0.66780  Biso   1.000  C
  C162     1.0000 0.60620  0.72750  0.16780  Biso   1.000  C
  C163     1.0000 0.39380  0.22750  0.33220  Biso   1.000  C
  C164     1.0000 0.10620  0.77250  0.83220  Biso   1.000  C
  H117     1.0000 0.97520  0.26060  0.68290  Biso   1.000  H
  H118     1.0000 0.52480  0.73940  0.18290  Biso   1.000  H
  H119     1.0000 0.47520  0.23940  0.31710  Biso   1.000  H
  H120     1.0000 0.02480  0.76060  0.81710  Biso   1.000  H
  C165     1.0000 0.42200  0.52050  0.33610  Biso   1.000  C
  C166     1.0000 0.07800  0.47950  0.83610  Biso   1.000  C
  C167     1.0000 0.92200  0.97950  0.66390  Biso   1.000  C
  C168     1.0000 0.57800  0.02050  0.16390  Biso   1.000  C
  H121     1.0000 0.47590  0.50290  0.31420  Biso   1.000  H
  H122     1.0000 0.02410  0.49710  0.81420  Biso   1.000  H
  H123     1.0000 0.97590  0.99710  0.68580  Biso   1.000  H
  H124     1.0000 0.52410  0.00290  0.18580  Biso   1.000  H
  C169     1.0000 0.22700  0.28210  0.54720  Biso   1.000  C
  C170     1.0000 0.27300  0.71790  0.04720  Biso   1.000  C
  C171     1.0000 0.72700  0.21790  0.45280  Biso   1.000  C
  C172     1.0000 0.77300  0.78210  0.95280  Biso   1.000  C
  H125     1.0000 0.32330  0.28890  0.55710  Biso   1.000  H
  H126     1.0000 0.17670  0.71110  0.05710  Biso   1.000  H
  H127     1.0000 0.82330  0.21110  0.44290  Biso   1.000  H
  H128     1.0000 0.67670  0.78890  0.94290  Biso   1.000  H
  H129     1.0000 0.20170  0.24260  0.55230  Biso   1.000  H
  H130     1.0000 0.29830  0.75740  0.05230  Biso   1.000  H
  H131     1.0000 0.70170  0.25740  0.44770  Biso   1.000  H
  H132     1.0000 0.79830  0.74260  0.94770  Biso   1.000  H
  H133     1.0000 0.16160  0.30660  0.56270  Biso   1.000  H
  H134     1.0000 0.33840  0.69340  0.06270  Biso   1.000  H
  H135     1.0000 0.66160  0.19340  0.43730  Biso   1.000  H
  H136     1.0000 0.83840  0.80660  0.93730  Biso   1.000  H
  C173     1.0000 0.90000  0.65410  0.39090  Biso   1.000  C
  C174     1.0000 0.60000  0.34590  0.89090  Biso   1.000  C
  C175     1.0000 0.40000  0.84590  0.60910  Biso   1.000  C
  C176     1.0000 0.10000  0.15410  0.10910  Biso   1.000  C
  H137     1.0000 0.98700  0.67110  0.38380  Biso   1.000  H
  H138     1.0000 0.51300  0.32890  0.88380  Biso   1.000  H
  H139     1.0000 0.48700  0.82890  0.61620  Biso   1.000  H
  H140     1.0000 0.01300  0.17110  0.11620  Biso   1.000  H
  C177     1.0000 0.36080  0.55250  0.15230  Biso   1.000  C
  C178     1.0000 0.13920  0.44750  0.65230  Biso   1.000  C
  C179     1.0000 0.86080  0.94750  0.84770  Biso   1.000  C
  C180     1.0000 0.63920  0.05250  0.34770  Biso   1.000  C
  H141     1.0000 0.39570  0.52150  0.13630  Biso   1.000  H
  H142     1.0000 0.10430  0.47850  0.63630  Biso   1.000  H
  H143     1.0000 0.89570  0.97850  0.86370  Biso   1.000  H
  H144     1.0000 0.60430  0.02150  0.36370  Biso   1.000  H
  C181     1.0000 0.29850  0.55100  0.54690  Biso   1.000  C
  C182     1.0000 0.20150  0.44900  0.04690  Biso   1.000  C
  C183     1.0000 0.79850  0.94900  0.45310  Biso   1.000  C
  C184     1.0000 0.70150  0.05100  0.95310  Biso   1.000  C
  C185     1.0000 0.39000  0.48790  0.37270  Biso   1.000  C
  C186     1.0000 0.11000  0.51210  0.87270  Biso   1.000  C
  C187     1.0000 0.89000  0.01210  0.62730  Biso   1.000  C
  C188     1.0000 0.61000  0.98790  0.12730  Biso   1.000  C
  H145     1.0000 0.42500  0.45060  0.37600  Biso   1.000  H
  H146     1.0000 0.07500  0.54940  0.87600  Biso   1.000  H
  H147     1.0000 0.92500  0.04940  0.62400  Biso   1.000  H
  H148     1.0000 0.57500  0.95060  0.12400  Biso   1.000  H
  C189     1.0000 0.32600  0.33360  0.43210  Biso   1.000  C
  C190     1.0000 0.17400  0.66640  0.93210  Biso   1.000  C
  C191     1.0000 0.82600  0.16640  0.56790  Biso   1.000  C
  C192     1.0000 0.67400  0.83360  0.06790  Biso   1.000  C
  H149     1.0000 0.40400  0.35820  0.42390  Biso   1.000  H
  H150     1.0000 0.09600  0.64180  0.92390  Biso   1.000  H
  H151     1.0000 0.90400  0.14180  0.57610  Biso   1.000  H
  H152     1.0000 0.59600  0.85820  0.07610  Biso   1.000  H
  H153     1.0000 0.23640  0.35060  0.42290  Biso   1.000  H
  H154     1.0000 0.26360  0.64940  0.92290  Biso   1.000  H
  H155     1.0000 0.73640  0.14940  0.57710  Biso   1.000  H
  H156     1.0000 0.76360  0.85060  0.07710  Biso   1.000  H
  H157     1.0000 0.33680  0.29670  0.41840  Biso   1.000  H
  H158     1.0000 0.16320  0.70330  0.91840  Biso   1.000  H
  H159     1.0000 0.83680  0.20330  0.58160  Biso   1.000  H
  H160     1.0000 0.66320  0.79670  0.08160  Biso   1.000  H
  C193     1.0000 0.03900  0.55440  0.26520  Biso   1.000  C
  C194     1.0000 0.46100  0.44560  0.76520  Biso   1.000  C
  C195     1.0000 0.53900  0.94560  0.73480  Biso   1.000  C
  C196     1.0000 0.96100  0.05440  0.23480  Biso   1.000  C
  H161     1.0000 0.04270  0.57790  0.23950  Biso   1.000  H
  H162     1.0000 0.45730  0.42210  0.73950  Biso   1.000  H
  H163     1.0000 0.54270  0.92210  0.76050  Biso   1.000  H
  H164     1.0000 0.95730  0.07790  0.26050  Biso   1.000  H
  H165     1.0000 0.07670  0.51690  0.25870  Biso   1.000  H
  H166     1.0000 0.42330  0.48310  0.75870  Biso   1.000  H
  H167     1.0000 0.57670  0.98310  0.74130  Biso   1.000  H
  H168     1.0000 0.92330  0.01690  0.24130  Biso   1.000  H
  H169     1.0000 0.09620  0.57190  0.28770  Biso   1.000  H
  H170     1.0000 0.40380  0.42810  0.78770  Biso   1.000  H
  H171     1.0000 0.59620  0.92810  0.71230  Biso   1.000  H
  H172     1.0000 0.90380  0.07190  0.21230  Biso   1.000  H
  C197     1.0000 0.85100  0.51550  0.32030  Biso   1.000  C
  C198     1.0000 0.64900  0.48450  0.82030  Biso   1.000  C
  C199     1.0000 0.35100  0.98450  0.67970  Biso   1.000  C
  C200     1.0000 0.14900  0.01550  0.17970  Biso   1.000  C
  H173     1.0000 0.75660  0.52640  0.33040  Biso   1.000  H
  H174     1.0000 0.74340  0.47360  0.83040  Biso   1.000  H
  H175     1.0000 0.25660  0.97360  0.66960  Biso   1.000  H
  H176     1.0000 0.24340  0.02640  0.16960  Biso   1.000  H
  H177     1.0000 0.92030  0.52350  0.34250  Biso   1.000  H
  H178     1.0000 0.57970  0.47650  0.84250  Biso   1.000  H
  H179     1.0000 0.42030  0.97650  0.65750  Biso   1.000  H
  H180     1.0000 0.07970  0.02350  0.15750  Biso   1.000  H
  H181     1.0000 0.85150  0.47520  0.31360  Biso   1.000  H
  H182     1.0000 0.64850  0.52480  0.81360  Biso   1.000  H
  H183     1.0000 0.35150  0.02480  0.68640  Biso   1.000  H
  H184     1.0000 0.14850  0.97520  0.18640  Biso   1.000  H
  O61      1.0000 0.11930  0.91440  0.03030  Biso   1.000  O
  O62      1.0000 0.38070  0.08560  0.53030  Biso   1.000  O
  O63      1.0000 0.61930  0.58560  0.96970  Biso   1.000  O
  O64      1.0000 0.88070  0.41440  0.46970  Biso   1.000  O
  N37      1.0000 0.28800  0.78080  0.43990  Biso   1.000  N
  N38      1.0000 0.21200  0.21920  0.93990  Biso   1.000  N
  N39      1.0000 0.78800  0.71920  0.56010  Biso   1.000  N
  N40      1.0000 0.71200  0.28080  0.06010  Biso   1.000  N
  O65      1.0000 0.18400  0.69610  0.43880  Biso   1.000  O
  O66      1.0000 0.31600  0.30390  0.93880  Biso   1.000  O
  O67      1.0000 0.68400  0.80390  0.56120  Biso   1.000  O
  O68      1.0000 0.81600  0.19610  0.06120  Biso   1.000  O
  C201     1.0000 0.22400  0.73360  0.46640  Biso   1.000  C
  C202     1.0000 0.27600  0.26640  0.96640  Biso   1.000  C
  C203     1.0000 0.72400  0.76640  0.53360  Biso   1.000  C
  C204     1.0000 0.77600  0.23360  0.03360  Biso   1.000  C
  C205     1.0000 0.32300  0.83330  0.46600  Biso   1.000  C
  C206     1.0000 0.17700  0.16670  0.96600  Biso   1.000  C
  C207     1.0000 0.82300  0.66670  0.53400  Biso   1.000  C
  C208     1.0000 0.67700  0.33330  0.03400  Biso   1.000  C
  C209     1.0000 0.32300  0.78230  0.39210  Biso   1.000  C
  C210     1.0000 0.17700  0.21770  0.89210  Biso   1.000  C
  C211     1.0000 0.82300  0.71770  0.60790  Biso   1.000  C
  C212     1.0000 0.67700  0.28230  0.10790  Biso   1.000  C
  H185     1.0000 0.40780  0.75980  0.38670  Biso   1.000  H
  H186     1.0000 0.09220  0.24020  0.88670  Biso   1.000  H
  H187     1.0000 0.90780  0.74020  0.61330  Biso   1.000  H
  H188     1.0000 0.59220  0.25980  0.11330  Biso   1.000  H
  H189     1.0000 0.33990  0.82140  0.38330  Biso   1.000  H
  H190     1.0000 0.16010  0.17860  0.88330  Biso   1.000  H
  H191     1.0000 0.83990  0.67860  0.61670  Biso   1.000  H
  H192     1.0000 0.66010  0.32140  0.11670  Biso   1.000  H
  H193     1.0000 0.24390  0.76680  0.37590  Biso   1.000  H
  H194     1.0000 0.25610  0.23320  0.87590  Biso   1.000  H
  H195     1.0000 0.74390  0.73320  0.62410  Biso   1.000  H
  H196     1.0000 0.75610  0.26680  0.12410  Biso   1.000  H
  C213     1.0000 0.19600  0.76290  0.50890  Biso   1.000  C
  C214     1.0000 0.30400  0.23710  0.00890  Biso   1.000  C
  C215     1.0000 0.69600  0.73710  0.49110  Biso   1.000  C
  C216     1.0000 0.80400  0.26290  0.99110  Biso   1.000  C
