data_image0
_cell_length_a       9.375
_cell_length_b       22.981
_cell_length_c       31.16
_cell_angle_alpha    90
_cell_angle_beta     90
_cell_angle_gamma    90

_symmetry_space_group_name_H-M    "P 1"
_symmetry_int_tables_number       1

loop_
  _symmetry_equiv_pos_as_xyz
  'x, y, z'

loop_
  _atom_site_label
  _atom_site_occupancy
  _atom_site_fract_x
  _atom_site_fract_y
  _atom_site_fract_z
  _atom_site_thermal_displace_type
  _atom_site_B_iso_or_equiv
  _atom_site_type_symbol
  Nd1      1.0000 0.53864  0.44129  0.98475  Biso   1.000  Nd
  Nd2      1.0000 0.96136  0.55871  0.48475  Biso   1.000  Nd
  Nd3      1.0000 0.03864  0.05871  0.01525  Biso   1.000  Nd
  Nd4      1.0000 0.46136  0.94129  0.51525  Biso   1.000  Nd
  Nd5      1.0000 0.00733  0.47050  0.97797  Biso   1.000  Nd
  Nd6      1.0000 0.49267  0.52950  0.47797  Biso   1.000  Nd
  Nd7      1.0000 0.50733  0.02950  0.02203  Biso   1.000  Nd
  Nd8      1.0000 0.99267  0.97050  0.52203  Biso   1.000  Nd
  I1       1.0000 0.48584  0.25502  0.72939  Biso   1.000  I
  I2       1.0000 0.01416  0.74498  0.22939  Biso   1.000  I
  I3       1.0000 0.98584  0.24498  0.27061  Biso   1.000  I
  I4       1.0000 0.51416  0.75502  0.77061  Biso   1.000  I
  I5       1.0000 0.97431  0.27069  0.71749  Biso   1.000  I
  I6       1.0000 0.52569  0.72931  0.21749  Biso   1.000  I
  I7       1.0000 0.47431  0.22931  0.28251  Biso   1.000  I
  I8       1.0000 0.02569  0.77069  0.78251  Biso   1.000  I
  I9       1.0000 0.79049  0.10528  0.75384  Biso   1.000  I
  I10      1.0000 0.70951  0.89472  0.25384  Biso   1.000  I
  I11      1.0000 0.29049  0.39472  0.24616  Biso   1.000  I
  I12      1.0000 0.20951  0.60528  0.74616  Biso   1.000  I
  Cu1      1.0000 0.51240  0.13997  0.75125  Biso   1.000  Cu
  Cu2      1.0000 0.98760  0.86003  0.25125  Biso   1.000  Cu
  Cu3      1.0000 0.01240  0.36003  0.24875  Biso   1.000  Cu
  Cu4      1.0000 0.48760  0.63997  0.74875  Biso   1.000  Cu
  Cu5      1.0000 0.04040  0.38337  0.72485  Biso   1.000  Cu
  Cu6      1.0000 0.45960  0.61663  0.22485  Biso   1.000  Cu
  Cu7      1.0000 0.54040  0.11663  0.27515  Biso   1.000  Cu
  Cu8      1.0000 0.95960  0.88337  0.77515  Biso   1.000  Cu
  Cu9      1.0000 0.71680  0.26593  0.68128  Biso   1.000  Cu
  Cu10     1.0000 0.78320  0.73407  0.18128  Biso   1.000  Cu
  Cu11     1.0000 0.21680  0.23407  0.31872  Biso   1.000  Cu
  Cu12     1.0000 0.28320  0.76593  0.81872  Biso   1.000  Cu
  Cu13     1.0000 0.74400  0.21625  0.76040  Biso   1.000  Cu
  Cu14     1.0000 0.75600  0.78375  0.26040  Biso   1.000  Cu
  Cu15     1.0000 0.24400  0.28375  0.23960  Biso   1.000  Cu
  Cu16     1.0000 0.25600  0.71625  0.73960  Biso   1.000  Cu
  N1       1.0000 0.58960  0.59140  0.79570  Biso   1.000  N
  N2       1.0000 0.91040  0.40860  0.29570  Biso   1.000  N
  N3       1.0000 0.08960  0.90860  0.20430  Biso   1.000  N
  N4       1.0000 0.41040  0.09140  0.70430  Biso   1.000  N
  O1       1.0000 0.64270  0.40170  0.05240  Biso   1.000  O
  O2       1.0000 0.85730  0.59830  0.55240  Biso   1.000  O
  O3       1.0000 0.14270  0.09830  0.94760  Biso   1.000  O
  O4       1.0000 0.35730  0.90170  0.44760  Biso   1.000  O
  O5       1.0000 0.69540  0.36480  0.95760  Biso   1.000  O
  O6       1.0000 0.80460  0.63520  0.45760  Biso   1.000  O
  O7       1.0000 0.19540  0.13520  0.04240  Biso   1.000  O
  O8       1.0000 0.30460  0.86480  0.54240  Biso   1.000  O
  C1       1.0000 0.80320  0.36020  0.93530  Biso   1.000  C
  C2       1.0000 0.69680  0.63980  0.43530  Biso   1.000  C
  C3       1.0000 0.30320  0.13980  0.06470  Biso   1.000  C
  C4       1.0000 0.19680  0.86020  0.56470  Biso   1.000  C
  N5       1.0000 0.29740  0.69190  0.85650  Biso   1.000  N
  N6       1.0000 0.20260  0.30810  0.35650  Biso   1.000  N
  N7       1.0000 0.79740  0.80810  0.14350  Biso   1.000  N
  N8       1.0000 0.70260  0.19190  0.64350  Biso   1.000  N
  O9       1.0000 0.43000  0.41040  0.91520  Biso   1.000  O
  O10      1.0000 0.07000  0.58960  0.41520  Biso   1.000  O
  O11      1.0000 0.93000  0.08960  0.08480  Biso   1.000  O
  O12      1.0000 0.57000  0.91040  0.58480  Biso   1.000  O
  N9       1.0000 0.93510  0.36470  0.18660  Biso   1.000  N
  N10      1.0000 0.56490  0.63530  0.68660  Biso   1.000  N
  N11      1.0000 0.43510  0.13530  0.81340  Biso   1.000  N
  N12      1.0000 0.06490  0.86470  0.31340  Biso   1.000  N
  C5       1.0000 0.77490  0.40550  0.05880  Biso   1.000  C
  C6       1.0000 0.72510  0.59450  0.55880  Biso   1.000  C
  C7       1.0000 0.27490  0.09450  0.94120  Biso   1.000  C
  C8       1.0000 0.22510  0.90550  0.44120  Biso   1.000  C
  C9       1.0000 0.23590  0.51520  0.55740  Biso   1.000  C
  C10      1.0000 0.26410  0.48480  0.05740  Biso   1.000  C
  C11      1.0000 0.73590  0.98480  0.44260  Biso   1.000  C
  C12      1.0000 0.76410  0.01520  0.94260  Biso   1.000  C
  O13      1.0000 0.92560  0.38290  0.94140  Biso   1.000  O
  O14      1.0000 0.57440  0.61710  0.44140  Biso   1.000  O
  O15      1.0000 0.42560  0.11710  0.05860  Biso   1.000  O
  O16      1.0000 0.07440  0.88290  0.55860  Biso   1.000  O
  O17      1.0000 0.18190  0.54450  0.96680  Biso   1.000  O
  O18      1.0000 0.31810  0.45550  0.46680  Biso   1.000  O
  O19      1.0000 0.68190  0.95550  0.03320  Biso   1.000  O
  O20      1.0000 0.81810  0.04450  0.53320  Biso   1.000  O
  O21      1.0000 0.70900  0.48180  0.93170  Biso   1.000  O
  O22      1.0000 0.79100  0.51820  0.43170  Biso   1.000  O
  O23      1.0000 0.20900  0.01820  0.06830  Biso   1.000  O
  O24      1.0000 0.29100  0.98180  0.56830  Biso   1.000  O
  C13      1.0000 0.74190  0.44640  0.52640  Biso   1.000  C
  C14      1.0000 0.75810  0.55360  0.02640  Biso   1.000  C
  C15      1.0000 0.24190  0.05360  0.47360  Biso   1.000  C
  C16      1.0000 0.25810  0.94640  0.97360  Biso   1.000  C
  O25      1.0000 0.14060  0.54090  0.53700  Biso   1.000  O
  O26      1.0000 0.35940  0.45910  0.03700  Biso   1.000  O
  O27      1.0000 0.64060  0.95910  0.46300  Biso   1.000  O
  O28      1.0000 0.85940  0.04090  0.96300  Biso   1.000  O
  C17      1.0000 0.73340  0.40540  0.56340  Biso   1.000  C
  C18      1.0000 0.76660  0.59460  0.06340  Biso   1.000  C
  C19      1.0000 0.23340  0.09460  0.43660  Biso   1.000  C
  C20      1.0000 0.26660  0.90540  0.93660  Biso   1.000  C
  C21      1.0000 0.66090  0.30340  0.88120  Biso   1.000  C
  C22      1.0000 0.83910  0.69660  0.38120  Biso   1.000  C
  C23      1.0000 0.16090  0.19660  0.11880  Biso   1.000  C
  C24      1.0000 0.33910  0.80340  0.61880  Biso   1.000  C
  H1       1.0000 0.58090  0.31150  0.89780  Biso   1.000  H
  H2       1.0000 0.91910  0.68850  0.39780  Biso   1.000  H
  H3       1.0000 0.08090  0.18850  0.10220  Biso   1.000  H
  H4       1.0000 0.41910  0.81150  0.60220  Biso   1.000  H
  O29      1.0000 0.41800  0.52920  0.95750  Biso   1.000  O
  O30      1.0000 0.08200  0.47080  0.45750  Biso   1.000  O
  O31      1.0000 0.91800  0.97080  0.04250  Biso   1.000  O
  O32      1.0000 0.58200  0.02920  0.54250  Biso   1.000  O
  N13      1.0000 0.71690  0.32820  0.63360  Biso   1.000  N
  N14      1.0000 0.78310  0.67180  0.13360  Biso   1.000  N
  N15      1.0000 0.21690  0.17180  0.36640  Biso   1.000  N
  N16      1.0000 0.28310  0.82820  0.86640  Biso   1.000  N
  C25      1.0000 0.91050  0.30700  0.87060  Biso   1.000  C
  C26      1.0000 0.58950  0.69300  0.37060  Biso   1.000  C
  C27      1.0000 0.41050  0.19300  0.12940  Biso   1.000  C
  C28      1.0000 0.08950  0.80700  0.62940  Biso   1.000  C
  H5       1.0000 0.00110  0.31960  0.87840  Biso   1.000  H
  H6       1.0000 0.49890  0.68040  0.37840  Biso   1.000  H
  H7       1.0000 0.50110  0.18040  0.12160  Biso   1.000  H
  H8       1.0000 0.99890  0.81960  0.62160  Biso   1.000  H
  N17      1.0000 0.20840  0.29640  0.00210  Biso   1.000  N
  N18      1.0000 0.29160  0.70360  0.50210  Biso   1.000  N
  N19      1.0000 0.70840  0.20360  0.99790  Biso   1.000  N
  N20      1.0000 0.79160  0.79640  0.49790  Biso   1.000  N
  C29      1.0000 0.01860  0.38540  0.15520  Biso   1.000  C
  C30      1.0000 0.48140  0.61460  0.65520  Biso   1.000  C
  C31      1.0000 0.51860  0.11460  0.84480  Biso   1.000  C
  C32      1.0000 0.98140  0.88540  0.34480  Biso   1.000  C
  H9       1.0000 0.11470  0.39090  0.16150  Biso   1.000  H
  H10      1.0000 0.38530  0.60910  0.66150  Biso   1.000  H
  H11      1.0000 0.61470  0.10910  0.83850  Biso   1.000  H
  H12      1.0000 0.88530  0.89090  0.33850  Biso   1.000  H
  C33      1.0000 0.19830  0.48340  0.59710  Biso   1.000  C
  C34      1.0000 0.30170  0.51660  0.09710  Biso   1.000  C
  C35      1.0000 0.69830  0.01660  0.40290  Biso   1.000  C
  C36      1.0000 0.80170  0.98340  0.90290  Biso   1.000  C
  C37      1.0000 0.72700  0.60060  0.80570  Biso   1.000  C
  C38      1.0000 0.77300  0.39940  0.30570  Biso   1.000  C
  C39      1.0000 0.22700  0.89940  0.19430  Biso   1.000  C
  C40      1.0000 0.27300  0.10060  0.69430  Biso   1.000  C
  H13      1.0000 0.77750  0.62790  0.78960  Biso   1.000  H
  H14      1.0000 0.72250  0.37210  0.28960  Biso   1.000  H
  H15      1.0000 0.27750  0.87210  0.21040  Biso   1.000  H
  H16      1.0000 0.22250  0.12790  0.71040  Biso   1.000  H
  C41      1.0000 0.30160  0.55520  0.95050  Biso   1.000  C
  C42      1.0000 0.19840  0.44480  0.45050  Biso   1.000  C
  C43      1.0000 0.80160  0.94480  0.04950  Biso   1.000  C
  C44      1.0000 0.69840  0.05520  0.54950  Biso   1.000  C
  C45      1.0000 0.18080  0.61360  0.89400  Biso   1.000  C
  C46      1.0000 0.31920  0.38640  0.39400  Biso   1.000  C
  C47      1.0000 0.68080  0.88640  0.10600  Biso   1.000  C
  C48      1.0000 0.81920  0.11360  0.60600  Biso   1.000  C
  H17      1.0000 0.09890  0.59130  0.89790  Biso   1.000  H
  H18      1.0000 0.40110  0.40870  0.39790  Biso   1.000  H
  H19      1.0000 0.59890  0.90870  0.10210  Biso   1.000  H
  H20      1.0000 0.90110  0.09130  0.60210  Biso   1.000  H
  C49      1.0000 0.23830  0.40910  0.86710  Biso   1.000  C
  C50      1.0000 0.26170  0.59090  0.36710  Biso   1.000  C
  C51      1.0000 0.73830  0.09090  0.13290  Biso   1.000  C
  C52      1.0000 0.76170  0.90910  0.63290  Biso   1.000  C
  N21      1.0000 0.76420  0.25340  0.82060  Biso   1.000  N
  N22      1.0000 0.73580  0.74660  0.32060  Biso   1.000  N
  N23      1.0000 0.26420  0.24660  0.17940  Biso   1.000  N
  N24      1.0000 0.23580  0.75340  0.67940  Biso   1.000  N
  C53      1.0000 0.41520  0.68020  0.87850  Biso   1.000  C
  C54      1.0000 0.08480  0.31980  0.37850  Biso   1.000  C
  C55      1.0000 0.91520  0.81980  0.12150  Biso   1.000  C
  C56      1.0000 0.58480  0.18020  0.62150  Biso   1.000  C
  H21      1.0000 0.49540  0.70310  0.87370  Biso   1.000  H
  H22      1.0000 0.00460  0.29690  0.37370  Biso   1.000  H
  H23      1.0000 0.99540  0.79690  0.12630  Biso   1.000  H
  H24      1.0000 0.50460  0.20310  0.62630  Biso   1.000  H
  C57      1.0000 0.79760  0.57220  0.83820  Biso   1.000  C
  C58      1.0000 0.70240  0.42780  0.33820  Biso   1.000  C
  C59      1.0000 0.29760  0.92780  0.16180  Biso   1.000  C
  C60      1.0000 0.20240  0.07220  0.66180  Biso   1.000  C
  H25      1.0000 0.89550  0.57650  0.84170  Biso   1.000  H
  H26      1.0000 0.60450  0.42350  0.34170  Biso   1.000  H
  H27      1.0000 0.39550  0.92350  0.15830  Biso   1.000  H
  H28      1.0000 0.10450  0.07650  0.65830  Biso   1.000  H
  O33      1.0000 0.91950  0.51530  0.91050  Biso   1.000  O
  O34      1.0000 0.58050  0.48470  0.41050  Biso   1.000  O
  O35      1.0000 0.41950  0.98470  0.08950  Biso   1.000  O
  O36      1.0000 0.08050  0.01530  0.58950  Biso   1.000  O
  C61      1.0000 0.29680  0.41770  0.91050  Biso   1.000  C
  C62      1.0000 0.20320  0.58230  0.41050  Biso   1.000  C
  C63      1.0000 0.79680  0.08230  0.08950  Biso   1.000  C
  C64      1.0000 0.70320  0.91770  0.58950  Biso   1.000  C
  O37      1.0000 0.41780  0.34680  0.99850  Biso   1.000  O
  O38      1.0000 0.08220  0.65320  0.49850  Biso   1.000  O
  O39      1.0000 0.91780  0.15320  0.00150  Biso   1.000  O
  O40      1.0000 0.58220  0.84680  0.50150  Biso   1.000  O
  C65      1.0000 0.14170  0.44830  0.84790  Biso   1.000  C
  C66      1.0000 0.35830  0.55170  0.34790  Biso   1.000  C
  C67      1.0000 0.64170  0.05170  0.15210  Biso   1.000  C
  C68      1.0000 0.85830  0.94830  0.65210  Biso   1.000  C
  H29      1.0000 0.11160  0.48030  0.86390  Biso   1.000  H
  H30      1.0000 0.38840  0.51970  0.36390  Biso   1.000  H
  H31      1.0000 0.61160  0.01970  0.13610  Biso   1.000  H
  H32      1.0000 0.88840  0.98030  0.63610  Biso   1.000  H
  C69      1.0000 0.09050  0.44200  0.80770  Biso   1.000  C
  C70      1.0000 0.40950  0.55800  0.30770  Biso   1.000  C
  C71      1.0000 0.59050  0.05800  0.19230  Biso   1.000  C
  C72      1.0000 0.90950  0.94200  0.69230  Biso   1.000  C
  H33      1.0000 0.03130  0.47050  0.79620  Biso   1.000  H
  H34      1.0000 0.46870  0.52950  0.29620  Biso   1.000  H
  H35      1.0000 0.53130  0.02950  0.20380  Biso   1.000  H
  H36      1.0000 0.96870  0.97050  0.70380  Biso   1.000  H
  O41      1.0000 0.85490  0.47590  0.52250  Biso   1.000  O
  O42      1.0000 0.64510  0.52410  0.02250  Biso   1.000  O
  O43      1.0000 0.35490  0.02410  0.47750  Biso   1.000  O
  O44      1.0000 0.14510  0.97590  0.97750  Biso   1.000  O
  C73      1.0000 0.72200  0.42770  0.74440  Biso   1.000  C
  C74      1.0000 0.77800  0.57230  0.24440  Biso   1.000  C
  C75      1.0000 0.22200  0.07230  0.25560  Biso   1.000  C
  C76      1.0000 0.27800  0.92770  0.75560  Biso   1.000  C
  C77      1.0000 0.10100  0.51000  0.62580  Biso   1.000  C
  C78      1.0000 0.39900  0.49000  0.12580  Biso   1.000  C
  C79      1.0000 0.60100  0.99000  0.37420  Biso   1.000  C
  C80      1.0000 0.89900  0.01000  0.87420  Biso   1.000  C
  H37      1.0000 0.06310  0.54680  0.62070  Biso   1.000  H
  H38      1.0000 0.43690  0.45320  0.12070  Biso   1.000  H
  H39      1.0000 0.56310  0.95320  0.37930  Biso   1.000  H
  H40      1.0000 0.93690  0.04680  0.87930  Biso   1.000  H
  C81      1.0000 0.89030  0.27140  0.83580  Biso   1.000  C
  C82      1.0000 0.60970  0.72860  0.33580  Biso   1.000  C
  C83      1.0000 0.39030  0.22860  0.16420  Biso   1.000  C
  C84      1.0000 0.10970  0.77140  0.66420  Biso   1.000  C
  H41      1.0000 0.97150  0.25860  0.82140  Biso   1.000  H
  H42      1.0000 0.52850  0.74140  0.32140  Biso   1.000  H
  H43      1.0000 0.47150  0.24140  0.17860  Biso   1.000  H
  H44      1.0000 0.02850  0.75860  0.67860  Biso   1.000  H
  C85      1.0000 0.21630  0.28210  0.95710  Biso   1.000  C
  C86      1.0000 0.28370  0.71790  0.45710  Biso   1.000  C
  C87      1.0000 0.71630  0.21790  0.04290  Biso   1.000  C
  C88      1.0000 0.78370  0.78210  0.54290  Biso   1.000  C
  H45      1.0000 0.17210  0.31240  0.94060  Biso   1.000  H
  H46      1.0000 0.32790  0.68760  0.44060  Biso   1.000  H
  H47      1.0000 0.67210  0.18760  0.05940  Biso   1.000  H
  H48      1.0000 0.82790  0.81240  0.55940  Biso   1.000  H
  H49      1.0000 0.16760  0.24600  0.95200  Biso   1.000  H
  H50      1.0000 0.33240  0.75400  0.45200  Biso   1.000  H
  H51      1.0000 0.66760  0.25400  0.04800  Biso   1.000  H
  H52      1.0000 0.83240  0.74600  0.54800  Biso   1.000  H
  H53      1.0000 0.31440  0.27830  0.94880  Biso   1.000  H
  H54      1.0000 0.18560  0.72170  0.44880  Biso   1.000  H
  H55      1.0000 0.81440  0.22170  0.05120  Biso   1.000  H
  H56      1.0000 0.68560  0.77830  0.55120  Biso   1.000  H
  C89      1.0000 0.72110  0.53730  0.86550  Biso   1.000  C
  C90      1.0000 0.77890  0.46270  0.36550  Biso   1.000  C
  C91      1.0000 0.22110  0.96270  0.13450  Biso   1.000  C
  C92      1.0000 0.27890  0.03730  0.63450  Biso   1.000  C
  O45      1.0000 0.63090  0.45230  0.50370  Biso   1.000  O
  O46      1.0000 0.86910  0.54770  0.00370  Biso   1.000  O
  O47      1.0000 0.13090  0.04770  0.49630  Biso   1.000  O
  O48      1.0000 0.36910  0.95230  0.99630  Biso   1.000  O
  C93      1.0000 0.57660  0.52710  0.85520  Biso   1.000  C
  C94      1.0000 0.92340  0.47290  0.35520  Biso   1.000  C
  C95      1.0000 0.07660  0.97290  0.14480  Biso   1.000  C
  C96      1.0000 0.42340  0.02710  0.64480  Biso   1.000  C
  H57      1.0000 0.52220  0.50110  0.87130  Biso   1.000  H
  H58      1.0000 0.97780  0.49890  0.37130  Biso   1.000  H
  H59      1.0000 0.02220  0.99890  0.12870  Biso   1.000  H
  H60      1.0000 0.47780  0.00110  0.62870  Biso   1.000  H
  C97      1.0000 0.79190  0.32340  0.89370  Biso   1.000  C
  C98      1.0000 0.70810  0.67660  0.39370  Biso   1.000  C
  C99      1.0000 0.29190  0.17660  0.10630  Biso   1.000  C
  C100     1.0000 0.20810  0.82340  0.60630  Biso   1.000  C
  O49      1.0000 0.20970  0.43040  0.94070  Biso   1.000  O
  O50      1.0000 0.29030  0.56960  0.44070  Biso   1.000  O
  O51      1.0000 0.70970  0.06960  0.05930  Biso   1.000  O
  O52      1.0000 0.79030  0.93040  0.55930  Biso   1.000  O
  C101     1.0000 0.30350  0.60240  0.91760  Biso   1.000  C
  C102     1.0000 0.19650  0.39760  0.41760  Biso   1.000  C
  C103     1.0000 0.80350  0.89760  0.08240  Biso   1.000  C
  C104     1.0000 0.69650  0.10240  0.58240  Biso   1.000  C
  O53      1.0000 0.36960  0.51470  0.54660  Biso   1.000  O
  O54      1.0000 0.13040  0.48530  0.04660  Biso   1.000  O
  O55      1.0000 0.86960  0.98530  0.45340  Biso   1.000  O
  O56      1.0000 0.63040  0.01470  0.95340  Biso   1.000  O
  C105     1.0000 0.97260  0.39900  0.11440  Biso   1.000  C
  C106     1.0000 0.52740  0.60100  0.61440  Biso   1.000  C
  C107     1.0000 0.47260  0.10100  0.88560  Biso   1.000  C
  C108     1.0000 0.02740  0.89900  0.38560  Biso   1.000  C
  H61      1.0000 0.03540  0.41500  0.09450  Biso   1.000  H
  H62      1.0000 0.46460  0.58500  0.59450  Biso   1.000  H
  H63      1.0000 0.53540  0.08500  0.90550  Biso   1.000  H
  H64      1.0000 0.96460  0.91500  0.40550  Biso   1.000  H
  C109     1.0000 0.64700  0.27020  0.84290  Biso   1.000  C
  C110     1.0000 0.85300  0.72980  0.34290  Biso   1.000  C
  C111     1.0000 0.14700  0.22980  0.15710  Biso   1.000  C
  C112     1.0000 0.35300  0.77020  0.65710  Biso   1.000  C
  H65      1.0000 0.55680  0.26000  0.83300  Biso   1.000  H
  H66      1.0000 0.94320  0.74000  0.33300  Biso   1.000  H
  H67      1.0000 0.05680  0.24000  0.16700  Biso   1.000  H
  H68      1.0000 0.44320  0.76000  0.66700  Biso   1.000  H
  N25      1.0000 0.12460  0.39400  0.78360  Biso   1.000  N
  N26      1.0000 0.37540  0.60600  0.28360  Biso   1.000  N
  N27      1.0000 0.62460  0.10600  0.21640  Biso   1.000  N
  N28      1.0000 0.87540  0.89400  0.71640  Biso   1.000  N
  C113     1.0000 0.51850  0.55630  0.82120  Biso   1.000  C
  C114     1.0000 0.98150  0.44370  0.32120  Biso   1.000  C
  C115     1.0000 0.01850  0.94370  0.17880  Biso   1.000  C
  C116     1.0000 0.48150  0.05630  0.67880  Biso   1.000  C
  H69      1.0000 0.42190  0.55090  0.81570  Biso   1.000  H
  H70      1.0000 0.07810  0.44910  0.31570  Biso   1.000  H
  H71      1.0000 0.92190  0.94910  0.18430  Biso   1.000  H
  H72      1.0000 0.57810  0.05090  0.68430  Biso   1.000  H
  C117     1.0000 0.27490  0.36140  0.84050  Biso   1.000  C
  C118     1.0000 0.22510  0.63860  0.34050  Biso   1.000  C
  C119     1.0000 0.77490  0.13860  0.15950  Biso   1.000  C
  C120     1.0000 0.72510  0.86140  0.65950  Biso   1.000  C
  H73      1.0000 0.33940  0.33370  0.85030  Biso   1.000  H
  H74      1.0000 0.16060  0.66630  0.35030  Biso   1.000  H
  H75      1.0000 0.83940  0.16630  0.14970  Biso   1.000  H
  H76      1.0000 0.66060  0.83370  0.64970  Biso   1.000  H
  C121     1.0000 0.18350  0.65890  0.86420  Biso   1.000  C
  C122     1.0000 0.31650  0.34110  0.36420  Biso   1.000  C
  C123     1.0000 0.68350  0.84110  0.13580  Biso   1.000  C
  C124     1.0000 0.81650  0.15890  0.63580  Biso   1.000  C
  H77      1.0000 0.10060  0.66650  0.84880  Biso   1.000  H
  H78      1.0000 0.39940  0.33350  0.34880  Biso   1.000  H
  H79      1.0000 0.60060  0.83350  0.15120  Biso   1.000  H
  H80      1.0000 0.89940  0.16650  0.65120  Biso   1.000  H
  C125     1.0000 0.20630  0.40310  0.64540  Biso   1.000  C
  C126     1.0000 0.29370  0.59690  0.14540  Biso   1.000  C
  C127     1.0000 0.70630  0.09690  0.35460  Biso   1.000  C
  C128     1.0000 0.79370  0.90310  0.85460  Biso   1.000  C
  H81      1.0000 0.24490  0.36690  0.65190  Biso   1.000  H
  H82      1.0000 0.25510  0.63310  0.15190  Biso   1.000  H
  H83      1.0000 0.74490  0.13310  0.34810  Biso   1.000  H
  H84      1.0000 0.75510  0.86690  0.84810  Biso   1.000  H
  O57      1.0000 0.86670  0.42190  0.03190  Biso   1.000  O
  O58      1.0000 0.63330  0.57810  0.53190  Biso   1.000  O
  O59      1.0000 0.36670  0.07810  0.96810  Biso   1.000  O
  O60      1.0000 0.13330  0.92190  0.46810  Biso   1.000  O
  N29      1.0000 0.11220  0.42580  0.67270  Biso   1.000  N
  N30      1.0000 0.38780  0.57420  0.17270  Biso   1.000  N
  N31      1.0000 0.61220  0.07420  0.32730  Biso   1.000  N
  N32      1.0000 0.88780  0.92580  0.82730  Biso   1.000  N
  C129     1.0000 0.06400  0.47720  0.66230  Biso   1.000  C
  C130     1.0000 0.43600  0.52280  0.16230  Biso   1.000  C
  C131     1.0000 0.56400  0.02280  0.33770  Biso   1.000  C
  C132     1.0000 0.93600  0.97720  0.83770  Biso   1.000  C
  H85      1.0000 0.99910  0.49400  0.68110  Biso   1.000  H
  H86      1.0000 0.50090  0.50600  0.18110  Biso   1.000  H
  H87      1.0000 0.49910  0.00600  0.31890  Biso   1.000  H
  H88      1.0000 0.00090  0.99400  0.81890  Biso   1.000  H
  C133     1.0000 0.21710  0.35560  0.80090  Biso   1.000  C
  C134     1.0000 0.28290  0.64440  0.30090  Biso   1.000  C
  C135     1.0000 0.71710  0.14440  0.19910  Biso   1.000  C
  C136     1.0000 0.78290  0.85560  0.69910  Biso   1.000  C
  H89      1.0000 0.24260  0.32330  0.78460  Biso   1.000  H
  H90      1.0000 0.25740  0.67670  0.28460  Biso   1.000  H
  H91      1.0000 0.74260  0.17670  0.21540  Biso   1.000  H
  H92      1.0000 0.75740  0.82330  0.71540  Biso   1.000  H
  N33      1.0000 0.60980  0.44810  0.72310  Biso   1.000  N
  N34      1.0000 0.89020  0.55190  0.22310  Biso   1.000  N
  N35      1.0000 0.10980  0.05190  0.27690  Biso   1.000  N
  N36      1.0000 0.39020  0.94810  0.77690  Biso   1.000  N
  C137     1.0000 0.42480  0.63560  0.90840  Biso   1.000  C
  C138     1.0000 0.07520  0.36440  0.40840  Biso   1.000  C
  C139     1.0000 0.92480  0.86440  0.09160  Biso   1.000  C
  C140     1.0000 0.57520  0.13560  0.59160  Biso   1.000  C
  H93      1.0000 0.51080  0.62800  0.92220  Biso   1.000  H
  H94      1.0000 0.98920  0.37200  0.42220  Biso   1.000  H
  H95      1.0000 0.01080  0.87200  0.07780  Biso   1.000  H
  H96      1.0000 0.48920  0.12800  0.57780  Biso   1.000  H
  C141     1.0000 0.84000  0.35550  0.62310  Biso   1.000  C
  C142     1.0000 0.66000  0.64450  0.12310  Biso   1.000  C
  C143     1.0000 0.34000  0.14450  0.37690  Biso   1.000  C
  C144     1.0000 0.16000  0.85550  0.87690  Biso   1.000  C
  H97      1.0000 0.92050  0.34900  0.64000  Biso   1.000  H
  H98      1.0000 0.57950  0.65100  0.14000  Biso   1.000  H
  H99      1.0000 0.42050  0.15100  0.36000  Biso   1.000  H
  H100     1.0000 0.07950  0.84900  0.86000  Biso   1.000  H
  C145     1.0000 0.78740  0.50870  0.90540  Biso   1.000  C
  C146     1.0000 0.71260  0.49130  0.40540  Biso   1.000  C
  C147     1.0000 0.28740  0.99130  0.09460  Biso   1.000  C
  C148     1.0000 0.21260  0.00870  0.59460  Biso   1.000  C
  C149     1.0000 0.85200  0.39290  0.58820  Biso   1.000  C
  C150     1.0000 0.64800  0.60710  0.08820  Biso   1.000  C
  C151     1.0000 0.35200  0.10710  0.41180  Biso   1.000  C
  C152     1.0000 0.14800  0.89290  0.91180  Biso   1.000  C
  H101     1.0000 0.93960  0.40960  0.58150  Biso   1.000  H
  H102     1.0000 0.56040  0.59040  0.08150  Biso   1.000  H
  H103     1.0000 0.43960  0.09040  0.41850  Biso   1.000  H
  H104     1.0000 0.06040  0.90960  0.91850  Biso   1.000  H
  C153     1.0000 0.60370  0.33820  0.60800  Biso   1.000  C
  C154     1.0000 0.89630  0.66180  0.10800  Biso   1.000  C
  C155     1.0000 0.10370  0.16180  0.39200  Biso   1.000  C
  C156     1.0000 0.39630  0.83820  0.89200  Biso   1.000  C
  H105     1.0000 0.51790  0.32010  0.61480  Biso   1.000  H
  H106     1.0000 0.98210  0.67990  0.11480  Biso   1.000  H
  H107     1.0000 0.01790  0.17990  0.38520  Biso   1.000  H
  H108     1.0000 0.48210  0.82010  0.88520  Biso   1.000  H
  C157     1.0000 0.74580  0.36400  0.13510  Biso   1.000  C
  C158     1.0000 0.75420  0.63600  0.63510  Biso   1.000  C
  C159     1.0000 0.24580  0.13600  0.86490  Biso   1.000  C
  C160     1.0000 0.25420  0.86400  0.36490  Biso   1.000  C
  H109     1.0000 0.65090  0.35560  0.12910  Biso   1.000  H
  H110     1.0000 0.84910  0.64440  0.62910  Biso   1.000  H
  H111     1.0000 0.15090  0.14440  0.87090  Biso   1.000  H
  H112     1.0000 0.34910  0.85560  0.37090  Biso   1.000  H
  C161     1.0000 0.83130  0.38870  0.10340  Biso   1.000  C
  C162     1.0000 0.66870  0.61130  0.60340  Biso   1.000  C
  C163     1.0000 0.33130  0.11130  0.89660  Biso   1.000  C
  C164     1.0000 0.16870  0.88870  0.39660  Biso   1.000  C
  O61      1.0000 0.84360  0.43820  0.73050  Biso   1.000  O
  O62      1.0000 0.65640  0.56180  0.23050  Biso   1.000  O
  O63      1.0000 0.34360  0.06180  0.26950  Biso   1.000  O
  O64      1.0000 0.15640  0.93820  0.76950  Biso   1.000  O
  C165     1.0000 0.31140  0.32660  0.02000  Biso   1.000  C
  C166     1.0000 0.18860  0.67340  0.52000  Biso   1.000  C
  C167     1.0000 0.81140  0.17340  0.98000  Biso   1.000  C
  C168     1.0000 0.68860  0.82660  0.48000  Biso   1.000  C
  C169     1.0000 0.69600  0.39580  0.78600  Biso   1.000  C
  C170     1.0000 0.80400  0.60420  0.28600  Biso   1.000  C
  C171     1.0000 0.19600  0.10420  0.21400  Biso   1.000  C
  C172     1.0000 0.30400  0.89580  0.71400  Biso   1.000  C
  H113     1.0000 0.62900  0.41730  0.80310  Biso   1.000  H
  H114     1.0000 0.87100  0.58270  0.30310  Biso   1.000  H
  H115     1.0000 0.12900  0.08270  0.19690  Biso   1.000  H
  H116     1.0000 0.37100  0.91730  0.69690  Biso   1.000  H
  H117     1.0000 0.78430  0.39200  0.80140  Biso   1.000  H
  H118     1.0000 0.71570  0.60800  0.30140  Biso   1.000  H
  H119     1.0000 0.28430  0.10800  0.19860  Biso   1.000  H
  H120     1.0000 0.21570  0.89200  0.69860  Biso   1.000  H
  H121     1.0000 0.65830  0.35790  0.78000  Biso   1.000  H
  H122     1.0000 0.84170  0.64210  0.28000  Biso   1.000  H
  H123     1.0000 0.15830  0.14210  0.22000  Biso   1.000  H
  H124     1.0000 0.34170  0.85790  0.72000  Biso   1.000  H
  C173     1.0000 0.08010  0.28050  0.02620  Biso   1.000  C
  C174     1.0000 0.41990  0.71950  0.52620  Biso   1.000  C
  C175     1.0000 0.58010  0.21950  0.97380  Biso   1.000  C
  C176     1.0000 0.91990  0.78050  0.47380  Biso   1.000  C
  H125     1.0000 0.99700  0.28980  0.00960  Biso   1.000  H
  H126     1.0000 0.50300  0.71020  0.50960  Biso   1.000  H
  H127     1.0000 0.49700  0.21020  0.99040  Biso   1.000  H
  H128     1.0000 0.00300  0.78980  0.49040  Biso   1.000  H
  H129     1.0000 0.07770  0.30190  0.05270  Biso   1.000  H
  H130     1.0000 0.42230  0.69810  0.55270  Biso   1.000  H
  H131     1.0000 0.57770  0.19810  0.94730  Biso   1.000  H
  H132     1.0000 0.92230  0.80190  0.44730  Biso   1.000  H
  H133     1.0000 0.08150  0.23960  0.03230  Biso   1.000  H
  H134     1.0000 0.41850  0.76040  0.53230  Biso   1.000  H
  H135     1.0000 0.58150  0.26040  0.96770  Biso   1.000  H
  H136     1.0000 0.91850  0.73960  0.46770  Biso   1.000  H
  C177     1.0000 0.25010  0.43020  0.60800  Biso   1.000  C
  C178     1.0000 0.24990  0.56980  0.10800  Biso   1.000  C
  C179     1.0000 0.75010  0.06980  0.39200  Biso   1.000  C
  C180     1.0000 0.74990  0.93020  0.89200  Biso   1.000  C
  H137     1.0000 0.31570  0.41180  0.59020  Biso   1.000  H
  H138     1.0000 0.18430  0.58820  0.09020  Biso   1.000  H
  H139     1.0000 0.81570  0.08820  0.40980  Biso   1.000  H
  H140     1.0000 0.68430  0.91180  0.90980  Biso   1.000  H
  C181     1.0000 0.79920  0.35160  0.17520  Biso   1.000  C
  C182     1.0000 0.70080  0.64840  0.67520  Biso   1.000  C
  C183     1.0000 0.29920  0.14840  0.82480  Biso   1.000  C
  C184     1.0000 0.20080  0.85160  0.32480  Biso   1.000  C
  H141     1.0000 0.74010  0.33370  0.19520  Biso   1.000  H
  H142     1.0000 0.75990  0.66630  0.69520  Biso   1.000  H
  H143     1.0000 0.24010  0.16630  0.80480  Biso   1.000  H
  H144     1.0000 0.25990  0.83370  0.30480  Biso   1.000  H
  C185     1.0000 0.46000  0.44100  0.73730  Biso   1.000  C
  C186     1.0000 0.04000  0.55900  0.23730  Biso   1.000  C
  C187     1.0000 0.96000  0.05900  0.26270  Biso   1.000  C
  C188     1.0000 0.54000  0.94100  0.76270  Biso   1.000  C
  H145     1.0000 0.45460  0.40980  0.75780  Biso   1.000  H
  H146     1.0000 0.04540  0.59020  0.25780  Biso   1.000  H
  H147     1.0000 0.95460  0.09020  0.24220  Biso   1.000  H
  H148     1.0000 0.54540  0.90980  0.74220  Biso   1.000  H
  H149     1.0000 0.40120  0.43210  0.71300  Biso   1.000  H
  H150     1.0000 0.09880  0.56790  0.21300  Biso   1.000  H
  H151     1.0000 0.90120  0.06790  0.28700  Biso   1.000  H
  H152     1.0000 0.59880  0.93210  0.78700  Biso   1.000  H
  H153     1.0000 0.42780  0.47640  0.75040  Biso   1.000  H
  H154     1.0000 0.07220  0.52360  0.25040  Biso   1.000  H
  H155     1.0000 0.92780  0.02360  0.24960  Biso   1.000  H
  H156     1.0000 0.57220  0.97640  0.74960  Biso   1.000  H
  C189     1.0000 0.60720  0.37460  0.57120  Biso   1.000  C
  C190     1.0000 0.89280  0.62540  0.07120  Biso   1.000  C
  C191     1.0000 0.10720  0.12540  0.42880  Biso   1.000  C
  C192     1.0000 0.39280  0.87460  0.92880  Biso   1.000  C
  H157     1.0000 0.52890  0.37790  0.55300  Biso   1.000  H
  H158     1.0000 0.97110  0.62210  0.05300  Biso   1.000  H
  H159     1.0000 0.02890  0.12210  0.44700  Biso   1.000  H
  H160     1.0000 0.47110  0.87790  0.94700  Biso   1.000  H
  C193     1.0000 0.31600  0.33550  0.06820  Biso   1.000  C
  C194     1.0000 0.18400  0.66450  0.56820  Biso   1.000  C
  C195     1.0000 0.81600  0.16450  0.93180  Biso   1.000  C
  C196     1.0000 0.68400  0.83550  0.43180  Biso   1.000  C
  H161     1.0000 0.23780  0.35980  0.07680  Biso   1.000  H
  H162     1.0000 0.26220  0.64020  0.57680  Biso   1.000  H
  H163     1.0000 0.73780  0.14020  0.92320  Biso   1.000  H
  H164     1.0000 0.76220  0.85980  0.42320  Biso   1.000  H
  H165     1.0000 0.40430  0.35370  0.07600  Biso   1.000  H
  H166     1.0000 0.09570  0.64630  0.57600  Biso   1.000  H
  H167     1.0000 0.90430  0.14630  0.92400  Biso   1.000  H
  H168     1.0000 0.59570  0.85370  0.42400  Biso   1.000  H
  H169     1.0000 0.30840  0.29850  0.08240  Biso   1.000  H
  H170     1.0000 0.19160  0.70150  0.58240  Biso   1.000  H
  H171     1.0000 0.80840  0.20150  0.91760  Biso   1.000  H
  H172     1.0000 0.69160  0.79850  0.41760  Biso   1.000  H
  C197     1.0000 0.62900  0.47670  0.68160  Biso   1.000  C
  C198     1.0000 0.87100  0.52330  0.18160  Biso   1.000  C
  C199     1.0000 0.12900  0.02330  0.31840  Biso   1.000  C
  C200     1.0000 0.37100  0.97670  0.81840  Biso   1.000  C
  H173     1.0000 0.68870  0.51030  0.68520  Biso   1.000  H
  H174     1.0000 0.81130  0.48970  0.18520  Biso   1.000  H
  H175     1.0000 0.18870  0.98970  0.31480  Biso   1.000  H
  H176     1.0000 0.31130  0.01030  0.81480  Biso   1.000  H
  H177     1.0000 0.53800  0.48840  0.67060  Biso   1.000  H
  H178     1.0000 0.96200  0.51160  0.17060  Biso   1.000  H
  H179     1.0000 0.03800  0.01160  0.32940  Biso   1.000  H
  H180     1.0000 0.46200  0.98840  0.82940  Biso   1.000  H
  H181     1.0000 0.67330  0.45010  0.66190  Biso   1.000  H
  H182     1.0000 0.82670  0.54990  0.16190  Biso   1.000  H
  H183     1.0000 0.17330  0.04990  0.33810  Biso   1.000  H
  H184     1.0000 0.32670  0.95010  0.83810  Biso   1.000  H
  C201     1.0000 0.12000  0.32460  0.51390  Biso   1.000  C
  C202     1.0000 0.38000  0.67540  0.01390  Biso   1.000  C
  C203     1.0000 0.62000  0.17540  0.48610  Biso   1.000  C
  C204     1.0000 0.88000  0.82460  0.98610  Biso   1.000  C
  H185     1.0000 0.03670  0.34620  0.52250  Biso   1.000  H
  H186     1.0000 0.46330  0.65380  0.02250  Biso   1.000  H
  H187     1.0000 0.53670  0.15380  0.47750  Biso   1.000  H
  H188     1.0000 0.96330  0.84620  0.97750  Biso   1.000  H
  H189     1.0000 0.11830  0.31910  0.48340  Biso   1.000  H
  H190     1.0000 0.38170  0.68090  0.98340  Biso   1.000  H
  H191     1.0000 0.61830  0.18090  0.51660  Biso   1.000  H
  H192     1.0000 0.88170  0.81910  0.01660  Biso   1.000  H
  H193     1.0000 0.20390  0.34580  0.52190  Biso   1.000  H
  H194     1.0000 0.29610  0.65420  0.02190  Biso   1.000  H
  H195     1.0000 0.70390  0.15420  0.47810  Biso   1.000  H
  H196     1.0000 0.79610  0.84580  0.97810  Biso   1.000  H
  O65      1.0000 0.31100  0.28720  0.57320  Biso   1.000  O
  O66      1.0000 0.18900  0.71280  0.07320  Biso   1.000  O
  O67      1.0000 0.81100  0.21280  0.42680  Biso   1.000  O
  O68      1.0000 0.68900  0.78720  0.92680  Biso   1.000  O
  C205     1.0000 0.22200  0.25090  0.57020  Biso   1.000  C
  C206     1.0000 0.27800  0.74910  0.07020  Biso   1.000  C
  C207     1.0000 0.72200  0.24910  0.42980  Biso   1.000  C
  C208     1.0000 0.77800  0.75090  0.92980  Biso   1.000  C
  C209     1.0000 0.98400  0.23260  0.52820  Biso   1.000  C
  C210     1.0000 0.51600  0.76740  0.02820  Biso   1.000  C
  C211     1.0000 0.48400  0.26740  0.47180  Biso   1.000  C
  C212     1.0000 0.01600  0.73260  0.97180  Biso   1.000  C
  H197     1.0000 0.90900  0.24860  0.54540  Biso   1.000  H
  H198     1.0000 0.59100  0.75140  0.04540  Biso   1.000  H
  H199     1.0000 0.40900  0.25140  0.45460  Biso   1.000  H
  H200     1.0000 0.09100  0.74860  0.95460  Biso   1.000  H
  H201     1.0000 0.99920  0.19260  0.53590  Biso   1.000  H
  H202     1.0000 0.50080  0.80740  0.03590  Biso   1.000  H
  H203     1.0000 0.49920  0.30740  0.46410  Biso   1.000  H
  H204     1.0000 0.00080  0.69260  0.96410  Biso   1.000  H
  H205     1.0000 0.95880  0.23500  0.49840  Biso   1.000  H
  H206     1.0000 0.54120  0.76500  0.99840  Biso   1.000  H
  H207     1.0000 0.45880  0.26500  0.50160  Biso   1.000  H
  H208     1.0000 0.04120  0.73500  0.00160  Biso   1.000  H
  N37      1.0000 0.11900  0.26630  0.53590  Biso   1.000  N
  N38      1.0000 0.38100  0.73370  0.03590  Biso   1.000  N
  N39      1.0000 0.61900  0.23370  0.46410  Biso   1.000  N
  N40      1.0000 0.88100  0.76630  0.96410  Biso   1.000  N
  C213     1.0000 0.18600  0.19400  0.59120  Biso   1.000  C
  C214     1.0000 0.31400  0.80600  0.09120  Biso   1.000  C
  C215     1.0000 0.68600  0.30600  0.40880  Biso   1.000  C
  C216     1.0000 0.81400  0.69400  0.90880  Biso   1.000  C
  H209     1.0000 0.17980  0.16400  0.56980  Biso   1.000  H
  H210     1.0000 0.32020  0.83600  0.06980  Biso   1.000  H
  H211     1.0000 0.67980  0.33600  0.43020  Biso   1.000  H
  H212     1.0000 0.82020  0.66400  0.93020  Biso   1.000  H
  H213     1.0000 0.09590  0.19750  0.60570  Biso   1.000  H
  H214     1.0000 0.40410  0.80250  0.10570  Biso   1.000  H
  H215     1.0000 0.59590  0.30250  0.39430  Biso   1.000  H
  H216     1.0000 0.90410  0.69750  0.89430  Biso   1.000  H
  H217     1.0000 0.25870  0.18430  0.61160  Biso   1.000  H
  H218     1.0000 0.24130  0.81570  0.11160  Biso   1.000  H
  H219     1.0000 0.75870  0.31570  0.38840  Biso   1.000  H
  H220     1.0000 0.74130  0.68430  0.88840  Biso   1.000  H
