data_image0
_cell_length_a       9.2909
_cell_length_b       22.8967
_cell_length_c       30.9233
_cell_angle_alpha    90
_cell_angle_beta     90
_cell_angle_gamma    90

_symmetry_space_group_name_H-M    "P 1"
_symmetry_int_tables_number       1

loop_
  _symmetry_equiv_pos_as_xyz
  'x, y, z'

loop_
  _atom_site_label
  _atom_site_occupancy
  _atom_site_fract_x
  _atom_site_fract_y
  _atom_site_fract_z
  _atom_site_thermal_displace_type
  _atom_site_B_iso_or_equiv
  _atom_site_type_symbol
  Eu1      1.0000 0.45992  0.55855  0.48441  Biso   1.000  Eu
  Eu2      1.0000 0.04008  0.44145  0.98441  Biso   1.000  Eu
  Eu3      1.0000 0.95992  0.94145  0.51559  Biso   1.000  Eu
  Eu4      1.0000 0.54008  0.05855  0.01559  Biso   1.000  Eu
  Eu5      1.0000 0.99107  0.53065  0.47789  Biso   1.000  Eu
  Eu6      1.0000 0.50893  0.46935  0.97789  Biso   1.000  Eu
  Eu7      1.0000 0.49107  0.96935  0.52211  Biso   1.000  Eu
  Eu8      1.0000 0.00893  0.03065  0.02211  Biso   1.000  Eu
  I1       1.0000 0.79011  0.39397  0.24636  Biso   1.000  I
  I2       1.0000 0.70989  0.60603  0.74636  Biso   1.000  I
  I3       1.0000 0.29011  0.10603  0.75364  Biso   1.000  I
  I4       1.0000 0.20989  0.89397  0.25364  Biso   1.000  I
  I5       1.0000 0.48616  0.24466  0.27165  Biso   1.000  I
  I6       1.0000 0.01384  0.75534  0.77165  Biso   1.000  I
  I7       1.0000 0.98616  0.25534  0.72835  Biso   1.000  I
  I8       1.0000 0.51384  0.74466  0.22835  Biso   1.000  I
  I9       1.0000 0.97600  0.22913  0.28330  Biso   1.000  I
  I10      1.0000 0.52400  0.77087  0.78330  Biso   1.000  I
  I11      1.0000 0.47600  0.27087  0.71670  Biso   1.000  I
  I12      1.0000 0.02400  0.72913  0.21670  Biso   1.000  I
  Cu1      1.0000 0.04462  0.11714  0.27579  Biso   1.000  Cu
  Cu2      1.0000 0.45538  0.88286  0.77579  Biso   1.000  Cu
  Cu3      1.0000 0.54462  0.38286  0.72421  Biso   1.000  Cu
  Cu4      1.0000 0.95538  0.61714  0.22421  Biso   1.000  Cu
  Cu5      1.0000 0.50950  0.35931  0.24872  Biso   1.000  Cu
  Cu6      1.0000 0.99050  0.64069  0.74872  Biso   1.000  Cu
  Cu7      1.0000 0.00950  0.14069  0.75128  Biso   1.000  Cu
  Cu8      1.0000 0.49050  0.85931  0.25128  Biso   1.000  Cu
  Cu9      1.0000 0.71770  0.23425  0.32007  Biso   1.000  Cu
  Cu10     1.0000 0.78230  0.76575  0.82007  Biso   1.000  Cu
  Cu11     1.0000 0.21770  0.26575  0.67993  Biso   1.000  Cu
  Cu12     1.0000 0.28230  0.73425  0.17993  Biso   1.000  Cu
  Cu13     1.0000 0.74429  0.28300  0.24012  Biso   1.000  Cu
  Cu14     1.0000 0.75571  0.71700  0.74012  Biso   1.000  Cu
  Cu15     1.0000 0.24429  0.21700  0.75988  Biso   1.000  Cu
  Cu16     1.0000 0.25571  0.78300  0.25988  Biso   1.000  Cu
  C1       1.0000 0.20020  0.42790  0.33940  Biso   1.000  C
  C2       1.0000 0.29980  0.57210  0.83940  Biso   1.000  C
  C3       1.0000 0.70020  0.07210  0.66060  Biso   1.000  C
  C4       1.0000 0.79980  0.92790  0.16060  Biso   1.000  C
  H1       1.0000 0.10230  0.42250  0.34420  Biso   1.000  H
  H2       1.0000 0.39770  0.57750  0.84420  Biso   1.000  H
  H3       1.0000 0.60230  0.07750  0.65580  Biso   1.000  H
  H4       1.0000 0.89770  0.92250  0.15580  Biso   1.000  H
  C5       1.0000 0.85820  0.55200  0.34890  Biso   1.000  C
  C6       1.0000 0.64180  0.44800  0.84890  Biso   1.000  C
  C7       1.0000 0.35820  0.94800  0.65110  Biso   1.000  C
  C8       1.0000 0.14180  0.05200  0.15110  Biso   1.000  C
  H5       1.0000 0.88980  0.52040  0.36520  Biso   1.000  H
  H6       1.0000 0.61020  0.47960  0.86520  Biso   1.000  H
  H7       1.0000 0.38980  0.97960  0.63480  Biso   1.000  H
  H8       1.0000 0.11020  0.02040  0.13480  Biso   1.000  H
  O1       1.0000 0.57850  0.65210  0.49681  Biso   1.000  O
  O2       1.0000 0.92150  0.34790  0.99681  Biso   1.000  O
  O3       1.0000 0.07850  0.84790  0.50319  Biso   1.000  O
  O4       1.0000 0.42150  0.15210  0.00319  Biso   1.000  O
  C9       1.0000 0.90940  0.55920  0.30710  Biso   1.000  C
  C10      1.0000 0.59060  0.44080  0.80710  Biso   1.000  C
  C11      1.0000 0.40940  0.94080  0.69290  Biso   1.000  C
  C12      1.0000 0.09060  0.05920  0.19290  Biso   1.000  C
  H9       1.0000 0.97040  0.53120  0.29540  Biso   1.000  H
  H10      1.0000 0.52960  0.46880  0.79540  Biso   1.000  H
  H11      1.0000 0.47040  0.96880  0.70460  Biso   1.000  H
  H12      1.0000 0.02960  0.03120  0.20460  Biso   1.000  H
  O5       1.0000 0.82210  0.45720  0.46760  Biso   1.000  O
  O6       1.0000 0.67790  0.54280  0.96760  Biso   1.000  O
  O7       1.0000 0.32210  0.04280  0.53240  Biso   1.000  O
  O8       1.0000 0.17790  0.95720  0.03240  Biso   1.000  O
  O9       1.0000 0.86480  0.51880  0.54499  Biso   1.000  O
  O10      1.0000 0.63520  0.48120  0.04499  Biso   1.000  O
  O11      1.0000 0.36480  0.98120  0.45501  Biso   1.000  O
  O12      1.0000 0.13520  0.01880  0.95501  Biso   1.000  O
  N1       1.0000 0.87220  0.60620  0.28320  Biso   1.000  N
  N2       1.0000 0.62780  0.39380  0.78320  Biso   1.000  N
  N3       1.0000 0.37220  0.89380  0.71680  Biso   1.000  N
  N4       1.0000 0.12780  0.10620  0.21680  Biso   1.000  N
  C13      1.0000 0.09010  0.69310  0.37060  Biso   1.000  C
  C14      1.0000 0.40990  0.30690  0.87060  Biso   1.000  C
  C15      1.0000 0.59010  0.80690  0.62940  Biso   1.000  C
  C16      1.0000 0.90990  0.19310  0.12940  Biso   1.000  C
  H13      1.0000 0.99860  0.68110  0.37900  Biso   1.000  H
  H14      1.0000 0.50140  0.31890  0.87900  Biso   1.000  H
  H15      1.0000 0.49860  0.81890  0.62100  Biso   1.000  H
  H16      1.0000 0.00140  0.18110  0.12100  Biso   1.000  H
  C17      1.0000 0.23240  0.40590  0.56220  Biso   1.000  C
  C18      1.0000 0.26760  0.59410  0.06220  Biso   1.000  C
  C19      1.0000 0.73240  0.09410  0.43780  Biso   1.000  C
  C20      1.0000 0.76760  0.90590  0.93780  Biso   1.000  C
  O13      1.0000 0.35390  0.47710  0.52200  Biso   1.000  O
  O14      1.0000 0.14610  0.52290  0.02200  Biso   1.000  O
  O15      1.0000 0.85390  0.02290  0.47800  Biso   1.000  O
  O16      1.0000 0.64610  0.97710  0.97800  Biso   1.000  O
  C21      1.0000 0.72200  0.06940  0.25670  Biso   1.000  C
  C22      1.0000 0.77800  0.93060  0.75670  Biso   1.000  C
  C23      1.0000 0.22200  0.43060  0.74330  Biso   1.000  C
  C24      1.0000 0.27800  0.56940  0.24330  Biso   1.000  C
  C25      1.0000 0.76210  0.59030  0.36630  Biso   1.000  C
  C26      1.0000 0.73790  0.40970  0.86630  Biso   1.000  C
  C27      1.0000 0.26210  0.90970  0.63370  Biso   1.000  C
  C28      1.0000 0.23790  0.09030  0.13370  Biso   1.000  C
  O17      1.0000 0.58360  0.47150  0.45870  Biso   1.000  O
  O18      1.0000 0.91640  0.52850  0.95870  Biso   1.000  O
  O19      1.0000 0.08360  0.02850  0.54130  Biso   1.000  O
  O20      1.0000 0.41640  0.97150  0.04130  Biso   1.000  O
  O21      1.0000 0.84680  0.06220  0.26960  Biso   1.000  O
  O22      1.0000 0.65320  0.93780  0.76960  Biso   1.000  O
  O23      1.0000 0.34680  0.43780  0.73040  Biso   1.000  O
  O24      1.0000 0.15320  0.56220  0.23040  Biso   1.000  O
  N5       1.0000 0.70470  0.30830  0.35710  Biso   1.000  N
  N6       1.0000 0.79530  0.69170  0.85710  Biso   1.000  N
  N7       1.0000 0.20470  0.19170  0.64290  Biso   1.000  N
  N8       1.0000 0.29530  0.80830  0.14290  Biso   1.000  N
  N9       1.0000 0.21720  0.32880  0.63290  Biso   1.000  N
  N10      1.0000 0.28280  0.67120  0.13290  Biso   1.000  N
  N11      1.0000 0.71720  0.17120  0.36710  Biso   1.000  N
  N12      1.0000 0.78280  0.82880  0.86710  Biso   1.000  N
  O25      1.0000 0.07620  0.61490  0.44080  Biso   1.000  O
  O26      1.0000 0.42380  0.38510  0.94080  Biso   1.000  O
  O27      1.0000 0.57620  0.88510  0.55920  Biso   1.000  O
  O28      1.0000 0.92380  0.11490  0.05920  Biso   1.000  O
  O29      1.0000 0.12850  0.45450  0.50430  Biso   1.000  O
  O30      1.0000 0.37150  0.54550  0.00430  Biso   1.000  O
  O31      1.0000 0.62850  0.04550  0.49570  Biso   1.000  O
  O32      1.0000 0.87150  0.95450  0.99570  Biso   1.000  O
  O33      1.0000 0.30710  0.63390  0.45751  Biso   1.000  O
  O34      1.0000 0.19290  0.36610  0.95751  Biso   1.000  O
  O35      1.0000 0.80710  0.86610  0.54249  Biso   1.000  O
  O36      1.0000 0.69290  0.13390  0.04249  Biso   1.000  O
  C29      1.0000 0.35290  0.39510  0.58840  Biso   1.000  C
  C30      1.0000 0.14710  0.60490  0.08840  Biso   1.000  C
  C31      1.0000 0.85290  0.10490  0.41160  Biso   1.000  C
  C32      1.0000 0.64710  0.89510  0.91160  Biso   1.000  C
  H17      1.0000 0.44010  0.41360  0.58290  Biso   1.000  H
  H18      1.0000 0.05990  0.58640  0.08290  Biso   1.000  H
  H19      1.0000 0.94010  0.08640  0.41710  Biso   1.000  H
  H20      1.0000 0.55990  0.91360  0.91710  Biso   1.000  H
  N13      1.0000 0.61890  0.42580  0.67220  Biso   1.000  N
  N14      1.0000 0.88110  0.57420  0.17220  Biso   1.000  N
  N15      1.0000 0.11890  0.07420  0.32780  Biso   1.000  N
  N16      1.0000 0.38110  0.92580  0.82780  Biso   1.000  N
  O37      1.0000 0.14710  0.40150  0.05039  Biso   1.000  O
  O38      1.0000 0.35290  0.59850  0.55039  Biso   1.000  O
  O39      1.0000 0.64710  0.09850  0.94961  Biso   1.000  O
  O40      1.0000 0.85290  0.90150  0.44961  Biso   1.000  O
  N17      1.0000 0.40850  0.40690  0.29560  Biso   1.000  N
  N18      1.0000 0.09150  0.59310  0.79560  Biso   1.000  N
  N19      1.0000 0.90850  0.09310  0.70440  Biso   1.000  N
  N20      1.0000 0.59150  0.90690  0.20440  Biso   1.000  N
  C33      1.0000 0.28060  0.46400  0.36650  Biso   1.000  C
  C34      1.0000 0.21940  0.53600  0.86650  Biso   1.000  C
  C35      1.0000 0.78060  0.03600  0.63350  Biso   1.000  C
  C36      1.0000 0.71940  0.96400  0.13350  Biso   1.000  C
  C37      1.0000 0.20910  0.67620  0.39430  Biso   1.000  C
  C38      1.0000 0.29090  0.32380  0.89430  Biso   1.000  C
  C39      1.0000 0.70910  0.82380  0.60570  Biso   1.000  C
  C40      1.0000 0.79090  0.17620  0.10570  Biso   1.000  C
  C41      1.0000 0.73400  0.51790  0.55570  Biso   1.000  C
  C42      1.0000 0.76600  0.48210  0.05570  Biso   1.000  C
  C43      1.0000 0.23400  0.98210  0.44430  Biso   1.000  C
  C44      1.0000 0.26600  0.01790  0.94430  Biso   1.000  C
  O41      1.0000 0.37330  0.42000  0.03086  Biso   1.000  O
  O42      1.0000 0.12670  0.58000  0.53086  Biso   1.000  O
  O43      1.0000 0.87330  0.08000  0.96914  Biso   1.000  O
  O44      1.0000 0.62670  0.92000  0.46914  Biso   1.000  O
  O45      1.0000 0.08000  0.48610  0.41206  Biso   1.000  O
  O46      1.0000 0.42000  0.51390  0.91206  Biso   1.000  O
  O47      1.0000 0.58000  0.01390  0.58794  Biso   1.000  O
  O48      1.0000 0.92000  0.98610  0.08794  Biso   1.000  O
  C45      1.0000 0.69760  0.48540  0.59680  Biso   1.000  C
  C46      1.0000 0.80240  0.51460  0.09680  Biso   1.000  C
  C47      1.0000 0.19760  0.01460  0.40320  Biso   1.000  C
  C48      1.0000 0.30240  0.98540  0.90320  Biso   1.000  C
  C49      1.0000 0.70090  0.44660  0.45030  Biso   1.000  C
  C50      1.0000 0.79910  0.55340  0.95030  Biso   1.000  C
  C51      1.0000 0.20090  0.05340  0.54970  Biso   1.000  C
  C52      1.0000 0.29910  0.94660  0.04970  Biso   1.000  C
  C53      1.0000 0.42450  0.47300  0.35580  Biso   1.000  C
  C54      1.0000 0.07550  0.52700  0.85580  Biso   1.000  C
  C55      1.0000 0.92450  0.02700  0.64420  Biso   1.000  C
  C56      1.0000 0.57550  0.97300  0.14420  Biso   1.000  C
  H21      1.0000 0.48140  0.49840  0.37190  Biso   1.000  H
  H22      1.0000 0.01860  0.50160  0.87190  Biso   1.000  H
  H23      1.0000 0.98140  0.00160  0.62810  Biso   1.000  H
  H24      1.0000 0.51860  0.99840  0.12810  Biso   1.000  H
  C57      1.0000 0.23780  0.44920  0.52640  Biso   1.000  C
  C58      1.0000 0.26220  0.55080  0.02640  Biso   1.000  C
  C59      1.0000 0.73780  0.05080  0.47360  Biso   1.000  C
  C60      1.0000 0.76220  0.94920  0.97360  Biso   1.000  C
  O49      1.0000 0.79340  0.57120  0.44112  Biso   1.000  O
  O50      1.0000 0.70660  0.42880  0.94112  Biso   1.000  O
  O51      1.0000 0.29340  0.92880  0.55888  Biso   1.000  O
  O52      1.0000 0.20660  0.07120  0.05888  Biso   1.000  O
  N21      1.0000 0.23420  0.74590  0.32020  Biso   1.000  N
  N22      1.0000 0.26580  0.25410  0.82020  Biso   1.000  N
  N23      1.0000 0.73420  0.75410  0.67980  Biso   1.000  N
  N24      1.0000 0.76580  0.24590  0.17980  Biso   1.000  N
  O53      1.0000 0.29510  0.51790  0.43203  Biso   1.000  O
  O54      1.0000 0.20490  0.48210  0.93203  Biso   1.000  O
  O55      1.0000 0.79510  0.98210  0.56797  Biso   1.000  O
  O56      1.0000 0.70490  0.01790  0.06797  Biso   1.000  O
  C61      1.0000 0.48080  0.44340  0.32080  Biso   1.000  C
  C62      1.0000 0.01920  0.55660  0.82080  Biso   1.000  C
  C63      1.0000 0.98080  0.05660  0.67920  Biso   1.000  C
  C64      1.0000 0.51920  0.94340  0.17920  Biso   1.000  C
  H25      1.0000 0.57740  0.44960  0.31440  Biso   1.000  H
  H26      1.0000 0.92260  0.55040  0.81440  Biso   1.000  H
  H27      1.0000 0.07740  0.05040  0.68560  Biso   1.000  H
  H28      1.0000 0.42260  0.94960  0.18560  Biso   1.000  H
  C65      1.0000 0.69770  0.39780  0.41800  Biso   1.000  C
  C66      1.0000 0.80230  0.60220  0.91800  Biso   1.000  C
  C67      1.0000 0.19770  0.10220  0.58200  Biso   1.000  C
  C68      1.0000 0.30230  0.89780  0.08200  Biso   1.000  C
  C69      1.0000 0.19440  0.63890  0.43450  Biso   1.000  C
  C70      1.0000 0.30560  0.36110  0.93450  Biso   1.000  C
  C71      1.0000 0.69440  0.86110  0.56550  Biso   1.000  C
  C72      1.0000 0.80560  0.13890  0.06550  Biso   1.000  C
  C73      1.0000 0.27990  0.40460  0.05770  Biso   1.000  C
  C74      1.0000 0.22010  0.59540  0.55770  Biso   1.000  C
  C75      1.0000 0.77990  0.09540  0.94230  Biso   1.000  C
  C76      1.0000 0.72010  0.90460  0.44230  Biso   1.000  C
  C77      1.0000 0.67860  0.67350  0.51930  Biso   1.000  C
  C78      1.0000 0.82140  0.32650  0.01930  Biso   1.000  C
  C79      1.0000 0.17860  0.82650  0.48070  Biso   1.000  C
  C80      1.0000 0.32140  0.17350  0.98070  Biso   1.000  C
  C81      1.0000 0.34370  0.69610  0.38080  Biso   1.000  C
  C82      1.0000 0.15630  0.30390  0.88080  Biso   1.000  C
  C83      1.0000 0.84370  0.80390  0.61920  Biso   1.000  C
  C84      1.0000 0.65630  0.19610  0.11920  Biso   1.000  C
  H29      1.0000 0.42610  0.68690  0.39640  Biso   1.000  H
  H30      1.0000 0.07390  0.31310  0.89640  Biso   1.000  H
  H31      1.0000 0.92610  0.81310  0.60360  Biso   1.000  H
  H32      1.0000 0.57390  0.18690  0.10360  Biso   1.000  H
  C85      1.0000 0.35310  0.72980  0.34360  Biso   1.000  C
  C86      1.0000 0.14690  0.27020  0.84360  Biso   1.000  C
  C87      1.0000 0.85310  0.77020  0.65640  Biso   1.000  C
  C88      1.0000 0.64690  0.22980  0.15640  Biso   1.000  C
  H33      1.0000 0.44330  0.74190  0.33420  Biso   1.000  H
  H34      1.0000 0.05670  0.25810  0.83420  Biso   1.000  H
  H35      1.0000 0.94330  0.75810  0.66580  Biso   1.000  H
  H36      1.0000 0.55670  0.24190  0.16580  Biso   1.000  H
  C89      1.0000 0.81570  0.34220  0.36470  Biso   1.000  C
  C90      1.0000 0.68430  0.65780  0.86470  Biso   1.000  C
  C91      1.0000 0.31570  0.15780  0.63530  Biso   1.000  C
  C92      1.0000 0.18430  0.84220  0.13530  Biso   1.000  C
  H37      1.0000 0.89860  0.33550  0.34860  Biso   1.000  H
  H38      1.0000 0.60140  0.66450  0.84860  Biso   1.000  H
  H39      1.0000 0.39860  0.16450  0.65140  Biso   1.000  H
  H40      1.0000 0.10140  0.83550  0.15140  Biso   1.000  H
  N25      1.0000 0.78430  0.70360  0.50150  Biso   1.000  N
  N26      1.0000 0.71570  0.29640  0.00150  Biso   1.000  N
  N27      1.0000 0.28430  0.79640  0.49850  Biso   1.000  N
  N28      1.0000 0.21570  0.20360  0.99850  Biso   1.000  N
  C93      1.0000 0.10730  0.72780  0.33460  Biso   1.000  C
  C94      1.0000 0.39270  0.27220  0.83460  Biso   1.000  C
  C95      1.0000 0.60730  0.77220  0.66540  Biso   1.000  C
  C96      1.0000 0.89270  0.22780  0.16540  Biso   1.000  C
  H41      1.0000 0.02540  0.73920  0.31950  Biso   1.000  H
  H42      1.0000 0.47460  0.26080  0.81950  Biso   1.000  H
  H43      1.0000 0.52540  0.76080  0.68050  Biso   1.000  H
  H44      1.0000 0.97460  0.23920  0.18050  Biso   1.000  H
  C97      1.0000 0.47420  0.39710  0.11390  Biso   1.000  C
  C98      1.0000 0.02580  0.60290  0.61390  Biso   1.000  C
  C99      1.0000 0.97420  0.10290  0.88610  Biso   1.000  C
  C100     1.0000 0.52580  0.89710  0.38610  Biso   1.000  C
  H45      1.0000 0.53740  0.41300  0.09380  Biso   1.000  H
  H46      1.0000 0.96260  0.58700  0.59380  Biso   1.000  H
  H47      1.0000 0.03740  0.08700  0.90620  Biso   1.000  H
  H48      1.0000 0.46260  0.91300  0.40620  Biso   1.000  H
  N29      1.0000 0.43320  0.36310  0.18620  Biso   1.000  N
  N30      1.0000 0.06680  0.63690  0.68620  Biso   1.000  N
  N31      1.0000 0.93320  0.13690  0.81380  Biso   1.000  N
  N32      1.0000 0.56680  0.86310  0.31380  Biso   1.000  N
  C101     1.0000 0.34010  0.35680  0.62250  Biso   1.000  C
  C102     1.0000 0.15990  0.64320  0.12250  Biso   1.000  C
  C103     1.0000 0.84010  0.14320  0.37750  Biso   1.000  C
  C104     1.0000 0.65990  0.85680  0.87750  Biso   1.000  C
  H49      1.0000 0.42110  0.34970  0.63930  Biso   1.000  H
  H50      1.0000 0.07890  0.65030  0.13930  Biso   1.000  H
  H51      1.0000 0.92110  0.15030  0.36070  Biso   1.000  H
  H52      1.0000 0.57890  0.84970  0.86070  Biso   1.000  H
  C105     1.0000 0.52260  0.38390  0.15480  Biso   1.000  C
  C106     1.0000 0.97740  0.61610  0.65480  Biso   1.000  C
  C107     1.0000 0.02260  0.11610  0.84520  Biso   1.000  C
  C108     1.0000 0.47740  0.88390  0.34520  Biso   1.000  C
  H53      1.0000 0.61940  0.38940  0.16130  Biso   1.000  H
  H54      1.0000 0.88060  0.61060  0.66130  Biso   1.000  H
  H55      1.0000 0.11940  0.11060  0.83870  Biso   1.000  H
  H56      1.0000 0.38060  0.88940  0.33870  Biso   1.000  H
  C109     1.0000 0.77820  0.64420  0.30100  Biso   1.000  C
  C110     1.0000 0.72180  0.35580  0.80100  Biso   1.000  C
  C111     1.0000 0.27820  0.85580  0.69900  Biso   1.000  C
  C112     1.0000 0.22180  0.14420  0.19900  Biso   1.000  C
  H57      1.0000 0.75100  0.67670  0.28490  Biso   1.000  H
  H58      1.0000 0.74900  0.32330  0.78490  Biso   1.000  H
  H59      1.0000 0.25100  0.82330  0.71510  Biso   1.000  H
  H60      1.0000 0.24900  0.17670  0.21510  Biso   1.000  H
  C113     1.0000 0.70900  0.40330  0.64410  Biso   1.000  C
  C114     1.0000 0.79100  0.59670  0.14410  Biso   1.000  C
  C115     1.0000 0.20900  0.09670  0.35590  Biso   1.000  C
  C116     1.0000 0.29100  0.90330  0.85590  Biso   1.000  C
  H61      1.0000 0.74650  0.36630  0.64960  Biso   1.000  H
  H62      1.0000 0.75350  0.63370  0.14960  Biso   1.000  H
  H63      1.0000 0.24650  0.13370  0.35040  Biso   1.000  H
  H64      1.0000 0.25350  0.86630  0.85040  Biso   1.000  H
  C117     1.0000 0.72050  0.63750  0.34160  Biso   1.000  C
  C118     1.0000 0.77950  0.36250  0.84160  Biso   1.000  C
  C119     1.0000 0.22050  0.86250  0.65840  Biso   1.000  C
  C120     1.0000 0.27950  0.13750  0.15840  Biso   1.000  C
  H65      1.0000 0.65430  0.66440  0.35220  Biso   1.000  H
  H66      1.0000 0.84570  0.33560  0.85220  Biso   1.000  H
  H67      1.0000 0.15430  0.83560  0.64780  Biso   1.000  H
  H68      1.0000 0.34570  0.16440  0.14780  Biso   1.000  H
  C121     1.0000 0.58420  0.32070  0.38030  Biso   1.000  C
  C122     1.0000 0.91580  0.67930  0.88030  Biso   1.000  C
  C123     1.0000 0.08420  0.17930  0.61970  Biso   1.000  C
  C124     1.0000 0.41580  0.82070  0.11970  Biso   1.000  C
  H69      1.0000 0.50280  0.29790  0.37590  Biso   1.000  H
  H70      1.0000 0.99720  0.70210  0.87590  Biso   1.000  H
  H71      1.0000 0.00280  0.20210  0.62410  Biso   1.000  H
  H72      1.0000 0.49720  0.79790  0.12410  Biso   1.000  H
  C125     1.0000 0.26790  0.40030  0.30510  Biso   1.000  C
  C126     1.0000 0.23210  0.59970  0.80510  Biso   1.000  C
  C127     1.0000 0.76790  0.09970  0.69490  Biso   1.000  C
  C128     1.0000 0.73210  0.90030  0.19490  Biso   1.000  C
  H73      1.0000 0.21330  0.37570  0.28760  Biso   1.000  H
  H74      1.0000 0.28670  0.62430  0.78760  Biso   1.000  H
  H75      1.0000 0.71330  0.12430  0.71240  Biso   1.000  H
  H76      1.0000 0.78670  0.87570  0.21240  Biso   1.000  H
  C129     1.0000 0.21550  0.49150  0.40620  Biso   1.000  C
  C130     1.0000 0.28450  0.50850  0.90620  Biso   1.000  C
  C131     1.0000 0.71550  0.00850  0.59380  Biso   1.000  C
  C132     1.0000 0.78450  0.99150  0.09380  Biso   1.000  C
  C133     1.0000 0.81950  0.38580  0.39380  Biso   1.000  C
  C134     1.0000 0.68050  0.61420  0.89380  Biso   1.000  C
  C135     1.0000 0.31950  0.11420  0.60620  Biso   1.000  C
  C136     1.0000 0.18050  0.88580  0.10620  Biso   1.000  C
  H77      1.0000 0.90300  0.40760  0.39760  Biso   1.000  H
  H78      1.0000 0.59700  0.59240  0.89760  Biso   1.000  H
  H79      1.0000 0.40300  0.09240  0.60240  Biso   1.000  H
  H80      1.0000 0.09700  0.90760  0.10240  Biso   1.000  H
  C137     1.0000 0.56890  0.47820  0.66310  Biso   1.000  C
  C138     1.0000 0.93110  0.52180  0.16310  Biso   1.000  C
  C139     1.0000 0.06890  0.02180  0.33690  Biso   1.000  C
  C140     1.0000 0.43110  0.97820  0.83690  Biso   1.000  C
  H81      1.0000 0.50800  0.49560  0.68320  Biso   1.000  H
  H82      1.0000 0.99200  0.50440  0.18320  Biso   1.000  H
  H83      1.0000 0.00800  0.00440  0.31680  Biso   1.000  H
  H84      1.0000 0.49200  0.99560  0.81680  Biso   1.000  H
  C141     1.0000 0.33280  0.38710  0.10250  Biso   1.000  C
  C142     1.0000 0.16720  0.61290  0.60250  Biso   1.000  C
  C143     1.0000 0.83280  0.11290  0.89750  Biso   1.000  C
  C144     1.0000 0.66720  0.88710  0.39750  Biso   1.000  C
  N33      1.0000 0.61070  0.05070  0.27760  Biso   1.000  N
  N34      1.0000 0.88930  0.94930  0.77760  Biso   1.000  N
  N35      1.0000 0.11070  0.44930  0.72240  Biso   1.000  N
  N36      1.0000 0.38930  0.55070  0.22240  Biso   1.000  N
  C145     1.0000 0.70160  0.10310  0.21390  Biso   1.000  C
  C146     1.0000 0.79840  0.89690  0.71390  Biso   1.000  C
  C147     1.0000 0.20160  0.39690  0.78610  Biso   1.000  C
  C148     1.0000 0.29840  0.60310  0.28610  Biso   1.000  C
  H85      1.0000 0.79380  0.11510  0.20300  Biso   1.000  H
  H86      1.0000 0.70620  0.88490  0.70300  Biso   1.000  H
  H87      1.0000 0.29380  0.38490  0.79700  Biso   1.000  H
  H88      1.0000 0.20620  0.61510  0.29700  Biso   1.000  H
  H89      1.0000 0.64280  0.13690  0.21890  Biso   1.000  H
  H90      1.0000 0.85720  0.86310  0.71890  Biso   1.000  H
  H91      1.0000 0.14280  0.36310  0.78110  Biso   1.000  H
  H92      1.0000 0.35720  0.63690  0.28110  Biso   1.000  H
  H93      1.0000 0.65550  0.07830  0.19310  Biso   1.000  H
  H94      1.0000 0.84450  0.92170  0.69310  Biso   1.000  H
  H95      1.0000 0.15550  0.42170  0.80690  Biso   1.000  H
  H96      1.0000 0.34450  0.57830  0.30690  Biso   1.000  H
  C149     1.0000 0.24450  0.36330  0.13350  Biso   1.000  C
  C150     1.0000 0.25550  0.63670  0.63350  Biso   1.000  C
  C151     1.0000 0.74450  0.13670  0.86650  Biso   1.000  C
  C152     1.0000 0.75550  0.86330  0.36650  Biso   1.000  C
  H97      1.0000 0.14910  0.35480  0.12700  Biso   1.000  H
  H98      1.0000 0.35090  0.64520  0.62700  Biso   1.000  H
  H99      1.0000 0.64910  0.14520  0.87300  Biso   1.000  H
  H100     1.0000 0.85090  0.85480  0.37300  Biso   1.000  H
  C153     1.0000 0.77820  0.71660  0.45620  Biso   1.000  C
  C154     1.0000 0.72180  0.28340  0.95620  Biso   1.000  C
  C155     1.0000 0.27820  0.78340  0.54380  Biso   1.000  C
  C156     1.0000 0.22180  0.21660  0.04380  Biso   1.000  C
  H101     1.0000 0.86900  0.70730  0.44310  Biso   1.000  H
  H102     1.0000 0.63100  0.29270  0.94310  Biso   1.000  H
  H103     1.0000 0.36900  0.79270  0.55690  Biso   1.000  H
  H104     1.0000 0.13100  0.20730  0.05690  Biso   1.000  H
  H105     1.0000 0.75790  0.75730  0.45230  Biso   1.000  H
  H106     1.0000 0.74210  0.24270  0.95230  Biso   1.000  H
  H107     1.0000 0.25790  0.74270  0.54770  Biso   1.000  H
  H108     1.0000 0.24210  0.25730  0.04770  Biso   1.000  H
  H109     1.0000 0.70360  0.69380  0.44290  Biso   1.000  H
  H110     1.0000 0.79640  0.30620  0.94290  Biso   1.000  H
  H111     1.0000 0.20360  0.80620  0.55710  Biso   1.000  H
  H112     1.0000 0.29640  0.19380  0.05710  Biso   1.000  H
  C157     1.0000 0.70560  0.58200  0.41140  Biso   1.000  C
  C158     1.0000 0.79440  0.41800  0.91140  Biso   1.000  C
  C159     1.0000 0.20560  0.91800  0.58860  Biso   1.000  C
  C160     1.0000 0.29440  0.08200  0.08860  Biso   1.000  C
  C161     1.0000 0.91230  0.72240  0.52500  Biso   1.000  C
  C162     1.0000 0.58770  0.27760  0.02500  Biso   1.000  C
  C163     1.0000 0.41230  0.77760  0.47500  Biso   1.000  C
  C164     1.0000 0.08770  0.22240  0.97500  Biso   1.000  C
  H113     1.0000 0.91150  0.76420  0.52780  Biso   1.000  H
  H114     1.0000 0.58850  0.23580  0.02780  Biso   1.000  H
  H115     1.0000 0.41150  0.73580  0.47220  Biso   1.000  H
  H116     1.0000 0.08850  0.26420  0.97220  Biso   1.000  H
  H117     1.0000 0.99680  0.71060  0.50940  Biso   1.000  H
  H118     1.0000 0.50320  0.28940  0.00940  Biso   1.000  H
  H119     1.0000 0.49680  0.78940  0.49060  Biso   1.000  H
  H120     1.0000 0.00320  0.21060  0.99060  Biso   1.000  H
  H121     1.0000 0.91290  0.70490  0.55320  Biso   1.000  H
  H122     1.0000 0.58710  0.29510  0.05320  Biso   1.000  H
  H123     1.0000 0.41290  0.79510  0.44680  Biso   1.000  H
  H124     1.0000 0.08710  0.20490  0.94680  Biso   1.000  H
  C165     1.0000 0.57640  0.36510  0.41000  Biso   1.000  C
  C166     1.0000 0.92360  0.63490  0.91000  Biso   1.000  C
  C167     1.0000 0.07640  0.13490  0.59000  Biso   1.000  C
  C168     1.0000 0.42360  0.86510  0.09000  Biso   1.000  C
  H125     1.0000 0.49060  0.37290  0.42440  Biso   1.000  H
  H126     1.0000 0.00940  0.62710  0.92440  Biso   1.000  H
  H127     1.0000 0.99060  0.12710  0.57560  Biso   1.000  H
  H128     1.0000 0.50940  0.87290  0.07560  Biso   1.000  H
  C169     1.0000 0.75150  0.43200  0.60650  Biso   1.000  C
  C170     1.0000 0.74850  0.56800  0.10650  Biso   1.000  C
  C171     1.0000 0.25150  0.06800  0.39350  Biso   1.000  C
  C172     1.0000 0.24850  0.93200  0.89350  Biso   1.000  C
  H129     1.0000 0.81720  0.41440  0.58790  Biso   1.000  H
  H130     1.0000 0.68280  0.58560  0.08790  Biso   1.000  H
  H131     1.0000 0.31720  0.08560  0.41210  Biso   1.000  H
  H132     1.0000 0.18280  0.91440  0.91210  Biso   1.000  H
  C173     1.0000 0.10580  0.33870  0.60770  Biso   1.000  C
  C174     1.0000 0.39420  0.66130  0.10770  Biso   1.000  C
  C175     1.0000 0.60580  0.16130  0.39230  Biso   1.000  C
  C176     1.0000 0.89420  0.83870  0.89230  Biso   1.000  C
  H133     1.0000 0.01980  0.32000  0.61450  Biso   1.000  H
  H134     1.0000 0.48020  0.68000  0.11450  Biso   1.000  H
  H135     1.0000 0.51980  0.18000  0.38550  Biso   1.000  H
  H136     1.0000 0.98020  0.82000  0.88550  Biso   1.000  H
  C177     1.0000 0.29760  0.35200  0.17450  Biso   1.000  C
  C178     1.0000 0.20240  0.64800  0.67450  Biso   1.000  C
  C179     1.0000 0.79760  0.14800  0.82550  Biso   1.000  C
  C180     1.0000 0.70240  0.85200  0.32550  Biso   1.000  C
  H137     1.0000 0.23560  0.33590  0.19490  Biso   1.000  H
  H138     1.0000 0.26440  0.66410  0.69490  Biso   1.000  H
  H139     1.0000 0.73560  0.16410  0.80510  Biso   1.000  H
  H140     1.0000 0.76440  0.83590  0.30510  Biso   1.000  H
  C181     1.0000 0.10740  0.37500  0.57190  Biso   1.000  C
  C182     1.0000 0.39260  0.62500  0.07190  Biso   1.000  C
  C183     1.0000 0.60740  0.12500  0.42810  Biso   1.000  C
  C184     1.0000 0.89260  0.87500  0.92810  Biso   1.000  C
  H141     1.0000 0.02620  0.37870  0.55450  Biso   1.000  H
  H142     1.0000 0.47380  0.62130  0.05450  Biso   1.000  H
  H143     1.0000 0.52620  0.12130  0.44550  Biso   1.000  H
  H144     1.0000 0.97380  0.87870  0.94550  Biso   1.000  H
  C185     1.0000 0.46120  0.05860  0.26250  Biso   1.000  C
  C186     1.0000 0.03880  0.94140  0.76250  Biso   1.000  C
  C187     1.0000 0.96120  0.44140  0.73750  Biso   1.000  C
  C188     1.0000 0.53880  0.55860  0.23750  Biso   1.000  C
  H145     1.0000 0.40650  0.07860  0.28430  Biso   1.000  H
  H146     1.0000 0.09350  0.92140  0.78430  Biso   1.000  H
  H147     1.0000 0.90650  0.42140  0.71570  Biso   1.000  H
  H148     1.0000 0.59350  0.57860  0.21570  Biso   1.000  H
  H149     1.0000 0.41870  0.02120  0.25700  Biso   1.000  H
  H150     1.0000 0.08130  0.97880  0.75700  Biso   1.000  H
  H151     1.0000 0.91870  0.47880  0.74300  Biso   1.000  H
  H152     1.0000 0.58130  0.52120  0.24300  Biso   1.000  H
  H153     1.0000 0.46110  0.08130  0.23640  Biso   1.000  H
  H154     1.0000 0.03890  0.91870  0.73640  Biso   1.000  H
  H155     1.0000 0.96110  0.41870  0.76360  Biso   1.000  H
  H156     1.0000 0.53890  0.58130  0.26360  Biso   1.000  H
  C189     1.0000 0.59970  0.50960  0.62600  Biso   1.000  C
  C190     1.0000 0.90030  0.49040  0.12600  Biso   1.000  C
  C191     1.0000 0.09970  0.99040  0.37400  Biso   1.000  C
  C192     1.0000 0.40030  0.00960  0.87400  Biso   1.000  C
  H157     1.0000 0.55660  0.54560  0.62060  Biso   1.000  H
  H158     1.0000 0.94340  0.45440  0.12060  Biso   1.000  H
  H159     1.0000 0.05660  0.95440  0.37940  Biso   1.000  H
  H160     1.0000 0.44340  0.04560  0.87940  Biso   1.000  H
  C193     1.0000 0.67830  0.66610  0.56800  Biso   1.000  C
  C194     1.0000 0.82170  0.33390  0.06800  Biso   1.000  C
  C195     1.0000 0.17830  0.83390  0.43200  Biso   1.000  C
  C196     1.0000 0.32170  0.16610  0.93200  Biso   1.000  C
  H161     1.0000 0.58400  0.65470  0.57740  Biso   1.000  H
  H162     1.0000 0.91600  0.34530  0.07740  Biso   1.000  H
  H163     1.0000 0.08400  0.84530  0.42260  Biso   1.000  H
  H164     1.0000 0.41600  0.15470  0.92260  Biso   1.000  H
  H165     1.0000 0.70420  0.70240  0.58150  Biso   1.000  H
  H166     1.0000 0.79580  0.29760  0.08150  Biso   1.000  H
  H167     1.0000 0.20420  0.79760  0.41850  Biso   1.000  H
  H168     1.0000 0.29580  0.20240  0.91850  Biso   1.000  H
  H169     1.0000 0.74660  0.63660  0.57600  Biso   1.000  H
  H170     1.0000 0.75340  0.36340  0.07600  Biso   1.000  H
  H171     1.0000 0.24660  0.86340  0.42400  Biso   1.000  H
  H172     1.0000 0.25340  0.13660  0.92400  Biso   1.000  H
  C197     1.0000 0.63100  0.02060  0.31970  Biso   1.000  C
  C198     1.0000 0.86900  0.97940  0.81970  Biso   1.000  C
  C199     1.0000 0.13100  0.47940  0.68030  Biso   1.000  C
  C200     1.0000 0.36900  0.52060  0.18030  Biso   1.000  C
  H173     1.0000 0.68360  0.98500  0.31520  Biso   1.000  H
  H174     1.0000 0.81640  0.01500  0.81520  Biso   1.000  H
  H175     1.0000 0.18360  0.51500  0.68480  Biso   1.000  H
  H176     1.0000 0.31640  0.48500  0.18480  Biso   1.000  H
  H177     1.0000 0.53890  0.01180  0.33200  Biso   1.000  H
  H178     1.0000 0.96110  0.98820  0.83200  Biso   1.000  H
  H179     1.0000 0.03890  0.48820  0.66800  Biso   1.000  H
  H180     1.0000 0.46110  0.51180  0.16800  Biso   1.000  H
  H181     1.0000 0.68400  0.04540  0.33890  Biso   1.000  H
  H182     1.0000 0.81600  0.95460  0.83890  Biso   1.000  H
  H183     1.0000 0.18400  0.45460  0.66110  Biso   1.000  H
  H184     1.0000 0.31600  0.54540  0.16110  Biso   1.000  H
  O57      1.0000 0.63480  0.54120  0.53686  Biso   1.000  O
  O58      1.0000 0.86520  0.45880  0.03686  Biso   1.000  O
  O59      1.0000 0.13480  0.95880  0.46314  Biso   1.000  O
  O60      1.0000 0.36520  0.04120  0.96314  Biso   1.000  O
  O61      1.0000 0.57080  0.58760  0.41642  Biso   1.000  O
  O62      1.0000 0.92920  0.41240  0.91642  Biso   1.000  O
  O63      1.0000 0.07080  0.91240  0.58358  Biso   1.000  O
  O64      1.0000 0.42920  0.08760  0.08358  Biso   1.000  O
  O65      1.0000 0.30420  0.21520  0.42610  Biso   1.000  O
  O66      1.0000 0.19580  0.78480  0.92610  Biso   1.000  O
  O67      1.0000 0.80420  0.28480  0.57390  Biso   1.000  O
  O68      1.0000 0.69580  0.71520  0.07390  Biso   1.000  O
  C201     1.0000 0.22200  0.25710  0.43840  Biso   1.000  C
  C202     1.0000 0.27800  0.74290  0.93840  Biso   1.000  C
  C203     1.0000 0.72200  0.24290  0.56160  Biso   1.000  C
  C204     1.0000 0.77800  0.75710  0.06160  Biso   1.000  C
  N37      1.0000 0.10900  0.22920  0.46120  Biso   1.000  N
  N38      1.0000 0.39100  0.77080  0.96120  Biso   1.000  N
  N39      1.0000 0.60900  0.27080  0.53880  Biso   1.000  N
  N40      1.0000 0.89100  0.72920  0.03880  Biso   1.000  N
  C205     1.0000 0.98800  0.26780  0.47150  Biso   1.000  C
  C206     1.0000 0.51200  0.73220  0.97150  Biso   1.000  C
  C207     1.0000 0.48800  0.23220  0.52850  Biso   1.000  C
  C208     1.0000 0.01200  0.76780  0.02850  Biso   1.000  C
  H185     1.0000 0.02070  0.30760  0.47250  Biso   1.000  H
  H186     1.0000 0.47930  0.69240  0.97250  Biso   1.000  H
  H187     1.0000 0.52070  0.19240  0.52750  Biso   1.000  H
  H188     1.0000 0.97930  0.80760  0.02750  Biso   1.000  H
  H189     1.0000 0.94880  0.25710  0.49910  Biso   1.000  H
  H190     1.0000 0.55120  0.74290  0.99910  Biso   1.000  H
  H191     1.0000 0.44880  0.24290  0.50090  Biso   1.000  H
  H192     1.0000 0.05120  0.75710  0.00090  Biso   1.000  H
  H193     1.0000 0.91560  0.26380  0.44960  Biso   1.000  H
  H194     1.0000 0.58440  0.73620  0.94960  Biso   1.000  H
  H195     1.0000 0.41560  0.23620  0.55040  Biso   1.000  H
  H196     1.0000 0.08440  0.76380  0.05040  Biso   1.000  H
  C209     1.0000 0.12900  0.17550  0.48820  Biso   1.000  C
  C210     1.0000 0.37100  0.82450  0.98820  Biso   1.000  C
  C211     1.0000 0.62900  0.32450  0.51180  Biso   1.000  C
  C212     1.0000 0.87100  0.67550  0.01180  Biso   1.000  C
  H197     1.0000 0.10220  0.14230  0.47100  Biso   1.000  H
  H198     1.0000 0.39780  0.85770  0.97100  Biso   1.000  H
  H199     1.0000 0.60220  0.35770  0.52900  Biso   1.000  H
  H200     1.0000 0.89780  0.64230  0.02900  Biso   1.000  H
  H201     1.0000 0.06810  0.17750  0.51330  Biso   1.000  H
  H202     1.0000 0.43190  0.82250  0.01330  Biso   1.000  H
  H203     1.0000 0.56810  0.32250  0.48670  Biso   1.000  H
  H204     1.0000 0.93190  0.67750  0.98670  Biso   1.000  H
  H205     1.0000 0.22730  0.17190  0.49700  Biso   1.000  H
  H206     1.0000 0.27270  0.82810  0.99700  Biso   1.000  H
  H207     1.0000 0.72730  0.32810  0.50300  Biso   1.000  H
  H208     1.0000 0.77270  0.67190  0.00300  Biso   1.000  H
  C213     1.0000 0.19000  0.29480  0.40360  Biso   1.000  C
  C214     1.0000 0.31000  0.70520  0.90360  Biso   1.000  C
  C215     1.0000 0.69000  0.20520  0.59640  Biso   1.000  C
  C216     1.0000 0.81000  0.79480  0.09640  Biso   1.000  C
  H209     1.0000 0.27710  0.30410  0.38830  Biso   1.000  H
  H210     1.0000 0.22290  0.69590  0.88830  Biso   1.000  H
  H211     1.0000 0.77710  0.19590  0.61170  Biso   1.000  H
  H212     1.0000 0.72290  0.80410  0.11170  Biso   1.000  H
  H213     1.0000 0.14870  0.33000  0.41500  Biso   1.000  H
  H214     1.0000 0.35130  0.67000  0.91500  Biso   1.000  H
  H215     1.0000 0.64870  0.17000  0.58500  Biso   1.000  H
  H216     1.0000 0.85130  0.83000  0.08500  Biso   1.000  H
  H217     1.0000 0.12310  0.27660  0.38420  Biso   1.000  H
  H218     1.0000 0.37690  0.72340  0.88420  Biso   1.000  H
  H219     1.0000 0.62310  0.22340  0.61580  Biso   1.000  H
  H220     1.0000 0.87690  0.77660  0.11580  Biso   1.000  H
