data_image0
_cell_length_a       9.297
_cell_length_b       23.198
_cell_length_c       30.672
_cell_angle_alpha    90
_cell_angle_beta     90
_cell_angle_gamma    90

_symmetry_space_group_name_H-M    "P 1"
_symmetry_int_tables_number       1

loop_
  _symmetry_equiv_pos_as_xyz
  'x, y, z'

loop_
  _atom_site_label
  _atom_site_occupancy
  _atom_site_fract_x
  _atom_site_fract_y
  _atom_site_fract_z
  _atom_site_thermal_displace_type
  _atom_site_B_iso_or_equiv
  _atom_site_type_symbol
  Gd1      1.0000 0.95690  0.93919  0.98432  Biso   1.000  Gd
  Gd2      1.0000 0.54310  0.06081  0.48432  Biso   1.000  Gd
  Gd3      1.0000 0.45690  0.56081  0.01568  Biso   1.000  Gd
  Gd4      1.0000 0.04310  0.43919  0.51568  Biso   1.000  Gd
  Gd5      1.0000 0.48735  0.96559  0.97813  Biso   1.000  Gd
  Gd6      1.0000 0.01265  0.03441  0.47813  Biso   1.000  Gd
  Gd7      1.0000 0.98735  0.53441  0.02187  Biso   1.000  Gd
  Gd8      1.0000 0.51265  0.46559  0.52187  Biso   1.000  Gd
  I1       1.0000 0.01341  0.75538  0.72492  Biso   1.000  I
  I2       1.0000 0.48659  0.24462  0.22492  Biso   1.000  I
  I3       1.0000 0.51341  0.74462  0.27508  Biso   1.000  I
  I4       1.0000 0.98659  0.25538  0.77508  Biso   1.000  I
  I5       1.0000 0.52270  0.77004  0.71440  Biso   1.000  I
  I6       1.0000 0.97730  0.22996  0.21440  Biso   1.000  I
  I7       1.0000 0.02270  0.72996  0.28560  Biso   1.000  I
  I8       1.0000 0.47730  0.27004  0.78560  Biso   1.000  I
  I9       1.0000 0.71124  0.60762  0.75094  Biso   1.000  I
  I10      1.0000 0.78876  0.39238  0.25094  Biso   1.000  I
  I11      1.0000 0.21124  0.89238  0.24906  Biso   1.000  I
  I12      1.0000 0.28876  0.10762  0.74906  Biso   1.000  I
  Cu1      1.0000 0.99330  0.64281  0.74915  Biso   1.000  Cu
  Cu2      1.0000 0.50670  0.35719  0.24915  Biso   1.000  Cu
  Cu3      1.0000 0.49330  0.85719  0.25085  Biso   1.000  Cu
  Cu4      1.0000 0.00670  0.14281  0.75085  Biso   1.000  Cu
  Cu5      1.0000 0.78050  0.76527  0.67676  Biso   1.000  Cu
  Cu6      1.0000 0.71950  0.23473  0.17676  Biso   1.000  Cu
  Cu7      1.0000 0.28050  0.73473  0.32324  Biso   1.000  Cu
  Cu8      1.0000 0.21950  0.26527  0.82324  Biso   1.000  Cu
  Cu9      1.0000 0.45680  0.88061  0.72246  Biso   1.000  Cu
  Cu10     1.0000 0.04320  0.11939  0.22246  Biso   1.000  Cu
  Cu11     1.0000 0.95680  0.61939  0.27754  Biso   1.000  Cu
  Cu12     1.0000 0.54320  0.38061  0.77754  Biso   1.000  Cu
  Cu13     1.0000 0.75520  0.71740  0.75716  Biso   1.000  Cu
  Cu14     1.0000 0.74480  0.28260  0.25716  Biso   1.000  Cu
  Cu15     1.0000 0.25520  0.78260  0.24284  Biso   1.000  Cu
  Cu16     1.0000 0.24480  0.21740  0.74284  Biso   1.000  Cu
  O1       1.0000 0.87650  0.96340  0.50720  Biso   1.000  O
  O2       1.0000 0.62350  0.03660  0.00720  Biso   1.000  O
  O3       1.0000 0.37650  0.53660  0.49280  Biso   1.000  O
  O4       1.0000 0.12350  0.46340  0.99280  Biso   1.000  O
  O5       1.0000 0.13020  0.95490  0.03730  Biso   1.000  O
  O6       1.0000 0.36980  0.04510  0.53730  Biso   1.000  O
  O7       1.0000 0.63020  0.54510  0.96270  Biso   1.000  O
  O8       1.0000 0.86980  0.45490  0.46270  Biso   1.000  O
  O9       1.0000 0.80480  0.86600  0.95630  Biso   1.000  O
  O10      1.0000 0.69520  0.13400  0.45630  Biso   1.000  O
  O11      1.0000 0.30480  0.63400  0.04370  Biso   1.000  O
  O12      1.0000 0.19520  0.36600  0.54370  Biso   1.000  O
  O13      1.0000 0.31920  0.03900  0.96970  Biso   1.000  O
  O14      1.0000 0.18080  0.96100  0.46970  Biso   1.000  O
  O15      1.0000 0.81920  0.46100  0.03030  Biso   1.000  O
  O16      1.0000 0.68080  0.53900  0.53030  Biso   1.000  O
  O17      1.0000 0.08230  0.02550  0.95880  Biso   1.000  O
  O18      1.0000 0.41770  0.97450  0.45880  Biso   1.000  O
  O19      1.0000 0.58230  0.47450  0.04120  Biso   1.000  O
  O20      1.0000 0.91770  0.52550  0.54120  Biso   1.000  O
  O21      1.0000 0.06770  0.91260  0.91640  Biso   1.000  O
  O22      1.0000 0.43230  0.08740  0.41640  Biso   1.000  O
  O23      1.0000 0.56770  0.58740  0.08360  Biso   1.000  O
  O24      1.0000 0.93230  0.41260  0.58360  Biso   1.000  O
  O25      1.0000 0.65040  0.98260  0.52310  Biso   1.000  O
  O26      1.0000 0.84960  0.01740  0.02310  Biso   1.000  O
  O27      1.0000 0.15040  0.51740  0.47690  Biso   1.000  O
  O28      1.0000 0.34960  0.48260  0.97690  Biso   1.000  O
  O29      1.0000 0.57230  0.88540  0.93870  Biso   1.000  O
  O30      1.0000 0.92770  0.11460  0.43870  Biso   1.000  O
  O31      1.0000 0.07230  0.61460  0.06130  Biso   1.000  O
  O32      1.0000 0.42770  0.38540  0.56130  Biso   1.000  O
  O33      1.0000 0.35000  0.60180  0.95040  Biso   1.000  O
  O34      1.0000 0.15000  0.39820  0.45040  Biso   1.000  O
  O35      1.0000 0.85000  0.89820  0.04960  Biso   1.000  O
  O36      1.0000 0.65000  0.10180  0.54960  Biso   1.000  O
  O37      1.0000 0.36110  0.97450  0.04540  Biso   1.000  O
  O38      1.0000 0.13890  0.02550  0.54540  Biso   1.000  O
  O39      1.0000 0.86110  0.52550  0.95460  Biso   1.000  O
  O40      1.0000 0.63890  0.47450  0.45460  Biso   1.000  O
  C1       1.0000 0.69800  0.86200  0.93370  Biso   1.000  C
  C2       1.0000 0.80200  0.13800  0.43370  Biso   1.000  C
  C3       1.0000 0.19800  0.63800  0.06630  Biso   1.000  C
  C4       1.0000 0.30200  0.36200  0.56630  Biso   1.000  C
  O41      1.0000 0.07590  0.84650  0.99700  Biso   1.000  O
  O42      1.0000 0.42410  0.15350  0.49700  Biso   1.000  O
  O43      1.0000 0.57590  0.65350  0.00300  Biso   1.000  O
  O44      1.0000 0.92410  0.34650  0.50300  Biso   1.000  O
  O45      1.0000 0.79370  0.98250  0.93300  Biso   1.000  O
  O46      1.0000 0.70630  0.01750  0.43300  Biso   1.000  O
  O47      1.0000 0.29370  0.51750  0.06700  Biso   1.000  O
  O48      1.0000 0.20630  0.48250  0.56700  Biso   1.000  O
  N1       1.0000 0.73620  0.75320  0.81760  Biso   1.000  N
  N2       1.0000 0.76380  0.24680  0.31760  Biso   1.000  N
  N3       1.0000 0.23620  0.74680  0.18240  Biso   1.000  N
  N4       1.0000 0.26380  0.25320  0.68240  Biso   1.000  N
  C5       1.0000 0.22900  0.97990  0.05610  Biso   1.000  C
  C6       1.0000 0.27100  0.02010  0.55610  Biso   1.000  C
  C7       1.0000 0.72900  0.52010  0.94390  Biso   1.000  C
  C8       1.0000 0.77100  0.47990  0.44390  Biso   1.000  C
  O49      1.0000 0.11900  0.58550  0.97040  Biso   1.000  O
  O50      1.0000 0.38100  0.41450  0.47040  Biso   1.000  O
  O51      1.0000 0.61900  0.91450  0.02960  Biso   1.000  O
  O52      1.0000 0.88100  0.08550  0.52960  Biso   1.000  O
  N5       1.0000 0.06500  0.63890  0.81300  Biso   1.000  N
  N6       1.0000 0.43500  0.36110  0.31300  Biso   1.000  N
  N7       1.0000 0.56500  0.86110  0.18700  Biso   1.000  N
  N8       1.0000 0.93500  0.13890  0.68700  Biso   1.000  N
  N9       1.0000 0.11700  0.07490  0.17140  Biso   1.000  N
  N10      1.0000 0.38300  0.92510  0.67140  Biso   1.000  N
  N11      1.0000 0.61700  0.42510  0.82860  Biso   1.000  N
  N12      1.0000 0.88300  0.57490  0.32860  Biso   1.000  N
  O53      1.0000 0.57810  0.01180  0.91260  Biso   1.000  O
  O54      1.0000 0.92190  0.98820  0.41260  Biso   1.000  O
  O55      1.0000 0.07810  0.48820  0.08740  Biso   1.000  O
  O56      1.0000 0.42190  0.51180  0.58740  Biso   1.000  O
  O57      1.0000 0.28790  0.92620  0.94210  Biso   1.000  O
  O58      1.0000 0.21210  0.07380  0.44210  Biso   1.000  O
  O59      1.0000 0.78790  0.57380  0.05790  Biso   1.000  O
  O60      1.0000 0.71210  0.42620  0.55790  Biso   1.000  O
  N13      1.0000 0.77900  0.83110  0.63410  Biso   1.000  N
  N14      1.0000 0.72100  0.16890  0.13410  Biso   1.000  N
  N15      1.0000 0.27900  0.66890  0.36590  Biso   1.000  N
  N16      1.0000 0.22100  0.33110  0.86590  Biso   1.000  N
  C9       1.0000 0.84100  0.80630  0.87930  Biso   1.000  C
  C10      1.0000 0.65900  0.19370  0.37930  Biso   1.000  C
  C11      1.0000 0.34100  0.69370  0.12070  Biso   1.000  C
  C12      1.0000 0.15900  0.30630  0.62070  Biso   1.000  C
  H1       1.0000 0.92340  0.81840  0.89400  Biso   1.000  H
  H2       1.0000 0.57660  0.18160  0.39400  Biso   1.000  H
  H3       1.0000 0.42340  0.68160  0.10600  Biso   1.000  H
  H4       1.0000 0.07660  0.31840  0.60600  Biso   1.000  H
  C13      1.0000 0.25900  0.90940  0.86610  Biso   1.000  C
  C14      1.0000 0.24100  0.09060  0.36610  Biso   1.000  C
  C15      1.0000 0.75900  0.59060  0.13390  Biso   1.000  C
  C16      1.0000 0.74100  0.40940  0.63390  Biso   1.000  C
  N17      1.0000 0.36900  0.89260  0.78160  Biso   1.000  N
  N18      1.0000 0.13100  0.10740  0.28160  Biso   1.000  N
  N19      1.0000 0.86900  0.60740  0.21840  Biso   1.000  N
  N20      1.0000 0.63100  0.39260  0.71840  Biso   1.000  N
  C17      1.0000 0.70900  0.82310  0.89280  Biso   1.000  C
  C18      1.0000 0.79100  0.17690  0.39280  Biso   1.000  C
  C19      1.0000 0.20900  0.67690  0.10720  Biso   1.000  C
  C20      1.0000 0.29100  0.32310  0.60720  Biso   1.000  C
  C21      1.0000 0.97800  0.05950  0.82290  Biso   1.000  C
  C22      1.0000 0.52200  0.94050  0.32290  Biso   1.000  C
  C23      1.0000 0.47800  0.44050  0.17710  Biso   1.000  C
  C24      1.0000 0.02200  0.55950  0.67710  Biso   1.000  C
  H5       1.0000 0.07520  0.05490  0.81650  Biso   1.000  H
  H6       1.0000 0.42480  0.94510  0.31650  Biso   1.000  H
  H7       1.0000 0.57520  0.44510  0.18350  Biso   1.000  H
  H8       1.0000 0.92480  0.55490  0.68350  Biso   1.000  H
  N21      1.0000 0.20400  0.19420  0.86260  Biso   1.000  N
  N22      1.0000 0.29600  0.80580  0.36260  Biso   1.000  N
  N23      1.0000 0.70400  0.30580  0.13740  Biso   1.000  N
  N24      1.0000 0.79600  0.69420  0.63740  Biso   1.000  N
  C25      1.0000 0.02200  0.60850  0.88570  Biso   1.000  C
  C26      1.0000 0.47800  0.39150  0.38570  Biso   1.000  C
  C27      1.0000 0.52200  0.89150  0.11430  Biso   1.000  C
  C28      1.0000 0.97800  0.10850  0.61430  Biso   1.000  C
  H9       1.0000 0.95430  0.59610  0.90610  Biso   1.000  H
  H10      1.0000 0.54570  0.40390  0.40610  Biso   1.000  H
  H11      1.0000 0.45430  0.90390  0.09390  Biso   1.000  H
  H12      1.0000 0.04570  0.09610  0.59390  Biso   1.000  H
  C29      1.0000 0.19500  0.10020  0.92310  Biso   1.000  C
  C30      1.0000 0.30500  0.89980  0.42310  Biso   1.000  C
  C31      1.0000 0.69500  0.39980  0.07690  Biso   1.000  C
  C32      1.0000 0.80500  0.60020  0.57690  Biso   1.000  C
  C33      1.0000 0.76900  0.91370  0.56530  Biso   1.000  C
  C34      1.0000 0.73100  0.08630  0.06530  Biso   1.000  C
  C35      1.0000 0.26900  0.58630  0.43470  Biso   1.000  C
  C36      1.0000 0.23100  0.41370  0.93470  Biso   1.000  C
  C37      1.0000 0.89900  0.84410  0.60960  Biso   1.000  C
  C38      1.0000 0.60100  0.15590  0.10960  Biso   1.000  C
  C39      1.0000 0.39900  0.65590  0.39040  Biso   1.000  C
  C40      1.0000 0.10100  0.34410  0.89040  Biso   1.000  C
  H13      1.0000 0.98550  0.82610  0.61610  Biso   1.000  H
  H14      1.0000 0.51450  0.17390  0.11610  Biso   1.000  H
  H15      1.0000 0.48550  0.67390  0.38390  Biso   1.000  H
  H16      1.0000 0.01450  0.32610  0.88390  Biso   1.000  H
  C41      1.0000 0.21300  0.60140  0.94350  Biso   1.000  C
  C42      1.0000 0.28700  0.39860  0.44350  Biso   1.000  C
  C43      1.0000 0.71300  0.89860  0.05650  Biso   1.000  C
  C44      1.0000 0.78700  0.10140  0.55650  Biso   1.000  C
  C45      1.0000 0.40600  0.93640  0.80770  Biso   1.000  C
  C46      1.0000 0.09400  0.06360  0.30770  Biso   1.000  C
  C47      1.0000 0.90600  0.56360  0.19230  Biso   1.000  C
  C48      1.0000 0.59400  0.43640  0.69230  Biso   1.000  C
  H17      1.0000 0.47210  0.96210  0.79590  Biso   1.000  H
  H18      1.0000 0.02790  0.03790  0.29590  Biso   1.000  H
  H19      1.0000 0.97210  0.53790  0.20410  Biso   1.000  H
  H20      1.0000 0.52790  0.46210  0.70410  Biso   1.000  H
  C49      1.0000 0.19900  0.01480  0.09610  Biso   1.000  C
  C50      1.0000 0.30100  0.98520  0.59610  Biso   1.000  C
  C51      1.0000 0.69900  0.48520  0.90390  Biso   1.000  C
  C52      1.0000 0.80100  0.51480  0.40390  Biso   1.000  C
  C53      1.0000 0.76400  0.95450  0.52730  Biso   1.000  C
  C54      1.0000 0.73600  0.04550  0.02730  Biso   1.000  C
  C55      1.0000 0.26400  0.54550  0.47270  Biso   1.000  C
  C56      1.0000 0.23600  0.45450  0.97270  Biso   1.000  C
  N25      1.0000 0.90300  0.09340  0.79810  Biso   1.000  N
  N26      1.0000 0.59700  0.90660  0.29810  Biso   1.000  N
  N27      1.0000 0.40300  0.40660  0.20190  Biso   1.000  N
  N28      1.0000 0.09700  0.59340  0.70190  Biso   1.000  N
  C57      1.0000 0.58800  0.80660  0.87000  Biso   1.000  C
  C58      1.0000 0.91200  0.19340  0.37000  Biso   1.000  C
  C59      1.0000 0.08800  0.69340  0.13000  Biso   1.000  C
  C60      1.0000 0.41200  0.30660  0.63000  Biso   1.000  C
  H21      1.0000 0.49720  0.81810  0.87910  Biso   1.000  H
  H22      1.0000 0.00280  0.18190  0.37910  Biso   1.000  H
  H23      1.0000 0.99720  0.68190  0.12090  Biso   1.000  H
  H24      1.0000 0.50280  0.31810  0.62090  Biso   1.000  H
  C61      1.0000 0.20000  0.09970  0.13980  Biso   1.000  C
  C62      1.0000 0.30000  0.90030  0.63980  Biso   1.000  C
  C63      1.0000 0.70000  0.40030  0.86020  Biso   1.000  C
  C64      1.0000 0.80000  0.59970  0.36020  Biso   1.000  C
  H25      1.0000 0.23070  0.13760  0.14310  Biso   1.000  H
  H26      1.0000 0.26930  0.86240  0.64310  Biso   1.000  H
  H27      1.0000 0.73070  0.36240  0.85690  Biso   1.000  H
  H28      1.0000 0.76930  0.63760  0.35690  Biso   1.000  H
  C65      1.0000 0.98400  0.61930  0.84330  Biso   1.000  C
  C66      1.0000 0.51600  0.38070  0.34330  Biso   1.000  C
  C67      1.0000 0.48400  0.88070  0.15670  Biso   1.000  C
  C68      1.0000 0.01600  0.11930  0.65670  Biso   1.000  C
  H29      1.0000 0.88880  0.61170  0.83580  Biso   1.000  H
  H30      1.0000 0.61120  0.38830  0.33580  Biso   1.000  H
  H31      1.0000 0.38880  0.88830  0.16420  Biso   1.000  H
  H32      1.0000 0.11120  0.11170  0.66420  Biso   1.000  H
  C69      1.0000 0.77500  0.03660  0.86760  Biso   1.000  C
  C70      1.0000 0.72500  0.96340  0.36760  Biso   1.000  C
  C71      1.0000 0.27500  0.46340  0.13240  Biso   1.000  C
  C72      1.0000 0.22500  0.53660  0.63240  Biso   1.000  C
  C73      1.0000 0.16500  0.61690  0.89680  Biso   1.000  C
  C74      1.0000 0.33500  0.38310  0.39680  Biso   1.000  C
  C75      1.0000 0.66500  0.88310  0.10320  Biso   1.000  C
  C76      1.0000 0.83500  0.11690  0.60320  Biso   1.000  C
  C77      1.0000 0.21500  0.86200  0.84020  Biso   1.000  C
  C78      1.0000 0.28500  0.13800  0.34020  Biso   1.000  C
  C79      1.0000 0.71500  0.63800  0.15980  Biso   1.000  C
  C80      1.0000 0.78500  0.36200  0.65980  Biso   1.000  C
  H33      1.0000 0.14670  0.83650  0.85080  Biso   1.000  H
  H34      1.0000 0.35330  0.16350  0.35080  Biso   1.000  H
  H35      1.0000 0.64670  0.66350  0.14920  Biso   1.000  H
  H36      1.0000 0.85330  0.33650  0.64920  Biso   1.000  H
  C81      1.0000 0.17200  0.82660  0.01980  Biso   1.000  C
  C82      1.0000 0.32800  0.17340  0.51980  Biso   1.000  C
  C83      1.0000 0.67200  0.67340  0.98020  Biso   1.000  C
  C84      1.0000 0.82800  0.32660  0.48020  Biso   1.000  C
  C85      1.0000 0.71100  0.00820  0.90650  Biso   1.000  C
  C86      1.0000 0.78900  0.99180  0.40650  Biso   1.000  C
  C87      1.0000 0.21100  0.49180  0.09350  Biso   1.000  C
  C88      1.0000 0.28900  0.50820  0.59350  Biso   1.000  C
  C89      1.0000 0.85300  0.76900  0.84140  Biso   1.000  C
  C90      1.0000 0.64700  0.23100  0.34140  Biso   1.000  C
  C91      1.0000 0.35300  0.73100  0.15860  Biso   1.000  C
  C92      1.0000 0.14700  0.26900  0.65860  Biso   1.000  C
  H37      1.0000 0.94320  0.75540  0.83320  Biso   1.000  H
  H38      1.0000 0.55680  0.24460  0.33320  Biso   1.000  H
  H39      1.0000 0.44320  0.74460  0.16680  Biso   1.000  H
  H40      1.0000 0.05680  0.25540  0.66680  Biso   1.000  H
  C93      1.0000 0.76000  0.09820  0.80580  Biso   1.000  C
  C94      1.0000 0.74000  0.90180  0.30580  Biso   1.000  C
  C95      1.0000 0.26000  0.40180  0.19420  Biso   1.000  C
  C96      1.0000 0.24000  0.59820  0.69420  Biso   1.000  C
  H41      1.0000 0.70370  0.12070  0.78730  Biso   1.000  H
  H42      1.0000 0.79630  0.87930  0.28730  Biso   1.000  H
  H43      1.0000 0.20370  0.37930  0.21270  Biso   1.000  H
  H44      1.0000 0.29630  0.62070  0.71270  Biso   1.000  H
  C97      1.0000 0.20100  0.91680  0.91120  Biso   1.000  C
  C98      1.0000 0.29900  0.08320  0.41120  Biso   1.000  C
  C99      1.0000 0.70100  0.58320  0.08880  Biso   1.000  C
  C100     1.0000 0.79900  0.41680  0.58880  Biso   1.000  C
  N29      1.0000 0.28100  0.79500  0.00110  Biso   1.000  N
  N30      1.0000 0.21900  0.20500  0.50110  Biso   1.000  N
  N31      1.0000 0.78100  0.70500  0.99890  Biso   1.000  N
  N32      1.0000 0.71900  0.29500  0.49890  Biso   1.000  N
  O61      1.0000 0.65700  0.93650  0.72910  Biso   1.000  O
  O62      1.0000 0.84300  0.06350  0.22910  Biso   1.000  O
  O63      1.0000 0.15700  0.56350  0.27090  Biso   1.000  O
  O64      1.0000 0.34300  0.43650  0.77090  Biso   1.000  O
  C101     1.0000 0.64700  0.89360  0.58670  Biso   1.000  C
  C102     1.0000 0.85300  0.10640  0.08670  Biso   1.000  C
  C103     1.0000 0.14700  0.60640  0.41330  Biso   1.000  C
  C104     1.0000 0.35300  0.39360  0.91330  Biso   1.000  C
  H45      1.0000 0.55700  0.90740  0.57840  Biso   1.000  H
  H46      1.0000 0.94300  0.09260  0.07840  Biso   1.000  H
  H47      1.0000 0.05700  0.59260  0.42160  Biso   1.000  H
  H48      1.0000 0.44300  0.40740  0.92160  Biso   1.000  H
  C105     1.0000 0.20500  0.64950  0.82490  Biso   1.000  C
  C106     1.0000 0.29500  0.35050  0.32490  Biso   1.000  C
  C107     1.0000 0.70500  0.85050  0.17510  Biso   1.000  C
  C108     1.0000 0.79500  0.14950  0.67510  Biso   1.000  C
  H49      1.0000 0.26780  0.66350  0.80370  Biso   1.000  H
  H50      1.0000 0.23220  0.33650  0.30370  Biso   1.000  H
  H51      1.0000 0.76780  0.83650  0.19630  Biso   1.000  H
  H52      1.0000 0.73220  0.16350  0.69630  Biso   1.000  H
  C109     1.0000 0.60500  0.77190  0.83250  Biso   1.000  C
  C110     1.0000 0.89500  0.22810  0.33250  Biso   1.000  C
  C111     1.0000 0.10500  0.72810  0.16750  Biso   1.000  C
  C112     1.0000 0.39500  0.27190  0.66750  Biso   1.000  C
  H53      1.0000 0.52300  0.76120  0.81710  Biso   1.000  H
  H54      1.0000 0.97700  0.23880  0.31710  Biso   1.000  H
  H55      1.0000 0.02300  0.73880  0.18290  Biso   1.000  H
  H56      1.0000 0.47700  0.26120  0.68290  Biso   1.000  H
  C113     1.0000 0.17400  0.83330  0.06810  Biso   1.000  C
  C114     1.0000 0.32600  0.16670  0.56810  Biso   1.000  C
  C115     1.0000 0.67400  0.66670  0.93190  Biso   1.000  C
  C116     1.0000 0.82600  0.33330  0.43190  Biso   1.000  C
  H57      1.0000 0.14660  0.87190  0.07570  Biso   1.000  H
  H58      1.0000 0.35340  0.12810  0.57570  Biso   1.000  H
  H59      1.0000 0.64660  0.62810  0.92430  Biso   1.000  H
  H60      1.0000 0.85340  0.37190  0.42430  Biso   1.000  H
  H61      1.0000 0.26970  0.82590  0.07870  Biso   1.000  H
  H62      1.0000 0.23030  0.17410  0.57870  Biso   1.000  H
  H63      1.0000 0.76970  0.67410  0.92130  Biso   1.000  H
  H64      1.0000 0.73030  0.32590  0.42130  Biso   1.000  H
  H65      1.0000 0.10840  0.80650  0.08100  Biso   1.000  H
  H66      1.0000 0.39160  0.19350  0.58100  Biso   1.000  H
  H67      1.0000 0.60840  0.69350  0.91900  Biso   1.000  H
  H68      1.0000 0.89160  0.30650  0.41900  Biso   1.000  H
  C117     1.0000 0.19700  0.05200  0.95190  Biso   1.000  C
  C118     1.0000 0.30300  0.94800  0.45190  Biso   1.000  C
  C119     1.0000 0.69700  0.44800  0.04810  Biso   1.000  C
  C120     1.0000 0.80300  0.55200  0.54810  Biso   1.000  C
  C121     1.0000 0.27400  0.85310  0.79920  Biso   1.000  C
  C122     1.0000 0.22600  0.14690  0.29920  Biso   1.000  C
  C123     1.0000 0.77400  0.64690  0.20080  Biso   1.000  C
  C124     1.0000 0.72600  0.35310  0.70080  Biso   1.000  C
  H69      1.0000 0.24890  0.82030  0.78340  Biso   1.000  H
  H70      1.0000 0.25110  0.17970  0.28340  Biso   1.000  H
  H71      1.0000 0.74890  0.67970  0.21660  Biso   1.000  H
  H72      1.0000 0.75110  0.32030  0.71660  Biso   1.000  H
  C125     1.0000 0.78500  0.92880  0.74370  Biso   1.000  C
  C126     1.0000 0.71500  0.07120  0.24370  Biso   1.000  C
  C127     1.0000 0.28500  0.57120  0.25630  Biso   1.000  C
  C128     1.0000 0.21500  0.42880  0.75630  Biso   1.000  C
  C129     1.0000 0.07500  0.02280  0.16530  Biso   1.000  C
  C130     1.0000 0.42500  0.97720  0.66530  Biso   1.000  C
  C131     1.0000 0.57500  0.47720  0.83470  Biso   1.000  C
  C132     1.0000 0.92500  0.52280  0.33470  Biso   1.000  C
  H73      1.0000 0.01880  0.00680  0.18720  Biso   1.000  H
  H74      1.0000 0.48120  0.99320  0.68720  Biso   1.000  H
  H75      1.0000 0.51880  0.49320  0.81280  Biso   1.000  H
  H76      1.0000 0.98120  0.50680  0.31280  Biso   1.000  H
  C133     1.0000 0.27600  0.78330  0.95370  Biso   1.000  C
  C134     1.0000 0.22400  0.21670  0.45370  Biso   1.000  C
  C135     1.0000 0.77600  0.71670  0.04630  Biso   1.000  C
  C136     1.0000 0.72400  0.28330  0.54630  Biso   1.000  C
  H77      1.0000 0.18080  0.79080  0.94290  Biso   1.000  H
  H78      1.0000 0.31920  0.20920  0.44290  Biso   1.000  H
  H79      1.0000 0.68080  0.70920  0.05710  Biso   1.000  H
  H80      1.0000 0.81920  0.29080  0.55710  Biso   1.000  H
  H81      1.0000 0.30030  0.74370  0.94840  Biso   1.000  H
  H82      1.0000 0.19970  0.25630  0.44840  Biso   1.000  H
  H83      1.0000 0.80030  0.75630  0.05160  Biso   1.000  H
  H84      1.0000 0.69970  0.24370  0.55160  Biso   1.000  H
  H85      1.0000 0.34350  0.80780  0.93900  Biso   1.000  H
  H86      1.0000 0.15650  0.19220  0.43900  Biso   1.000  H
  H87      1.0000 0.84350  0.69220  0.06100  Biso   1.000  H
  H88      1.0000 0.65650  0.30780  0.56100  Biso   1.000  H
  C137     1.0000 0.23900  0.06920  0.10300  Biso   1.000  C
  C138     1.0000 0.26100  0.93080  0.60300  Biso   1.000  C
  C139     1.0000 0.73900  0.43080  0.89700  Biso   1.000  C
  C140     1.0000 0.76100  0.56920  0.39700  Biso   1.000  C
  H89      1.0000 0.29550  0.08740  0.08220  Biso   1.000  H
  H90      1.0000 0.20450  0.91260  0.58220  Biso   1.000  H
  H91      1.0000 0.79550  0.41260  0.91780  Biso   1.000  H
  H92      1.0000 0.70450  0.58740  0.41780  Biso   1.000  H
  C141     1.0000 0.25700  0.64090  0.86550  Biso   1.000  C
  C142     1.0000 0.24300  0.35910  0.36550  Biso   1.000  C
  C143     1.0000 0.75700  0.85910  0.13450  Biso   1.000  C
  C144     1.0000 0.74300  0.14090  0.63450  Biso   1.000  C
  H93      1.0000 0.35110  0.65060  0.87250  Biso   1.000  H
  H94      1.0000 0.14890  0.34940  0.37250  Biso   1.000  H
  H95      1.0000 0.85110  0.84940  0.12750  Biso   1.000  H
  H96      1.0000 0.64890  0.15060  0.62750  Biso   1.000  H
  C145     1.0000 0.32100  0.11260  0.89810  Biso   1.000  C
  C146     1.0000 0.17900  0.88740  0.39810  Biso   1.000  C
  C147     1.0000 0.82100  0.38740  0.10190  Biso   1.000  C
  C148     1.0000 0.67900  0.61260  0.60190  Biso   1.000  C
  H97      1.0000 0.40330  0.09010  0.90060  Biso   1.000  H
  H98      1.0000 0.09670  0.90990  0.40060  Biso   1.000  H
  H99      1.0000 0.90330  0.40990  0.09940  Biso   1.000  H
  H100     1.0000 0.59670  0.59010  0.59940  Biso   1.000  H
  C149     1.0000 0.92300  0.02960  0.85830  Biso   1.000  C
  C150     1.0000 0.57700  0.97040  0.35830  Biso   1.000  C
  C151     1.0000 0.42300  0.47040  0.14170  Biso   1.000  C
  C152     1.0000 0.07700  0.52960  0.64170  Biso   1.000  C
  H101     1.0000 0.98160  0.00590  0.87520  Biso   1.000  H
  H102     1.0000 0.51840  0.99410  0.37520  Biso   1.000  H
  H103     1.0000 0.48160  0.49410  0.12480  Biso   1.000  H
  H104     1.0000 0.01840  0.50590  0.62480  Biso   1.000  H
  C153     1.0000 0.31600  0.16000  0.86960  Biso   1.000  C
  C154     1.0000 0.18400  0.84000  0.36960  Biso   1.000  C
  C155     1.0000 0.81600  0.34000  0.13040  Biso   1.000  C
  C156     1.0000 0.68400  0.66000  0.63040  Biso   1.000  C
  H105     1.0000 0.39990  0.16820  0.85410  Biso   1.000  H
  H106     1.0000 0.10010  0.83180  0.35410  Biso   1.000  H
  H107     1.0000 0.89990  0.33180  0.14590  Biso   1.000  H
  H108     1.0000 0.60010  0.66820  0.64590  Biso   1.000  H
  C157     1.0000 0.80800  0.89560  0.78540  Biso   1.000  C
  C158     1.0000 0.69200  0.10440  0.28540  Biso   1.000  C
  C159     1.0000 0.30800  0.60440  0.21460  Biso   1.000  C
  C160     1.0000 0.19200  0.39560  0.71460  Biso   1.000  C
  H109     1.0000 0.71780  0.89130  0.80030  Biso   1.000  H
  H110     1.0000 0.78220  0.10870  0.30030  Biso   1.000  H
  H111     1.0000 0.21780  0.60870  0.19970  Biso   1.000  H
  H112     1.0000 0.28220  0.39130  0.69970  Biso   1.000  H
  H113     1.0000 0.87420  0.91610  0.80370  Biso   1.000  H
  H114     1.0000 0.62580  0.08390  0.30370  Biso   1.000  H
  H115     1.0000 0.37420  0.58390  0.19630  Biso   1.000  H
  H116     1.0000 0.12580  0.41610  0.69630  Biso   1.000  H
  H117     1.0000 0.84660  0.85820  0.77870  Biso   1.000  H
  H118     1.0000 0.65340  0.14180  0.27870  Biso   1.000  H
  H119     1.0000 0.34660  0.64180  0.22130  Biso   1.000  H
  H120     1.0000 0.15340  0.35820  0.72130  Biso   1.000  H
  C161     1.0000 0.10600  0.98600  0.12880  Biso   1.000  C
  C162     1.0000 0.39400  0.01400  0.62880  Biso   1.000  C
  C163     1.0000 0.60600  0.51400  0.87120  Biso   1.000  C
  C164     1.0000 0.89400  0.48600  0.37120  Biso   1.000  C
  H121     1.0000 0.07140  0.94860  0.12590  Biso   1.000  H
  H122     1.0000 0.42860  0.05140  0.62590  Biso   1.000  H
  H123     1.0000 0.57140  0.55140  0.87410  Biso   1.000  H
  H124     1.0000 0.92860  0.44860  0.37410  Biso   1.000  H
  C165     1.0000 0.36200  0.94890  0.84900  Biso   1.000  C
  C166     1.0000 0.13800  0.05110  0.34900  Biso   1.000  C
  C167     1.0000 0.86200  0.55110  0.15100  Biso   1.000  C
  C168     1.0000 0.63800  0.44890  0.65100  Biso   1.000  C
  H125     1.0000 0.39500  0.98060  0.86460  Biso   1.000  H
  H126     1.0000 0.10500  0.01940  0.36460  Biso   1.000  H
  H127     1.0000 0.89500  0.51940  0.13540  Biso   1.000  H
  H128     1.0000 0.60500  0.48060  0.63540  Biso   1.000  H
  C169     1.0000 0.08000  0.13720  0.91590  Biso   1.000  C
  C170     1.0000 0.42000  0.86280  0.41590  Biso   1.000  C
  C171     1.0000 0.58000  0.36280  0.08410  Biso   1.000  C
  C172     1.0000 0.92000  0.63720  0.58410  Biso   1.000  C
  H129     1.0000 0.99610  0.13250  0.93180  Biso   1.000  H
  H130     1.0000 0.50390  0.86750  0.43180  Biso   1.000  H
  H131     1.0000 0.49610  0.36750  0.06820  Biso   1.000  H
  H132     1.0000 0.00390  0.63250  0.56820  Biso   1.000  H
  C173     1.0000 0.09000  0.18180  0.88500  Biso   1.000  C
  C174     1.0000 0.41000  0.81820  0.38500  Biso   1.000  C
  C175     1.0000 0.59000  0.31820  0.11500  Biso   1.000  C
  C176     1.0000 0.91000  0.68180  0.61500  Biso   1.000  C
  H133     1.0000 0.00840  0.20410  0.88030  Biso   1.000  H
  H134     1.0000 0.49160  0.79590  0.38030  Biso   1.000  H
  H135     1.0000 0.50840  0.29590  0.11970  Biso   1.000  H
  H136     1.0000 0.99160  0.70410  0.61970  Biso   1.000  H
  C177     1.0000 0.69600  0.07090  0.84010  Biso   1.000  C
  C178     1.0000 0.80400  0.92910  0.34010  Biso   1.000  C
  C179     1.0000 0.19600  0.42910  0.15990  Biso   1.000  C
  C180     1.0000 0.30400  0.57090  0.65990  Biso   1.000  C
  H137     1.0000 0.59800  0.07560  0.84490  Biso   1.000  H
  H138     1.0000 0.90200  0.92440  0.34490  Biso   1.000  H
  H139     1.0000 0.09800  0.42440  0.15510  Biso   1.000  H
  H140     1.0000 0.40200  0.57560  0.65510  Biso   1.000  H
  C181     1.0000 0.89400  0.88590  0.57340  Biso   1.000  C
  C182     1.0000 0.60600  0.11410  0.07340  Biso   1.000  C
  C183     1.0000 0.39400  0.61410  0.42660  Biso   1.000  C
  C184     1.0000 0.10600  0.38590  0.92660  Biso   1.000  C
  H141     1.0000 0.97480  0.89290  0.55650  Biso   1.000  H
  H142     1.0000 0.52520  0.10710  0.05650  Biso   1.000  H
  H143     1.0000 0.47480  0.60710  0.44350  Biso   1.000  H
  H144     1.0000 0.02520  0.39290  0.94350  Biso   1.000  H
  N33      1.0000 0.88600  0.95080  0.71980  Biso   1.000  N
  N34      1.0000 0.61400  0.04920  0.21980  Biso   1.000  N
  N35      1.0000 0.38600  0.54920  0.28020  Biso   1.000  N
  N36      1.0000 0.11400  0.45080  0.78020  Biso   1.000  N
  C185     1.0000 0.40900  0.77480  0.02110  Biso   1.000  C
  C186     1.0000 0.09100  0.22520  0.52110  Biso   1.000  C
  C187     1.0000 0.90900  0.72520  0.97890  Biso   1.000  C
  C188     1.0000 0.59100  0.27480  0.47890  Biso   1.000  C
  H145     1.0000 0.49090  0.79150  0.00670  Biso   1.000  H
  H146     1.0000 0.00910  0.20850  0.50670  Biso   1.000  H
  H147     1.0000 0.99090  0.70850  0.99330  Biso   1.000  H
  H148     1.0000 0.50910  0.29150  0.49330  Biso   1.000  H
  H149     1.0000 0.41380  0.73360  0.01880  Biso   1.000  H
  H150     1.0000 0.08620  0.26640  0.51880  Biso   1.000  H
  H151     1.0000 0.91380  0.76640  0.98120  Biso   1.000  H
  H152     1.0000 0.58620  0.23360  0.48120  Biso   1.000  H
  H153     1.0000 0.40970  0.78560  0.05130  Biso   1.000  H
  H154     1.0000 0.09030  0.21440  0.55130  Biso   1.000  H
  H155     1.0000 0.90970  0.71440  0.94870  Biso   1.000  H
  H156     1.0000 0.59030  0.28560  0.44870  Biso   1.000  H
  C189     1.0000 0.65600  0.85450  0.61940  Biso   1.000  C
  C190     1.0000 0.84400  0.14550  0.11940  Biso   1.000  C
  C191     1.0000 0.15600  0.64550  0.38060  Biso   1.000  C
  C192     1.0000 0.34400  0.35450  0.88060  Biso   1.000  C
  H157     1.0000 0.57070  0.84290  0.63270  Biso   1.000  H
  H158     1.0000 0.92930  0.15710  0.13270  Biso   1.000  H
  H159     1.0000 0.07070  0.65710  0.36730  Biso   1.000  H
  H160     1.0000 0.42930  0.34290  0.86730  Biso   1.000  H
  C193     1.0000 0.03800  0.94570  0.73560  Biso   1.000  C
  C194     1.0000 0.46200  0.05430  0.23560  Biso   1.000  C
  C195     1.0000 0.53800  0.55430  0.26440  Biso   1.000  C
  C196     1.0000 0.96200  0.44570  0.76440  Biso   1.000  C
  H161     1.0000 0.05350  0.97250  0.75890  Biso   1.000  H
  H162     1.0000 0.44650  0.02750  0.25890  Biso   1.000  H
  H163     1.0000 0.55350  0.52750  0.24110  Biso   1.000  H
  H164     1.0000 0.94650  0.47250  0.74110  Biso   1.000  H
  H165     1.0000 0.10260  0.95420  0.71200  Biso   1.000  H
  H166     1.0000 0.39740  0.04580  0.21200  Biso   1.000  H
  H167     1.0000 0.60260  0.54580  0.28800  Biso   1.000  H
  H168     1.0000 0.89740  0.45420  0.78800  Biso   1.000  H
  H169     1.0000 0.05480  0.90720  0.74580  Biso   1.000  H
  H170     1.0000 0.44520  0.09280  0.24580  Biso   1.000  H
  H171     1.0000 0.55480  0.59280  0.25420  Biso   1.000  H
  H172     1.0000 0.94520  0.40720  0.75420  Biso   1.000  H
  C197     1.0000 0.84700  0.98280  0.67840  Biso   1.000  C
  C198     1.0000 0.65300  0.01720  0.17840  Biso   1.000  C
  C199     1.0000 0.34700  0.51720  0.32160  Biso   1.000  C
  C200     1.0000 0.15300  0.48280  0.82160  Biso   1.000  C
  H173     1.0000 0.78910  0.95840  0.66010  Biso   1.000  H
  H174     1.0000 0.71090  0.04160  0.16010  Biso   1.000  H
  H175     1.0000 0.28910  0.54160  0.33990  Biso   1.000  H
  H176     1.0000 0.21090  0.45840  0.83990  Biso   1.000  H
  H177     1.0000 0.93330  0.99320  0.66310  Biso   1.000  H
  H178     1.0000 0.56670  0.00680  0.16310  Biso   1.000  H
  H179     1.0000 0.43330  0.50680  0.33690  Biso   1.000  H
  H180     1.0000 0.06670  0.49320  0.83690  Biso   1.000  H
  H181     1.0000 0.79390  0.01700  0.68560  Biso   1.000  H
  H182     1.0000 0.70610  0.98300  0.18560  Biso   1.000  H
  H183     1.0000 0.29390  0.48300  0.31440  Biso   1.000  H
  H184     1.0000 0.20610  0.51700  0.81440  Biso   1.000  H
  N37      1.0000 0.71600  0.22030  0.94390  Biso   1.000  N
  N38      1.0000 0.78400  0.77970  0.44390  Biso   1.000  N
  N39      1.0000 0.21600  0.27970  0.05610  Biso   1.000  N
  N40      1.0000 0.28400  0.72030  0.55610  Biso   1.000  N
  O65      1.0000 0.80900  0.30190  0.93880  Biso   1.000  O
  O66      1.0000 0.69100  0.69810  0.43880  Biso   1.000  O
  O67      1.0000 0.30900  0.19810  0.06120  Biso   1.000  O
  O68      1.0000 0.19100  0.80190  0.56120  Biso   1.000  O
  C201     1.0000 0.76400  0.26400  0.96200  Biso   1.000  C
  C202     1.0000 0.73600  0.73600  0.46200  Biso   1.000  C
  C203     1.0000 0.26400  0.23600  0.03800  Biso   1.000  C
  C204     1.0000 0.23600  0.76400  0.53800  Biso   1.000  C
  C205     1.0000 0.66700  0.16700  0.96200  Biso   1.000  C
  C206     1.0000 0.83300  0.83300  0.46200  Biso   1.000  C
  C207     1.0000 0.16700  0.33300  0.03800  Biso   1.000  C
  C208     1.0000 0.33300  0.66700  0.53800  Biso   1.000  C
  H185     1.0000 0.68830  0.16620  0.99260  Biso   1.000  H
  H186     1.0000 0.81170  0.83380  0.49260  Biso   1.000  H
  H187     1.0000 0.18830  0.33380  0.00740  Biso   1.000  H
  H188     1.0000 0.31170  0.66620  0.50740  Biso   1.000  H
  H189     1.0000 0.71400  0.13560  0.94770  Biso   1.000  H
  H190     1.0000 0.78600  0.86440  0.44770  Biso   1.000  H
  H191     1.0000 0.21400  0.36440  0.05230  Biso   1.000  H
  H192     1.0000 0.28600  0.63560  0.55230  Biso   1.000  H
  H193     1.0000 0.56460  0.16380  0.95790  Biso   1.000  H
  H194     1.0000 0.93540  0.83620  0.45790  Biso   1.000  H
  H195     1.0000 0.06460  0.33620  0.04210  Biso   1.000  H
  H196     1.0000 0.43540  0.66380  0.54210  Biso   1.000  H
  C209     1.0000 0.81500  0.25100  0.01370  Biso   1.000  C
  C210     1.0000 0.68500  0.74900  0.51370  Biso   1.000  C
  C211     1.0000 0.31500  0.24900  0.98630  Biso   1.000  C
  C212     1.0000 0.18500  0.75100  0.48630  Biso   1.000  C
  H197     1.0000 0.75300  0.27130  0.03340  Biso   1.000  H
  H198     1.0000 0.74700  0.72870  0.53340  Biso   1.000  H
  H199     1.0000 0.25300  0.22870  0.96660  Biso   1.000  H
  H200     1.0000 0.24700  0.77130  0.46660  Biso   1.000  H
  H201     1.0000 0.91260  0.26400  0.01780  Biso   1.000  H
  H202     1.0000 0.58740  0.73600  0.51780  Biso   1.000  H
  H203     1.0000 0.41260  0.23600  0.98220  Biso   1.000  H
  H204     1.0000 0.08740  0.76400  0.48220  Biso   1.000  H
  H205     1.0000 0.81000  0.21040  0.01950  Biso   1.000  H
  H206     1.0000 0.69000  0.78960  0.51950  Biso   1.000  H
  H207     1.0000 0.31000  0.28960  0.98050  Biso   1.000  H
  H208     1.0000 0.19000  0.71040  0.48050  Biso   1.000  H
  C213     1.0000 0.68100  0.22900  0.89590  Biso   1.000  C
  C214     1.0000 0.81900  0.77100  0.39590  Biso   1.000  C
  C215     1.0000 0.18100  0.27100  0.10410  Biso   1.000  C
  C216     1.0000 0.31900  0.72900  0.60410  Biso   1.000  C
  H209     1.0000 0.60490  0.25670  0.89300  Biso   1.000  H
  H210     1.0000 0.89510  0.74330  0.39300  Biso   1.000  H
  H211     1.0000 0.10490  0.24330  0.10700  Biso   1.000  H
  H212     1.0000 0.39510  0.75670  0.60700  Biso   1.000  H
  H213     1.0000 0.65060  0.19290  0.88340  Biso   1.000  H
  H214     1.0000 0.84940  0.80710  0.38340  Biso   1.000  H
  H215     1.0000 0.15060  0.30710  0.11660  Biso   1.000  H
  H216     1.0000 0.34940  0.69290  0.61660  Biso   1.000  H
  H217     1.0000 0.76480  0.24250  0.88090  Biso   1.000  H
  H218     1.0000 0.73520  0.75750  0.38090  Biso   1.000  H
  H219     1.0000 0.26480  0.25750  0.11910  Biso   1.000  H
  H220     1.0000 0.23520  0.74250  0.61910  Biso   1.000  H
