data_image0
_cell_length_a       9.321
_cell_length_b       22.934
_cell_length_c       31.037
_cell_angle_alpha    90
_cell_angle_beta     90
_cell_angle_gamma    90

_symmetry_space_group_name_H-M    "P 1"
_symmetry_int_tables_number       1

loop_
  _symmetry_equiv_pos_as_xyz
  'x, y, z'

loop_
  _atom_site_label
  _atom_site_occupancy
  _atom_site_fract_x
  _atom_site_fract_y
  _atom_site_fract_z
  _atom_site_thermal_displace_type
  _atom_site_B_iso_or_equiv
  _atom_site_type_symbol
  Sm1      1.0000 0.54015  0.55829  0.48437  Biso   1.000  Sm
  Sm2      1.0000 0.95985  0.44171  0.98437  Biso   1.000  Sm
  Sm3      1.0000 0.04015  0.94171  0.51563  Biso   1.000  Sm
  Sm4      1.0000 0.45985  0.05829  0.01563  Biso   1.000  Sm
  Sm5      1.0000 0.00873  0.52988  0.47763  Biso   1.000  Sm
  Sm6      1.0000 0.49127  0.47012  0.97763  Biso   1.000  Sm
  Sm7      1.0000 0.50873  0.97012  0.52237  Biso   1.000  Sm
  Sm8      1.0000 0.99127  0.02988  0.02237  Biso   1.000  Sm
  I1       1.0000 0.51505  0.24483  0.27097  Biso   1.000  I
  I2       1.0000 0.98495  0.75517  0.77097  Biso   1.000  I
  I3       1.0000 0.01505  0.25517  0.72903  Biso   1.000  I
  I4       1.0000 0.48495  0.74483  0.22903  Biso   1.000  I
  I5       1.0000 0.20991  0.39416  0.24612  Biso   1.000  I
  I6       1.0000 0.29009  0.60584  0.74612  Biso   1.000  I
  I7       1.0000 0.70991  0.10584  0.75388  Biso   1.000  I
  I8       1.0000 0.79009  0.89416  0.25388  Biso   1.000  I
  I9       1.0000 0.02542  0.22912  0.28294  Biso   1.000  I
  I10      1.0000 0.47458  0.77088  0.78294  Biso   1.000  I
  I11      1.0000 0.52542  0.27088  0.71706  Biso   1.000  I
  I12      1.0000 0.97458  0.72912  0.21706  Biso   1.000  I
  Cu1      1.0000 0.28362  0.23400  0.31934  Biso   1.000  Cu
  Cu2      1.0000 0.21638  0.76600  0.81934  Biso   1.000  Cu
  Cu3      1.0000 0.78362  0.26600  0.68066  Biso   1.000  Cu
  Cu4      1.0000 0.71638  0.73400  0.18066  Biso   1.000  Cu
  Cu5      1.0000 0.48966  0.35964  0.24853  Biso   1.000  Cu
  Cu6      1.0000 0.01034  0.64036  0.74853  Biso   1.000  Cu
  Cu7      1.0000 0.98966  0.14036  0.75147  Biso   1.000  Cu
  Cu8      1.0000 0.51034  0.85964  0.25147  Biso   1.000  Cu
  Cu9      1.0000 0.95569  0.11693  0.27564  Biso   1.000  Cu
  Cu10     1.0000 0.54431  0.88307  0.77564  Biso   1.000  Cu
  Cu11     1.0000 0.45569  0.38307  0.72436  Biso   1.000  Cu
  Cu12     1.0000 0.04431  0.61693  0.22436  Biso   1.000  Cu
  Cu13     1.0000 0.25642  0.28313  0.23984  Biso   1.000  Cu
  Cu14     1.0000 0.24358  0.71687  0.73984  Biso   1.000  Cu
  Cu15     1.0000 0.75642  0.21687  0.76016  Biso   1.000  Cu
  Cu16     1.0000 0.74358  0.78313  0.26016  Biso   1.000  Cu
  O1       1.0000 0.92550  0.61530  0.44050  Biso   1.000  O
  O2       1.0000 0.57450  0.38470  0.94050  Biso   1.000  O
  O3       1.0000 0.42550  0.88470  0.55950  Biso   1.000  O
  O4       1.0000 0.07450  0.11530  0.05950  Biso   1.000  O
  O5       1.0000 0.69470  0.63390  0.45730  Biso   1.000  O
  O6       1.0000 0.80530  0.36610  0.95730  Biso   1.000  O
  O7       1.0000 0.19470  0.86610  0.54270  Biso   1.000  O
  O8       1.0000 0.30530  0.13390  0.04270  Biso   1.000  O
  N1       1.0000 0.29790  0.30750  0.35640  Biso   1.000  N
  N2       1.0000 0.20210  0.69250  0.85640  Biso   1.000  N
  N3       1.0000 0.79790  0.19250  0.64360  Biso   1.000  N
  N4       1.0000 0.70210  0.80750  0.14360  Biso   1.000  N
  O9       1.0000 0.41760  0.47100  0.45800  Biso   1.000  O
  O10      1.0000 0.08240  0.52900  0.95800  Biso   1.000  O
  O11      1.0000 0.91760  0.02900  0.54200  Biso   1.000  O
  O12      1.0000 0.58240  0.97100  0.04200  Biso   1.000  O
  O13      1.0000 0.20890  0.57040  0.44120  Biso   1.000  O
  O14      1.0000 0.29110  0.42960  0.94120  Biso   1.000  O
  O15      1.0000 0.70890  0.92960  0.55880  Biso   1.000  O
  O16      1.0000 0.79110  0.07040  0.05880  Biso   1.000  O
  O17      1.0000 0.14740  0.02320  0.47830  Biso   1.000  O
  O18      1.0000 0.35260  0.97680  0.97830  Biso   1.000  O
  O19      1.0000 0.64740  0.47680  0.52170  Biso   1.000  O
  O20      1.0000 0.85260  0.52320  0.02170  Biso   1.000  O
  N5       1.0000 0.12710  0.60620  0.28350  Biso   1.000  N
  N6       1.0000 0.37290  0.39380  0.78350  Biso   1.000  N
  N7       1.0000 0.62710  0.89380  0.71650  Biso   1.000  N
  N8       1.0000 0.87290  0.10620  0.21650  Biso   1.000  N
  C1       1.0000 0.30180  0.44560  0.44990  Biso   1.000  C
  C2       1.0000 0.19820  0.55440  0.94990  Biso   1.000  C
  C3       1.0000 0.80180  0.05440  0.55010  Biso   1.000  C
  C4       1.0000 0.69820  0.94560  0.05010  Biso   1.000  C
  O21      1.0000 0.42960  0.58800  0.41600  Biso   1.000  O
  O22      1.0000 0.07040  0.41200  0.91600  Biso   1.000  O
  O23      1.0000 0.92960  0.91200  0.58400  Biso   1.000  O
  O24      1.0000 0.57040  0.08800  0.08400  Biso   1.000  O
  C5       1.0000 0.80350  0.63900  0.43430  Biso   1.000  C
  C6       1.0000 0.69650  0.36100  0.93430  Biso   1.000  C
  C7       1.0000 0.30350  0.86100  0.56570  Biso   1.000  C
  C8       1.0000 0.19650  0.13900  0.06570  Biso   1.000  C
  O25      1.0000 0.70880  0.51810  0.43180  Biso   1.000  O
  O26      1.0000 0.79120  0.48190  0.93180  Biso   1.000  O
  O27      1.0000 0.20880  0.98190  0.56820  Biso   1.000  O
  O28      1.0000 0.29120  0.01810  0.06820  Biso   1.000  O
  O29      1.0000 0.41980  0.65220  0.49670  Biso   1.000  O
  O30      1.0000 0.08020  0.34780  0.99670  Biso   1.000  O
  O31      1.0000 0.91980  0.84780  0.50330  Biso   1.000  O
  O32      1.0000 0.58020  0.15220  0.00330  Biso   1.000  O
  N9       1.0000 0.76460  0.74640  0.32000  Biso   1.000  N
  N10      1.0000 0.73540  0.25360  0.82000  Biso   1.000  N
  N11      1.0000 0.26460  0.75360  0.68000  Biso   1.000  N
  N12      1.0000 0.23540  0.24640  0.18000  Biso   1.000  N
  N13      1.0000 0.28410  0.17110  0.36630  Biso   1.000  N
  N14      1.0000 0.21590  0.82890  0.86630  Biso   1.000  N
  N15      1.0000 0.78410  0.32890  0.63370  Biso   1.000  N
  N16      1.0000 0.71590  0.67110  0.13370  Biso   1.000  N
  C9       1.0000 0.14380  0.55140  0.34800  Biso   1.000  C
  C10      1.0000 0.35620  0.44860  0.84800  Biso   1.000  C
  C11      1.0000 0.64380  0.94860  0.65200  Biso   1.000  C
  C12      1.0000 0.85620  0.05140  0.15200  Biso   1.000  C
  H1       1.0000 0.11440  0.51910  0.36380  Biso   1.000  H
  H2       1.0000 0.38560  0.48090  0.86380  Biso   1.000  H
  H3       1.0000 0.61440  0.98090  0.63620  Biso   1.000  H
  H4       1.0000 0.88560  0.01910  0.13620  Biso   1.000  H
  C13      1.0000 0.91040  0.69300  0.37050  Biso   1.000  C
  C14      1.0000 0.58960  0.30700  0.87050  Biso   1.000  C
  C15      1.0000 0.41040  0.80700  0.62950  Biso   1.000  C
  C16      1.0000 0.08960  0.19300  0.12950  Biso   1.000  C
  H5       1.0000 0.00140  0.68020  0.37830  Biso   1.000  H
  H6       1.0000 0.49860  0.31980  0.87830  Biso   1.000  H
  H7       1.0000 0.50140  0.81980  0.62170  Biso   1.000  H
  H8       1.0000 0.99860  0.18020  0.12170  Biso   1.000  H
  O33      1.0000 0.85350  0.40230  0.05080  Biso   1.000  O
  O34      1.0000 0.64650  0.59770  0.55080  Biso   1.000  O
  O35      1.0000 0.35350  0.09770  0.94920  Biso   1.000  O
  O36      1.0000 0.14650  0.90230  0.44920  Biso   1.000  O
  C17      1.0000 0.52700  0.39860  0.11350  Biso   1.000  C
  C18      1.0000 0.97300  0.60140  0.61350  Biso   1.000  C
  C19      1.0000 0.02700  0.10140  0.88650  Biso   1.000  C
  C20      1.0000 0.47300  0.89860  0.38650  Biso   1.000  C
  H9       1.0000 0.46460  0.41500  0.09350  Biso   1.000  H
  H10      1.0000 0.03540  0.58500  0.59350  Biso   1.000  H
  H11      1.0000 0.96460  0.08500  0.90650  Biso   1.000  H
  H12      1.0000 0.53540  0.91500  0.40650  Biso   1.000  H
  N17      1.0000 0.38210  0.42530  0.67180  Biso   1.000  N
  N18      1.0000 0.11790  0.57470  0.17180  Biso   1.000  N
  N19      1.0000 0.88210  0.07470  0.32820  Biso   1.000  N
  N20      1.0000 0.61790  0.92530  0.82820  Biso   1.000  N
  N21      1.0000 0.56520  0.36420  0.18590  Biso   1.000  N
  N22      1.0000 0.93480  0.63580  0.68590  Biso   1.000  N
  N23      1.0000 0.06520  0.13580  0.81410  Biso   1.000  N
  N24      1.0000 0.43480  0.86420  0.31410  Biso   1.000  N
  C21      1.0000 0.51950  0.44460  0.32060  Biso   1.000  C
  C22      1.0000 0.98050  0.55540  0.82060  Biso   1.000  C
  C23      1.0000 0.01950  0.05540  0.67940  Biso   1.000  C
  C24      1.0000 0.48050  0.94460  0.17940  Biso   1.000  C
  H13      1.0000 0.42380  0.45170  0.31400  Biso   1.000  H
  H14      1.0000 0.07620  0.54830  0.81400  Biso   1.000  H
  H15      1.0000 0.92380  0.04830  0.68600  Biso   1.000  H
  H16      1.0000 0.57620  0.95170  0.18600  Biso   1.000  H
  O37      1.0000 0.15330  0.06120  0.27020  Biso   1.000  O
  O38      1.0000 0.34670  0.93880  0.77020  Biso   1.000  O
  O39      1.0000 0.65330  0.43880  0.72980  Biso   1.000  O
  O40      1.0000 0.84670  0.56120  0.22980  Biso   1.000  O
  C25      1.0000 0.23790  0.59010  0.36620  Biso   1.000  C
  C26      1.0000 0.26210  0.40990  0.86620  Biso   1.000  C
  C27      1.0000 0.73790  0.90990  0.63380  Biso   1.000  C
  C28      1.0000 0.76210  0.09010  0.13380  Biso   1.000  C
  C29      1.0000 0.26090  0.05270  0.47430  Biso   1.000  C
  C30      1.0000 0.23910  0.94730  0.97430  Biso   1.000  C
  C31      1.0000 0.76090  0.44730  0.52570  Biso   1.000  C
  C32      1.0000 0.73910  0.55270  0.02570  Biso   1.000  C
  C33      1.0000 0.57630  0.47310  0.35540  Biso   1.000  C
  C34      1.0000 0.92370  0.52690  0.85540  Biso   1.000  C
  C35      1.0000 0.07630  0.02690  0.64460  Biso   1.000  C
  C36      1.0000 0.42370  0.97310  0.14460  Biso   1.000  C
  H17      1.0000 0.51990  0.49820  0.37170  Biso   1.000  H
  H18      1.0000 0.98010  0.50180  0.87170  Biso   1.000  H
  H19      1.0000 0.01990  0.00180  0.62830  Biso   1.000  H
  H20      1.0000 0.48010  0.99820  0.12830  Biso   1.000  H
  C37      1.0000 0.31940  0.67320  0.51850  Biso   1.000  C
  C38      1.0000 0.18060  0.32680  0.01850  Biso   1.000  C
  C39      1.0000 0.81940  0.82680  0.48150  Biso   1.000  C
  C40      1.0000 0.68060  0.17320  0.98150  Biso   1.000  C
  O41      1.0000 0.62950  0.42050  0.03100  Biso   1.000  O
  O42      1.0000 0.87050  0.57950  0.53100  Biso   1.000  O
  O43      1.0000 0.12950  0.07950  0.96900  Biso   1.000  O
  O44      1.0000 0.37050  0.92050  0.46900  Biso   1.000  O
  C41      1.0000 0.72080  0.40570  0.05760  Biso   1.000  C
  C42      1.0000 0.77920  0.59430  0.55760  Biso   1.000  C
  C43      1.0000 0.22080  0.09430  0.94240  Biso   1.000  C
  C44      1.0000 0.27920  0.90570  0.44240  Biso   1.000  C
  C45      1.0000 0.15000  0.10520  0.41190  Biso   1.000  C
  C46      1.0000 0.35000  0.89480  0.91190  Biso   1.000  C
  C47      1.0000 0.65000  0.39480  0.58810  Biso   1.000  C
  C48      1.0000 0.85000  0.60520  0.08810  Biso   1.000  C
  H21      1.0000 0.06250  0.08750  0.41790  Biso   1.000  H
  H22      1.0000 0.43750  0.91250  0.91790  Biso   1.000  H
  H23      1.0000 0.56250  0.41250  0.58210  Biso   1.000  H
  H24      1.0000 0.93750  0.58750  0.08210  Biso   1.000  H
  C49      1.0000 0.26420  0.51660  0.55570  Biso   1.000  C
  C50      1.0000 0.23580  0.48340  0.05570  Biso   1.000  C
  C51      1.0000 0.76420  0.98340  0.44430  Biso   1.000  C
  C52      1.0000 0.73580  0.01660  0.94430  Biso   1.000  C
  C53      1.0000 0.18140  0.38570  0.39350  Biso   1.000  C
  C54      1.0000 0.31860  0.61430  0.89350  Biso   1.000  C
  C55      1.0000 0.68140  0.11430  0.60650  Biso   1.000  C
  C56      1.0000 0.81860  0.88570  0.10650  Biso   1.000  C
  H25      1.0000 0.09810  0.40720  0.39800  Biso   1.000  H
  H26      1.0000 0.40190  0.59280  0.89800  Biso   1.000  H
  H27      1.0000 0.59810  0.09280  0.60200  Biso   1.000  H
  H28      1.0000 0.90190  0.90720  0.10200  Biso   1.000  H
  C57      1.0000 0.26600  0.09500  0.43730  Biso   1.000  C
  C58      1.0000 0.23400  0.90500  0.93730  Biso   1.000  C
  C59      1.0000 0.76600  0.40500  0.56270  Biso   1.000  C
  C60      1.0000 0.73400  0.59500  0.06270  Biso   1.000  C
  C61      1.0000 0.29630  0.58260  0.41090  Biso   1.000  C
  C62      1.0000 0.20370  0.41740  0.91090  Biso   1.000  C
  C63      1.0000 0.79630  0.91740  0.58910  Biso   1.000  C
  C64      1.0000 0.70370  0.08260  0.08910  Biso   1.000  C
  O45      1.0000 0.37130  0.04700  0.49640  Biso   1.000  O
  O46      1.0000 0.12870  0.95300  0.99640  Biso   1.000  O
  O47      1.0000 0.87130  0.45300  0.50360  Biso   1.000  O
  O48      1.0000 0.62870  0.54700  0.00360  Biso   1.000  O
  O49      1.0000 0.13500  0.51700  0.54510  Biso   1.000  O
  O50      1.0000 0.36500  0.48300  0.04510  Biso   1.000  O
  O51      1.0000 0.63500  0.98300  0.45490  Biso   1.000  O
  O52      1.0000 0.86500  0.01700  0.95490  Biso   1.000  O
  C65      1.0000 0.78410  0.49090  0.40550  Biso   1.000  C
  C66      1.0000 0.71590  0.50910  0.90550  Biso   1.000  C
  C67      1.0000 0.28410  0.00910  0.59450  Biso   1.000  C
  C68      1.0000 0.21590  0.99090  0.09450  Biso   1.000  C
  N25      1.0000 0.59010  0.40780  0.29580  Biso   1.000  N
  N26      1.0000 0.90990  0.59220  0.79580  Biso   1.000  N
  N27      1.0000 0.09010  0.09220  0.70420  Biso   1.000  N
  N28      1.0000 0.40990  0.90780  0.20420  Biso   1.000  N
  O53      1.0000 0.36340  0.54110  0.53710  Biso   1.000  O
  O54      1.0000 0.13660  0.45890  0.03710  Biso   1.000  O
  O55      1.0000 0.86340  0.95890  0.46290  Biso   1.000  O
  O56      1.0000 0.63660  0.04110  0.96290  Biso   1.000  O
  O57      1.0000 0.91950  0.48460  0.41100  Biso   1.000  O
  O58      1.0000 0.58050  0.51540  0.91100  Biso   1.000  O
  O59      1.0000 0.41950  0.01540  0.58900  Biso   1.000  O
  O60      1.0000 0.08050  0.98460  0.08900  Biso   1.000  O
  C69      1.0000 0.42450  0.36470  0.40840  Biso   1.000  C
  C70      1.0000 0.07550  0.63530  0.90840  Biso   1.000  C
  C71      1.0000 0.92450  0.13530  0.59160  Biso   1.000  C
  C72      1.0000 0.57550  0.86470  0.09160  Biso   1.000  C
  H29      1.0000 0.51020  0.37270  0.42250  Biso   1.000  H
  H30      1.0000 0.98980  0.62730  0.92250  Biso   1.000  H
  H31      1.0000 0.01020  0.12730  0.57750  Biso   1.000  H
  H32      1.0000 0.48980  0.87270  0.07750  Biso   1.000  H
  C73      1.0000 0.79100  0.67690  0.39420  Biso   1.000  C
  C74      1.0000 0.70900  0.32310  0.89420  Biso   1.000  C
  C75      1.0000 0.29100  0.82310  0.60580  Biso   1.000  C
  C76      1.0000 0.20900  0.17690  0.10580  Biso   1.000  C
  O61      1.0000 0.18020  0.45560  0.46650  Biso   1.000  O
  O62      1.0000 0.31980  0.54440  0.96650  Biso   1.000  O
  O63      1.0000 0.68020  0.04440  0.53350  Biso   1.000  O
  O64      1.0000 0.81980  0.95560  0.03350  Biso   1.000  O
  C77      1.0000 0.30390  0.39810  0.41710  Biso   1.000  C
  C78      1.0000 0.19610  0.60190  0.91710  Biso   1.000  C
  C79      1.0000 0.80390  0.10190  0.58290  Biso   1.000  C
  C80      1.0000 0.69610  0.89810  0.08290  Biso   1.000  C
  C81      1.0000 0.72220  0.46380  0.36620  Biso   1.000  C
  C82      1.0000 0.77780  0.53620  0.86620  Biso   1.000  C
  C83      1.0000 0.22220  0.03620  0.63380  Biso   1.000  C
  C84      1.0000 0.27780  0.96380  0.13380  Biso   1.000  C
  C85      1.0000 0.09180  0.55930  0.30690  Biso   1.000  C
  C86      1.0000 0.40820  0.44070  0.80690  Biso   1.000  C
  C87      1.0000 0.59180  0.94070  0.69310  Biso   1.000  C
  C88      1.0000 0.90820  0.05930  0.19310  Biso   1.000  C
  H33      1.0000 0.03080  0.53140  0.29510  Biso   1.000  H
  H34      1.0000 0.46920  0.46860  0.79510  Biso   1.000  H
  H35      1.0000 0.53080  0.96860  0.70490  Biso   1.000  H
  H36      1.0000 0.96920  0.03140  0.20490  Biso   1.000  H
  C89      1.0000 0.30160  0.48430  0.59720  Biso   1.000  C
  C90      1.0000 0.19840  0.51570  0.09720  Biso   1.000  C
  C91      1.0000 0.80160  0.01570  0.40280  Biso   1.000  C
  C92      1.0000 0.69840  0.98430  0.90280  Biso   1.000  C
  C93      1.0000 0.47890  0.38520  0.15480  Biso   1.000  C
  C94      1.0000 0.02110  0.61480  0.65480  Biso   1.000  C
  C95      1.0000 0.97890  0.11480  0.84520  Biso   1.000  C
  C96      1.0000 0.52110  0.88520  0.34520  Biso   1.000  C
  H37      1.0000 0.38260  0.39110  0.16120  Biso   1.000  H
  H38      1.0000 0.11740  0.60890  0.66120  Biso   1.000  H
  H39      1.0000 0.88260  0.10890  0.83880  Biso   1.000  H
  H40      1.0000 0.61740  0.89110  0.33880  Biso   1.000  H
  C97      1.0000 0.39570  0.16220  0.39320  Biso   1.000  C
  C98      1.0000 0.10430  0.83780  0.89320  Biso   1.000  C
  C99      1.0000 0.89570  0.33780  0.60680  Biso   1.000  C
  C100     1.0000 0.60430  0.66220  0.10680  Biso   1.000  C
  H41      1.0000 0.48100  0.18140  0.38690  Biso   1.000  H
  H42      1.0000 0.01900  0.81860  0.88690  Biso   1.000  H
  H43      1.0000 0.98100  0.31860  0.61310  Biso   1.000  H
  H44      1.0000 0.51900  0.68140  0.11310  Biso   1.000  H
  C101     1.0000 0.89180  0.72820  0.33550  Biso   1.000  C
  C102     1.0000 0.60820  0.27180  0.83550  Biso   1.000  C
  C103     1.0000 0.39180  0.77180  0.66450  Biso   1.000  C
  C104     1.0000 0.10820  0.22820  0.16450  Biso   1.000  C
  H45      1.0000 0.97390  0.74070  0.32110  Biso   1.000  H
  H46      1.0000 0.52610  0.25930  0.82110  Biso   1.000  H
  H47      1.0000 0.47390  0.75930  0.67890  Biso   1.000  H
  H48      1.0000 0.02610  0.24070  0.17890  Biso   1.000  H
  C105     1.0000 0.27850  0.63730  0.34100  Biso   1.000  C
  C106     1.0000 0.22150  0.36270  0.84100  Biso   1.000  C
  C107     1.0000 0.77850  0.86270  0.65900  Biso   1.000  C
  C108     1.0000 0.72150  0.13730  0.15900  Biso   1.000  C
  H49      1.0000 0.34570  0.66380  0.35130  Biso   1.000  H
  H50      1.0000 0.15430  0.33620  0.85130  Biso   1.000  H
  H51      1.0000 0.84570  0.83620  0.64870  Biso   1.000  H
  H52      1.0000 0.65430  0.16380  0.14870  Biso   1.000  H
  C109     1.0000 0.65830  0.69620  0.38110  Biso   1.000  C
  C110     1.0000 0.84170  0.30380  0.88110  Biso   1.000  C
  C111     1.0000 0.15830  0.80380  0.61890  Biso   1.000  C
  C112     1.0000 0.34170  0.19620  0.11890  Biso   1.000  C
  H53      1.0000 0.57680  0.68700  0.39690  Biso   1.000  H
  H54      1.0000 0.92320  0.31300  0.89690  Biso   1.000  H
  H55      1.0000 0.07680  0.81300  0.60310  Biso   1.000  H
  H56      1.0000 0.42320  0.18700  0.10310  Biso   1.000  H
  N29      1.0000 0.21420  0.70330  0.50050  Biso   1.000  N
  N30      1.0000 0.28580  0.29670  0.00050  Biso   1.000  N
  N31      1.0000 0.71420  0.79670  0.49950  Biso   1.000  N
  N32      1.0000 0.78580  0.20330  0.99950  Biso   1.000  N
  C113     1.0000 0.64720  0.73010  0.34340  Biso   1.000  C
  C114     1.0000 0.85280  0.26990  0.84340  Biso   1.000  C
  C115     1.0000 0.14720  0.76990  0.65660  Biso   1.000  C
  C116     1.0000 0.35280  0.23010  0.15660  Biso   1.000  C
  H57      1.0000 0.55680  0.74180  0.33410  Biso   1.000  H
  H58      1.0000 0.94320  0.25820  0.83410  Biso   1.000  H
  H59      1.0000 0.05680  0.75820  0.66590  Biso   1.000  H
  H60      1.0000 0.44320  0.24180  0.16590  Biso   1.000  H
  C117     1.0000 0.75400  0.36370  0.13230  Biso   1.000  C
  C118     1.0000 0.74600  0.63630  0.63230  Biso   1.000  C
  C119     1.0000 0.25400  0.13630  0.86770  Biso   1.000  C
  C120     1.0000 0.24600  0.86370  0.36770  Biso   1.000  C
  H61      1.0000 0.84880  0.35510  0.12540  Biso   1.000  H
  H62      1.0000 0.65120  0.64490  0.62540  Biso   1.000  H
  H63      1.0000 0.34880  0.14490  0.87460  Biso   1.000  H
  H64      1.0000 0.15120  0.85510  0.37460  Biso   1.000  H
  C121     1.0000 0.18270  0.34150  0.36330  Biso   1.000  C
  C122     1.0000 0.31730  0.65850  0.86330  Biso   1.000  C
  C123     1.0000 0.68270  0.15850  0.63670  Biso   1.000  C
  C124     1.0000 0.81730  0.84150  0.13670  Biso   1.000  C
  H65      1.0000 0.10050  0.33500  0.34710  Biso   1.000  H
  H66      1.0000 0.39950  0.66500  0.84710  Biso   1.000  H
  H67      1.0000 0.60050  0.16500  0.65290  Biso   1.000  H
  H68      1.0000 0.89950  0.83500  0.15290  Biso   1.000  H
  C125     1.0000 0.79920  0.42720  0.33850  Biso   1.000  C
  C126     1.0000 0.70080  0.57280  0.83850  Biso   1.000  C
  C127     1.0000 0.29920  0.07280  0.66150  Biso   1.000  C
  C128     1.0000 0.20080  0.92720  0.16150  Biso   1.000  C
  H69      1.0000 0.89720  0.42210  0.34260  Biso   1.000  H
  H70      1.0000 0.60280  0.57790  0.84260  Biso   1.000  H
  H71      1.0000 0.39720  0.07790  0.65740  Biso   1.000  H
  H72      1.0000 0.10280  0.92210  0.15740  Biso   1.000  H
  C129     1.0000 0.16350  0.14220  0.37690  Biso   1.000  C
  C130     1.0000 0.33650  0.85780  0.87690  Biso   1.000  C
  C131     1.0000 0.66350  0.35780  0.62310  Biso   1.000  C
  C132     1.0000 0.83650  0.64220  0.12310  Biso   1.000  C
  H73      1.0000 0.08350  0.14750  0.35940  Biso   1.000  H
  H74      1.0000 0.41650  0.85250  0.85940  Biso   1.000  H
  H75      1.0000 0.58350  0.35250  0.64060  Biso   1.000  H
  H76      1.0000 0.91650  0.64750  0.14060  Biso   1.000  H
  C133     1.0000 0.29310  0.40250  0.64430  Biso   1.000  C
  C134     1.0000 0.20690  0.59750  0.14430  Biso   1.000  C
  C135     1.0000 0.79310  0.09750  0.35570  Biso   1.000  C
  C136     1.0000 0.70690  0.90250  0.85570  Biso   1.000  C
  H77      1.0000 0.25740  0.36540  0.64990  Biso   1.000  H
  H78      1.0000 0.24260  0.63460  0.14990  Biso   1.000  H
  H79      1.0000 0.75740  0.13460  0.35010  Biso   1.000  H
  H80      1.0000 0.74260  0.86540  0.85010  Biso   1.000  H
  C137     1.0000 0.73190  0.39880  0.30540  Biso   1.000  C
  C138     1.0000 0.76810  0.60120  0.80540  Biso   1.000  C
  C139     1.0000 0.23190  0.10120  0.69460  Biso   1.000  C
  C140     1.0000 0.26810  0.89880  0.19460  Biso   1.000  C
  H81      1.0000 0.78420  0.37250  0.28880  Biso   1.000  H
  H82      1.0000 0.71580  0.62750  0.78880  Biso   1.000  H
  H83      1.0000 0.28420  0.12750  0.71120  Biso   1.000  H
  H84      1.0000 0.21580  0.87250  0.21120  Biso   1.000  H
  C141     1.0000 0.41840  0.32090  0.37970  Biso   1.000  C
  C142     1.0000 0.08160  0.67910  0.87970  Biso   1.000  C
  C143     1.0000 0.91840  0.17910  0.62030  Biso   1.000  C
  C144     1.0000 0.58160  0.82090  0.12030  Biso   1.000  C
  H85      1.0000 0.50030  0.29850  0.37540  Biso   1.000  H
  H86      1.0000 0.99970  0.70150  0.87540  Biso   1.000  H
  H87      1.0000 0.00030  0.20150  0.62460  Biso   1.000  H
  H88      1.0000 0.49970  0.79850  0.12460  Biso   1.000  H
  C145     1.0000 0.66610  0.38740  0.10250  Biso   1.000  C
  C146     1.0000 0.83390  0.61260  0.60250  Biso   1.000  C
  C147     1.0000 0.16610  0.11260  0.89750  Biso   1.000  C
  C148     1.0000 0.33390  0.88740  0.39750  Biso   1.000  C
  C149     1.0000 0.32450  0.66590  0.56740  Biso   1.000  C
  C150     1.0000 0.17550  0.33410  0.06740  Biso   1.000  C
  C151     1.0000 0.82450  0.83410  0.43260  Biso   1.000  C
  C152     1.0000 0.67550  0.16590  0.93260  Biso   1.000  C
  H89      1.0000 0.27450  0.63090  0.57540  Biso   1.000  H
  H90      1.0000 0.22550  0.36910  0.07540  Biso   1.000  H
  H91      1.0000 0.77450  0.86910  0.42460  Biso   1.000  H
  H92      1.0000 0.72550  0.13090  0.92460  Biso   1.000  H
  H93      1.0000 0.27950  0.69880  0.58090  Biso   1.000  H
  H94      1.0000 0.22050  0.30120  0.08090  Biso   1.000  H
  H95      1.0000 0.77950  0.80120  0.41910  Biso   1.000  H
  H96      1.0000 0.72050  0.19880  0.91910  Biso   1.000  H
  H97      1.0000 0.42250  0.66330  0.57670  Biso   1.000  H
  H98      1.0000 0.07750  0.33670  0.07670  Biso   1.000  H
  H99      1.0000 0.92250  0.83670  0.42330  Biso   1.000  H
  H100     1.0000 0.57750  0.16330  0.92330  Biso   1.000  H
  C153     1.0000 0.70130  0.35190  0.17410  Biso   1.000  C
  C154     1.0000 0.79870  0.64810  0.67410  Biso   1.000  C
  C155     1.0000 0.20130  0.14810  0.82590  Biso   1.000  C
  C156     1.0000 0.29870  0.85190  0.32590  Biso   1.000  C
  H101     1.0000 0.76250  0.33520  0.19430  Biso   1.000  H
  H102     1.0000 0.73750  0.66480  0.69430  Biso   1.000  H
  H103     1.0000 0.26250  0.16480  0.80570  Biso   1.000  H
  H104     1.0000 0.23750  0.83520  0.30570  Biso   1.000  H
  C157     1.0000 0.21970  0.64480  0.30100  Biso   1.000  C
  C158     1.0000 0.28030  0.35520  0.80100  Biso   1.000  C
  C159     1.0000 0.71970  0.85520  0.69900  Biso   1.000  C
  C160     1.0000 0.78030  0.14480  0.19900  Biso   1.000  C
  H105     1.0000 0.24460  0.67780  0.28530  Biso   1.000  H
  H106     1.0000 0.25540  0.32220  0.78530  Biso   1.000  H
  H107     1.0000 0.74460  0.82220  0.71470  Biso   1.000  H
  H108     1.0000 0.75540  0.17780  0.21470  Biso   1.000  H
  C161     1.0000 0.29980  0.10380  0.21370  Biso   1.000  C
  C162     1.0000 0.20020  0.89620  0.71370  Biso   1.000  C
  C163     1.0000 0.79980  0.39620  0.78630  Biso   1.000  C
  C164     1.0000 0.70020  0.60380  0.28630  Biso   1.000  C
  H109     1.0000 0.20790  0.11260  0.20130  Biso   1.000  H
  H110     1.0000 0.29210  0.88740  0.70130  Biso   1.000  H
  H111     1.0000 0.70790  0.38740  0.79870  Biso   1.000  H
  H112     1.0000 0.79210  0.61260  0.29870  Biso   1.000  H
  H113     1.0000 0.35380  0.08010  0.19400  Biso   1.000  H
  H114     1.0000 0.14620  0.91990  0.69400  Biso   1.000  H
  H115     1.0000 0.85380  0.41990  0.80600  Biso   1.000  H
  H116     1.0000 0.64620  0.58010  0.30600  Biso   1.000  H
  H117     1.0000 0.35080  0.13940  0.21910  Biso   1.000  H
  H118     1.0000 0.14920  0.86060  0.71910  Biso   1.000  H
  H119     1.0000 0.85080  0.36060  0.78090  Biso   1.000  H
  H120     1.0000 0.64920  0.63940  0.28090  Biso   1.000  H
  C165     1.0000 0.43240  0.47830  0.66160  Biso   1.000  C
  C166     1.0000 0.06760  0.52170  0.16160  Biso   1.000  C
  C167     1.0000 0.93240  0.02170  0.33840  Biso   1.000  C
  C168     1.0000 0.56760  0.97830  0.83840  Biso   1.000  C
  H121     1.0000 0.49630  0.49530  0.68090  Biso   1.000  H
  H122     1.0000 0.00370  0.50470  0.18090  Biso   1.000  H
  H123     1.0000 0.99630  0.00470  0.31910  Biso   1.000  H
  H124     1.0000 0.50370  0.99530  0.81910  Biso   1.000  H
  N33      1.0000 0.39130  0.05240  0.27710  Biso   1.000  N
  N34      1.0000 0.10870  0.94760  0.77710  Biso   1.000  N
  N35      1.0000 0.89130  0.44760  0.72290  Biso   1.000  N
  N36      1.0000 0.60870  0.55240  0.22290  Biso   1.000  N
  C169     1.0000 0.21960  0.71740  0.45640  Biso   1.000  C
  C170     1.0000 0.28040  0.28260  0.95640  Biso   1.000  C
  C171     1.0000 0.71960  0.78260  0.54360  Biso   1.000  C
  C172     1.0000 0.78040  0.21740  0.04360  Biso   1.000  C
  H125     1.0000 0.31630  0.71330  0.44620  Biso   1.000  H
  H126     1.0000 0.18370  0.28670  0.94620  Biso   1.000  H
  H127     1.0000 0.81630  0.78670  0.55380  Biso   1.000  H
  H128     1.0000 0.68370  0.21330  0.05380  Biso   1.000  H
  H129     1.0000 0.18830  0.75690  0.45230  Biso   1.000  H
  H130     1.0000 0.31170  0.24310  0.95230  Biso   1.000  H
  H131     1.0000 0.68830  0.74310  0.54770  Biso   1.000  H
  H132     1.0000 0.81170  0.25690  0.04770  Biso   1.000  H
  H133     1.0000 0.15790  0.69150  0.44060  Biso   1.000  H
  H134     1.0000 0.34210  0.30850  0.94060  Biso   1.000  H
  H135     1.0000 0.65790  0.80850  0.55940  Biso   1.000  H
  H136     1.0000 0.84210  0.19150  0.05940  Biso   1.000  H
  C173     1.0000 0.39910  0.50940  0.62600  Biso   1.000  C
  C174     1.0000 0.10090  0.49060  0.12600  Biso   1.000  C
  C175     1.0000 0.89910  0.99060  0.37400  Biso   1.000  C
  C176     1.0000 0.60090  0.00940  0.87400  Biso   1.000  C
  H137     1.0000 0.43930  0.54590  0.62090  Biso   1.000  H
  H138     1.0000 0.06070  0.45410  0.12090  Biso   1.000  H
  H139     1.0000 0.93930  0.95410  0.37910  Biso   1.000  H
  H140     1.0000 0.56070  0.04590  0.87910  Biso   1.000  H
  C177     1.0000 0.08570  0.72100  0.52520  Biso   1.000  C
  C178     1.0000 0.41430  0.27900  0.02520  Biso   1.000  C
  C179     1.0000 0.58570  0.77900  0.47480  Biso   1.000  C
  C180     1.0000 0.91430  0.22100  0.97480  Biso   1.000  C
  H141     1.0000 0.08160  0.69940  0.55160  Biso   1.000  H
  H142     1.0000 0.41840  0.30060  0.05160  Biso   1.000  H
  H143     1.0000 0.58160  0.80060  0.44840  Biso   1.000  H
  H144     1.0000 0.91840  0.19940  0.94840  Biso   1.000  H
  H145     1.0000 0.00130  0.71310  0.50840  Biso   1.000  H
  H146     1.0000 0.49870  0.28690  0.00840  Biso   1.000  H
  H147     1.0000 0.50130  0.78690  0.49160  Biso   1.000  H
  H148     1.0000 0.99870  0.21310  0.99160  Biso   1.000  H
  H149     1.0000 0.09070  0.76190  0.53140  Biso   1.000  H
  H150     1.0000 0.40930  0.23810  0.03140  Biso   1.000  H
  H151     1.0000 0.59070  0.73810  0.46860  Biso   1.000  H
  H152     1.0000 0.90930  0.26190  0.96860  Biso   1.000  H
  C181     1.0000 0.24760  0.43120  0.60620  Biso   1.000  C
  C182     1.0000 0.25240  0.56880  0.10620  Biso   1.000  C
  C183     1.0000 0.74760  0.06880  0.39380  Biso   1.000  C
  C184     1.0000 0.75240  0.93120  0.89380  Biso   1.000  C
  H153     1.0000 0.18180  0.41360  0.58770  Biso   1.000  H
  H154     1.0000 0.31820  0.58640  0.08770  Biso   1.000  H
  H155     1.0000 0.68180  0.08640  0.41230  Biso   1.000  H
  H156     1.0000 0.81820  0.91360  0.91230  Biso   1.000  H
  C185     1.0000 0.27830  0.07020  0.25690  Biso   1.000  C
  C186     1.0000 0.22170  0.92980  0.75690  Biso   1.000  C
  C187     1.0000 0.77830  0.42980  0.74310  Biso   1.000  C
  C188     1.0000 0.72170  0.57020  0.24310  Biso   1.000  C
  C189     1.0000 0.39440  0.12640  0.42980  Biso   1.000  C
  C190     1.0000 0.10560  0.87360  0.92980  Biso   1.000  C
  C191     1.0000 0.89440  0.37360  0.57020  Biso   1.000  C
  C192     1.0000 0.60560  0.62640  0.07020  Biso   1.000  C
  H157     1.0000 0.47310  0.12340  0.44810  Biso   1.000  H
  H158     1.0000 0.02690  0.87660  0.94810  Biso   1.000  H
  H159     1.0000 0.97310  0.37660  0.55190  Biso   1.000  H
  H160     1.0000 0.52690  0.62340  0.05190  Biso   1.000  H
  C193     1.0000 0.54050  0.05930  0.26290  Biso   1.000  C
  C194     1.0000 0.95950  0.94070  0.76290  Biso   1.000  C
  C195     1.0000 0.04050  0.44070  0.73710  Biso   1.000  C
  C196     1.0000 0.45950  0.55930  0.23710  Biso   1.000  C
  H161     1.0000 0.54240  0.07810  0.23520  Biso   1.000  H
  H162     1.0000 0.95760  0.92190  0.73520  Biso   1.000  H
  H163     1.0000 0.04240  0.42190  0.76480  Biso   1.000  H
  H164     1.0000 0.45760  0.57810  0.26480  Biso   1.000  H
  H165     1.0000 0.58520  0.02170  0.26080  Biso   1.000  H
  H166     1.0000 0.91480  0.97830  0.76080  Biso   1.000  H
  H167     1.0000 0.08520  0.47830  0.73920  Biso   1.000  H
  H168     1.0000 0.41480  0.52170  0.23920  Biso   1.000  H
  H169     1.0000 0.59170  0.08280  0.28340  Biso   1.000  H
  H170     1.0000 0.90830  0.91720  0.78340  Biso   1.000  H
  H171     1.0000 0.09170  0.41720  0.71660  Biso   1.000  H
  H172     1.0000 0.40830  0.58280  0.21660  Biso   1.000  H
  C197     1.0000 0.36400  0.02100  0.31890  Biso   1.000  C
  C198     1.0000 0.13600  0.97900  0.81890  Biso   1.000  C
  C199     1.0000 0.86400  0.47900  0.68110  Biso   1.000  C
  C200     1.0000 0.63600  0.52100  0.18110  Biso   1.000  C
  H173     1.0000 0.34330  0.04890  0.34110  Biso   1.000  H
  H174     1.0000 0.15670  0.95110  0.84110  Biso   1.000  H
  H175     1.0000 0.84330  0.45110  0.65890  Biso   1.000  H
  H176     1.0000 0.65670  0.54890  0.15890  Biso   1.000  H
  H177     1.0000 0.44770  0.99900  0.32680  Biso   1.000  H
  H178     1.0000 0.05230  0.00100  0.82680  Biso   1.000  H
  H179     1.0000 0.94770  0.50100  0.67320  Biso   1.000  H
  H180     1.0000 0.55230  0.49900  0.17320  Biso   1.000  H
  H181     1.0000 0.28400  0.99510  0.31560  Biso   1.000  H
  H182     1.0000 0.21600  0.00490  0.81560  Biso   1.000  H
  H183     1.0000 0.78400  0.50490  0.68440  Biso   1.000  H
  H184     1.0000 0.71600  0.49510  0.18440  Biso   1.000  H
  O65      1.0000 0.69440  0.21290  0.42710  Biso   1.000  O
  O66      1.0000 0.80560  0.78710  0.92710  Biso   1.000  O
  O67      1.0000 0.19440  0.28710  0.57290  Biso   1.000  O
  O68      1.0000 0.30560  0.71290  0.07290  Biso   1.000  O
  C201     1.0000 0.79500  0.24830  0.43400  Biso   1.000  C
  C202     1.0000 0.70500  0.75170  0.93400  Biso   1.000  C
  C203     1.0000 0.29500  0.25170  0.56600  Biso   1.000  C
  C204     1.0000 0.20500  0.74830  0.06600  Biso   1.000  C
  N37      1.0000 0.88500  0.24100  0.45760  Biso   1.000  N
  N38      1.0000 0.61500  0.75900  0.95760  Biso   1.000  N
  N39      1.0000 0.38500  0.25900  0.54240  Biso   1.000  N
  N40      1.0000 0.11500  0.74100  0.04240  Biso   1.000  N
  C205     1.0000 0.02300  0.26850  0.47100  Biso   1.000  C
  C206     1.0000 0.47700  0.73150  0.97100  Biso   1.000  C
  C207     1.0000 0.52300  0.23150  0.52900  Biso   1.000  C
  C208     1.0000 0.97700  0.76850  0.02900  Biso   1.000  C
  H185     1.0000 0.10160  0.24730  0.45870  Biso   1.000  H
  H186     1.0000 0.39840  0.75270  0.95870  Biso   1.000  H
  H187     1.0000 0.60160  0.25270  0.54130  Biso   1.000  H
  H188     1.0000 0.89840  0.74730  0.04130  Biso   1.000  H
  H189     1.0000 0.03030  0.26770  0.50180  Biso   1.000  H
  H190     1.0000 0.46970  0.73230  0.00180  Biso   1.000  H
  H191     1.0000 0.53030  0.23230  0.49820  Biso   1.000  H
  H192     1.0000 0.96970  0.76770  0.99820  Biso   1.000  H
  H193     1.0000 0.02550  0.30810  0.46110  Biso   1.000  H
  H194     1.0000 0.47450  0.69190  0.96110  Biso   1.000  H
  H195     1.0000 0.52550  0.19190  0.53890  Biso   1.000  H
  H196     1.0000 0.97450  0.80810  0.03890  Biso   1.000  H
  C209     1.0000 0.86200  0.18270  0.48480  Biso   1.000  C
  C210     1.0000 0.63800  0.81730  0.98480  Biso   1.000  C
  C211     1.0000 0.36200  0.31730  0.51520  Biso   1.000  C
  C212     1.0000 0.13800  0.68270  0.01520  Biso   1.000  C
  H197     1.0000 0.76220  0.17270  0.48490  Biso   1.000  H
  H198     1.0000 0.73780  0.82730  0.98490  Biso   1.000  H
  H199     1.0000 0.26220  0.32730  0.51510  Biso   1.000  H
  H200     1.0000 0.23780  0.67270  0.01510  Biso   1.000  H
  H201     1.0000 0.89450  0.18870  0.51380  Biso   1.000  H
  H202     1.0000 0.60550  0.81130  0.01380  Biso   1.000  H
  H203     1.0000 0.39450  0.31130  0.48620  Biso   1.000  H
  H204     1.0000 0.10550  0.68870  0.98620  Biso   1.000  H
  H205     1.0000 0.91620  0.15160  0.47190  Biso   1.000  H
  H206     1.0000 0.58380  0.84840  0.97190  Biso   1.000  H
  H207     1.0000 0.41620  0.34840  0.52810  Biso   1.000  H
  H208     1.0000 0.08380  0.65160  0.02810  Biso   1.000  H
  C213     1.0000 0.82400  0.30180  0.40960  Biso   1.000  C
  C214     1.0000 0.67600  0.69820  0.90960  Biso   1.000  C
  C215     1.0000 0.32400  0.19820  0.59040  Biso   1.000  C
  C216     1.0000 0.17600  0.80180  0.09040  Biso   1.000  C
  H209     1.0000 0.88260  0.29290  0.38510  Biso   1.000  H
  H210     1.0000 0.61740  0.70710  0.88510  Biso   1.000  H
  H211     1.0000 0.38260  0.20710  0.61490  Biso   1.000  H
  H212     1.0000 0.11740  0.79290  0.11490  Biso   1.000  H
  H213     1.0000 0.87290  0.32920  0.42770  Biso   1.000  H
  H214     1.0000 0.62710  0.67080  0.92770  Biso   1.000  H
  H215     1.0000 0.37290  0.17080  0.57230  Biso   1.000  H
  H216     1.0000 0.12710  0.82920  0.07230  Biso   1.000  H
  H217     1.0000 0.73470  0.31840  0.40010  Biso   1.000  H
  H218     1.0000 0.76530  0.68160  0.90010  Biso   1.000  H
  H219     1.0000 0.23470  0.18160  0.59990  Biso   1.000  H
  H220     1.0000 0.26530  0.81840  0.09990  Biso   1.000  H
