data_image0
_cell_length_a       9.287
_cell_length_b       23.164
_cell_length_c       30.643
_cell_angle_alpha    90
_cell_angle_beta     90
_cell_angle_gamma    90

_symmetry_space_group_name_H-M    "P 1"
_symmetry_int_tables_number       1

loop_
  _symmetry_equiv_pos_as_xyz
  'x, y, z'

loop_
  _atom_site_label
  _atom_site_occupancy
  _atom_site_fract_x
  _atom_site_fract_y
  _atom_site_fract_z
  _atom_site_thermal_displace_type
  _atom_site_B_iso_or_equiv
  _atom_site_type_symbol
  Dy1      1.0000 0.54209  0.56065  0.51550  Biso   1.000  Dy
  Dy2      1.0000 0.95791  0.43935  0.01550  Biso   1.000  Dy
  Dy3      1.0000 0.04209  0.93935  0.48450  Biso   1.000  Dy
  Dy4      1.0000 0.45791  0.06065  0.98450  Biso   1.000  Dy
  Dy5      1.0000 0.01182  0.53465  0.52165  Biso   1.000  Dy
  Dy6      1.0000 0.48818  0.46536  0.02165  Biso   1.000  Dy
  Dy7      1.0000 0.51182  0.96535  0.47835  Biso   1.000  Dy
  Dy8      1.0000 0.98818  0.03464  0.97835  Biso   1.000  Dy
  I1       1.0000 0.28945  0.60774  0.25115  Biso   1.000  I
  I2       1.0000 0.21055  0.39226  0.75115  Biso   1.000  I
  I3       1.0000 0.78945  0.89226  0.74885  Biso   1.000  I
  I4       1.0000 0.71055  0.10774  0.24885  Biso   1.000  I
  I5       1.0000 0.47821  0.77006  0.21443  Biso   1.000  I
  I6       1.0000 0.02179  0.22994  0.71443  Biso   1.000  I
  I7       1.0000 0.97821  0.72994  0.78557  Biso   1.000  I
  I8       1.0000 0.52179  0.27006  0.28557  Biso   1.000  I
  I9       1.0000 0.98694  0.75531  0.22464  Biso   1.000  I
  I10      1.0000 0.51306  0.24469  0.72464  Biso   1.000  I
  I11      1.0000 0.48694  0.74469  0.77536  Biso   1.000  I
  I12      1.0000 0.01306  0.25531  0.27536  Biso   1.000  I
  Cu1      1.0000 0.54428  0.88055  0.22259  Biso   1.000  Cu
  Cu2      1.0000 0.95572  0.11945  0.72259  Biso   1.000  Cu
  Cu3      1.0000 0.04428  0.61945  0.77741  Biso   1.000  Cu
  Cu4      1.0000 0.45572  0.38055  0.27741  Biso   1.000  Cu
  Cu5      1.0000 0.22043  0.76500  0.17632  Biso   1.000  Cu
  Cu6      1.0000 0.27957  0.23500  0.67632  Biso   1.000  Cu
  Cu7      1.0000 0.72043  0.73500  0.82368  Biso   1.000  Cu
  Cu8      1.0000 0.77957  0.26500  0.32368  Biso   1.000  Cu
  Cu9      1.0000 0.00645  0.64286  0.24924  Biso   1.000  Cu
  Cu10     1.0000 0.49355  0.35714  0.74924  Biso   1.000  Cu
  Cu11     1.0000 0.50645  0.85714  0.75076  Biso   1.000  Cu
  Cu12     1.0000 0.99355  0.14286  0.25076  Biso   1.000  Cu
  Cu13     1.0000 0.24454  0.71763  0.25730  Biso   1.000  Cu
  Cu14     1.0000 0.25546  0.28237  0.75730  Biso   1.000  Cu
  Cu15     1.0000 0.74454  0.78237  0.74270  Biso   1.000  Cu
  Cu16     1.0000 0.75546  0.21763  0.24270  Biso   1.000  Cu
  C1       1.0000 0.41230  0.80700  0.36950  Biso   1.000  C
  C2       1.0000 0.08770  0.19300  0.86950  Biso   1.000  C
  C3       1.0000 0.91230  0.69300  0.63050  Biso   1.000  C
  C4       1.0000 0.58770  0.30700  0.13050  Biso   1.000  C
  H1       1.0000 0.50350  0.81880  0.37830  Biso   1.000  H
  H2       1.0000 0.99650  0.18120  0.87830  Biso   1.000  H
  H3       1.0000 0.00350  0.68120  0.62170  Biso   1.000  H
  H4       1.0000 0.49650  0.31880  0.12170  Biso   1.000  H
  O1       1.0000 0.42320  0.65285  0.50433  Biso   1.000  O
  O2       1.0000 0.07680  0.34715  0.00433  Biso   1.000  O
  O3       1.0000 0.92320  0.84715  0.49567  Biso   1.000  O
  O4       1.0000 0.57680  0.15285  0.99567  Biso   1.000  O
  C5       1.0000 0.09070  0.56220  0.69340  Biso   1.000  C
  C6       1.0000 0.40930  0.43780  0.19340  Biso   1.000  C
  C7       1.0000 0.59070  0.93780  0.30660  Biso   1.000  C
  C8       1.0000 0.90930  0.06220  0.80660  Biso   1.000  C
  H5       1.0000 0.02800  0.53530  0.70540  Biso   1.000  H
  H6       1.0000 0.47200  0.46470  0.20540  Biso   1.000  H
  H7       1.0000 0.52800  0.96470  0.29460  Biso   1.000  H
  H8       1.0000 0.97200  0.03530  0.79460  Biso   1.000  H
  O5       1.0000 0.17830  0.46140  0.53042  Biso   1.000  O
  O6       1.0000 0.32170  0.53860  0.03042  Biso   1.000  O
  O7       1.0000 0.67830  0.03860  0.46958  Biso   1.000  O
  O8       1.0000 0.82170  0.96140  0.96958  Biso   1.000  O
  O9       1.0000 0.19350  0.86644  0.45607  Biso   1.000  O
  O10      1.0000 0.30650  0.13356  0.95607  Biso   1.000  O
  O11      1.0000 0.69350  0.63356  0.54393  Biso   1.000  O
  O12      1.0000 0.80650  0.36644  0.04393  Biso   1.000  O
  O13      1.0000 0.37080  0.54570  0.46252  Biso   1.000  O
  O14      1.0000 0.12920  0.45430  0.96252  Biso   1.000  O
  O15      1.0000 0.87080  0.95430  0.53748  Biso   1.000  O
  O16      1.0000 0.62920  0.04570  0.03748  Biso   1.000  O
  C9       1.0000 0.23860  0.59050  0.63447  Biso   1.000  C
  C10      1.0000 0.26140  0.40950  0.13447  Biso   1.000  C
  C11      1.0000 0.73860  0.90950  0.36553  Biso   1.000  C
  C12      1.0000 0.76140  0.09050  0.86553  Biso   1.000  C
  O17      1.0000 0.13850  0.52480  0.45533  Biso   1.000  O
  O18      1.0000 0.36150  0.47520  0.95533  Biso   1.000  O
  O19      1.0000 0.63850  0.97520  0.54467  Biso   1.000  O
  O20      1.0000 0.86150  0.02480  0.04467  Biso   1.000  O
  C13      1.0000 0.72250  0.46360  0.63233  Biso   1.000  C
  C14      1.0000 0.77750  0.53640  0.13233  Biso   1.000  C
  C15      1.0000 0.22250  0.03640  0.36767  Biso   1.000  C
  C16      1.0000 0.27750  0.96360  0.86767  Biso   1.000  C
  N1       1.0000 0.77940  0.33120  0.36758  Biso   1.000  N
  N2       1.0000 0.72060  0.66880  0.86758  Biso   1.000  N
  N3       1.0000 0.27940  0.16880  0.63242  Biso   1.000  N
  N4       1.0000 0.22060  0.83120  0.13242  Biso   1.000  N
  O21      1.0000 0.41670  0.47380  0.53991  Biso   1.000  O
  O22      1.0000 0.08330  0.52620  0.03991  Biso   1.000  O
  O23      1.0000 0.91670  0.02620  0.46009  Biso   1.000  O
  O24      1.0000 0.58330  0.97380  0.96009  Biso   1.000  O
  O25      1.0000 0.43120  0.58610  0.58375  Biso   1.000  O
  O26      1.0000 0.06880  0.41390  0.08375  Biso   1.000  O
  O27      1.0000 0.93120  0.91390  0.41625  Biso   1.000  O
  O28      1.0000 0.56880  0.08610  0.91625  Biso   1.000  O
  C17      1.0000 0.97590  0.60680  0.38562  Biso   1.000  C
  C18      1.0000 0.52410  0.39320  0.88562  Biso   1.000  C
  C19      1.0000 0.47590  0.89320  0.61438  Biso   1.000  C
  C20      1.0000 0.02410  0.10680  0.11438  Biso   1.000  C
  H9       1.0000 0.04160  0.59300  0.40600  Biso   1.000  H
  H10      1.0000 0.45840  0.40700  0.90600  Biso   1.000  H
  H11      1.0000 0.54160  0.90700  0.59400  Biso   1.000  H
  H12      1.0000 0.95840  0.09300  0.09400  Biso   1.000  H
  C21      1.0000 0.89700  0.34600  0.39100  Biso   1.000  C
  C22      1.0000 0.60300  0.65400  0.89100  Biso   1.000  C
  C23      1.0000 0.39700  0.15400  0.60900  Biso   1.000  C
  C24      1.0000 0.10300  0.84600  0.10900  Biso   1.000  C
  H13      1.0000 0.98450  0.32900  0.38370  Biso   1.000  H
  H14      1.0000 0.51550  0.67100  0.88370  Biso   1.000  H
  H15      1.0000 0.48450  0.17100  0.61630  Biso   1.000  H
  H16      1.0000 0.01550  0.82900  0.11630  Biso   1.000  H
  O29      1.0000 0.42580  0.88470  0.43879  Biso   1.000  O
  O30      1.0000 0.07420  0.11530  0.93879  Biso   1.000  O
  O31      1.0000 0.92580  0.61530  0.56121  Biso   1.000  O
  O32      1.0000 0.57420  0.38470  0.06121  Biso   1.000  O
  N5       1.0000 0.13030  0.60790  0.71762  Biso   1.000  N
  N6       1.0000 0.36970  0.39210  0.21762  Biso   1.000  N
  N7       1.0000 0.63030  0.89210  0.28238  Biso   1.000  N
  N8       1.0000 0.86970  0.10790  0.78238  Biso   1.000  N
  N9       1.0000 0.38280  0.42510  0.32918  Biso   1.000  N
  N10      1.0000 0.11720  0.57490  0.82918  Biso   1.000  N
  N11      1.0000 0.88280  0.07490  0.67082  Biso   1.000  N
  N12      1.0000 0.61720  0.92510  0.17082  Biso   1.000  N
  C25      1.0000 0.29000  0.82290  0.39250  Biso   1.000  C
  C26      1.0000 0.21000  0.17710  0.89250  Biso   1.000  C
  C27      1.0000 0.79000  0.67710  0.60750  Biso   1.000  C
  C28      1.0000 0.71000  0.32290  0.10750  Biso   1.000  C
  O33      1.0000 0.87470  0.46280  0.49313  Biso   1.000  O
  O34      1.0000 0.62530  0.53720  0.99313  Biso   1.000  O
  O35      1.0000 0.37470  0.03720  0.50687  Biso   1.000  O
  O36      1.0000 0.12530  0.96280  0.00687  Biso   1.000  O
  C29      1.0000 0.26820  0.52150  0.44440  Biso   1.000  C
  C30      1.0000 0.23180  0.47850  0.94440  Biso   1.000  C
  C31      1.0000 0.76820  0.97850  0.55560  Biso   1.000  C
  C32      1.0000 0.73180  0.02150  0.05560  Biso   1.000  C
  C33      1.0000 0.76240  0.45640  0.47203  Biso   1.000  C
  C34      1.0000 0.73760  0.54360  0.97203  Biso   1.000  C
  C35      1.0000 0.26240  0.04360  0.52797  Biso   1.000  C
  C36      1.0000 0.23760  0.95640  0.02797  Biso   1.000  C
  N13      1.0000 0.29250  0.30560  0.63597  Biso   1.000  N
  N14      1.0000 0.20750  0.69440  0.13597  Biso   1.000  N
  N15      1.0000 0.79250  0.19440  0.36403  Biso   1.000  N
  N16      1.0000 0.70750  0.80560  0.86403  Biso   1.000  N
  C37      1.0000 0.30330  0.48790  0.40359  Biso   1.000  C
  C38      1.0000 0.19670  0.51210  0.90359  Biso   1.000  C
  C39      1.0000 0.80330  0.01210  0.59641  Biso   1.000  C
  C40      1.0000 0.69670  0.98790  0.09641  Biso   1.000  C
  C41      1.0000 0.29840  0.44950  0.54670  Biso   1.000  C
  C42      1.0000 0.20160  0.55050  0.04670  Biso   1.000  C
  C43      1.0000 0.79840  0.05050  0.45330  Biso   1.000  C
  C44      1.0000 0.70160  0.94950  0.95330  Biso   1.000  C
  O37      1.0000 0.92180  0.48900  0.58694  Biso   1.000  O
  O38      1.0000 0.57820  0.51100  0.08694  Biso   1.000  O
  O39      1.0000 0.42180  0.01100  0.41306  Biso   1.000  O
  O40      1.0000 0.07820  0.98900  0.91306  Biso   1.000  O
  O41      1.0000 0.64750  0.48260  0.47658  Biso   1.000  O
  O42      1.0000 0.85250  0.51740  0.97658  Biso   1.000  O
  O43      1.0000 0.14750  0.01740  0.52342  Biso   1.000  O
  O44      1.0000 0.35250  0.98260  0.02342  Biso   1.000  O
  O45      1.0000 0.20810  0.57320  0.55864  Biso   1.000  O
  O46      1.0000 0.29190  0.42680  0.05864  Biso   1.000  O
  O47      1.0000 0.70810  0.92680  0.44136  Biso   1.000  O
  O48      1.0000 0.79190  0.07320  0.94136  Biso   1.000  O
  O49      1.0000 0.70310  0.51880  0.56675  Biso   1.000  O
  O50      1.0000 0.79690  0.48120  0.06675  Biso   1.000  O
  O51      1.0000 0.20310  0.98120  0.43325  Biso   1.000  O
  O52      1.0000 0.29690  0.01880  0.93325  Biso   1.000  O
  N17      1.0000 0.26510  0.75540  0.31837  Biso   1.000  N
  N18      1.0000 0.23490  0.24460  0.81837  Biso   1.000  N
  N19      1.0000 0.76510  0.74460  0.68163  Biso   1.000  N
  N20      1.0000 0.73490  0.25540  0.18163  Biso   1.000  N
  C45      1.0000 0.78210  0.59990  0.44301  Biso   1.000  C
  C46      1.0000 0.71790  0.40010  0.94301  Biso   1.000  C
  C47      1.0000 0.28210  0.90010  0.55699  Biso   1.000  C
  C48      1.0000 0.21790  0.09990  0.05699  Biso   1.000  C
  N21      1.0000 0.59480  0.40560  0.70257  Biso   1.000  N
  N22      1.0000 0.90520  0.59440  0.20257  Biso   1.000  N
  N23      1.0000 0.09480  0.09440  0.29743  Biso   1.000  N
  N24      1.0000 0.40520  0.90560  0.79743  Biso   1.000  N
  C49      1.0000 0.30070  0.39780  0.57760  Biso   1.000  C
  C50      1.0000 0.19930  0.60220  0.07760  Biso   1.000  C
  C51      1.0000 0.80070  0.10220  0.42240  Biso   1.000  C
  C52      1.0000 0.69930  0.89780  0.92240  Biso   1.000  C
  C53      1.0000 0.51920  0.44080  0.67650  Biso   1.000  C
  C54      1.0000 0.98080  0.55920  0.17650  Biso   1.000  C
  C55      1.0000 0.01920  0.05920  0.32350  Biso   1.000  C
  C56      1.0000 0.48080  0.94080  0.82350  Biso   1.000  C
  H17      1.0000 0.42160  0.44560  0.68220  Biso   1.000  H
  H18      1.0000 0.07840  0.55440  0.18220  Biso   1.000  H
  H19      1.0000 0.92160  0.05440  0.31780  Biso   1.000  H
  H20      1.0000 0.57840  0.94560  0.81780  Biso   1.000  H
  O53      1.0000 0.88080  0.58510  0.46975  Biso   1.000  O
  O54      1.0000 0.61920  0.41490  0.96975  Biso   1.000  O
  O55      1.0000 0.38080  0.91490  0.53025  Biso   1.000  O
  O56      1.0000 0.11920  0.08510  0.03025  Biso   1.000  O
  C57      1.0000 0.30330  0.86120  0.43298  Biso   1.000  C
  C58      1.0000 0.19670  0.13880  0.93298  Biso   1.000  C
  C59      1.0000 0.80330  0.63880  0.56702  Biso   1.000  C
  C60      1.0000 0.69670  0.36120  0.06702  Biso   1.000  C
  C61      1.0000 0.02000  0.61770  0.34310  Biso   1.000  C
  C62      1.0000 0.48000  0.38230  0.84310  Biso   1.000  C
  C63      1.0000 0.52000  0.88230  0.65690  Biso   1.000  C
  C64      1.0000 0.98000  0.11770  0.15690  Biso   1.000  C
  H21      1.0000 0.11460  0.60940  0.33540  Biso   1.000  H
  H22      1.0000 0.38540  0.39060  0.83540  Biso   1.000  H
  H23      1.0000 0.61460  0.89060  0.66460  Biso   1.000  H
  H24      1.0000 0.88540  0.10940  0.16460  Biso   1.000  H
  O57      1.0000 0.65210  0.60150  0.45048  Biso   1.000  O
  O58      1.0000 0.84790  0.39850  0.95048  Biso   1.000  O
  O59      1.0000 0.15210  0.89850  0.54952  Biso   1.000  O
  O60      1.0000 0.34790  0.10150  0.04952  Biso   1.000  O
  C65      1.0000 0.15640  0.80430  0.37890  Biso   1.000  C
  C66      1.0000 0.34360  0.19570  0.87890  Biso   1.000  C
  C67      1.0000 0.65640  0.69570  0.62110  Biso   1.000  C
  C68      1.0000 0.84360  0.30430  0.12110  Biso   1.000  C
  H25      1.0000 0.07380  0.81400  0.39440  Biso   1.000  H
  H26      1.0000 0.42620  0.18600  0.89440  Biso   1.000  H
  H27      1.0000 0.57380  0.68600  0.60560  Biso   1.000  H
  H28      1.0000 0.92620  0.31400  0.10560  Biso   1.000  H
  C69      1.0000 0.76740  0.41130  0.43562  Biso   1.000  C
  C70      1.0000 0.73260  0.58870  0.93562  Biso   1.000  C
  C71      1.0000 0.26740  0.08870  0.56438  Biso   1.000  C
  C72      1.0000 0.23260  0.91130  0.06438  Biso   1.000  C
  C73      1.0000 0.32610  0.67390  0.48160  Biso   1.000  C
  C74      1.0000 0.17390  0.32610  0.98160  Biso   1.000  C
  C75      1.0000 0.82610  0.82610  0.51840  Biso   1.000  C
  C76      1.0000 0.67390  0.17390  0.01840  Biso   1.000  C
  C77      1.0000 0.22360  0.64450  0.70070  Biso   1.000  C
  C78      1.0000 0.27640  0.35550  0.20070  Biso   1.000  C
  C79      1.0000 0.72360  0.85550  0.29930  Biso   1.000  C
  C80      1.0000 0.77640  0.14450  0.79930  Biso   1.000  C
  H29      1.0000 0.25030  0.67670  0.71700  Biso   1.000  H
  H30      1.0000 0.24970  0.32330  0.21700  Biso   1.000  H
  H31      1.0000 0.75030  0.82330  0.28300  Biso   1.000  H
  H32      1.0000 0.74970  0.17670  0.78300  Biso   1.000  H
  C81      1.0000 0.64330  0.39570  0.41340  Biso   1.000  C
  C82      1.0000 0.85670  0.60430  0.91340  Biso   1.000  C
  C83      1.0000 0.14330  0.10430  0.58660  Biso   1.000  C
  C84      1.0000 0.35670  0.89570  0.08660  Biso   1.000  C
  H33      1.0000 0.55450  0.41160  0.42060  Biso   1.000  H
  H34      1.0000 0.94550  0.58840  0.92060  Biso   1.000  H
  H35      1.0000 0.05450  0.08840  0.57940  Biso   1.000  H
  H36      1.0000 0.44550  0.91160  0.07940  Biso   1.000  H
  C85      1.0000 0.14800  0.77040  0.34140  Biso   1.000  C
  C86      1.0000 0.35200  0.22960  0.84140  Biso   1.000  C
  C87      1.0000 0.64800  0.72960  0.65860  Biso   1.000  C
  C88      1.0000 0.85200  0.27040  0.15860  Biso   1.000  C
  H37      1.0000 0.05820  0.75770  0.33200  Biso   1.000  H
  H38      1.0000 0.44180  0.24230  0.83200  Biso   1.000  H
  H39      1.0000 0.55820  0.74230  0.66800  Biso   1.000  H
  H40      1.0000 0.94180  0.25770  0.16800  Biso   1.000  H
  N25      1.0000 0.21800  0.70480  0.49870  Biso   1.000  N
  N26      1.0000 0.28200  0.29520  0.99870  Biso   1.000  N
  N27      1.0000 0.71800  0.79520  0.50130  Biso   1.000  N
  N28      1.0000 0.78200  0.20480  0.00130  Biso   1.000  N
  C89      1.0000 0.83440  0.61650  0.39764  Biso   1.000  C
  C90      1.0000 0.66560  0.38350  0.89764  Biso   1.000  C
  C91      1.0000 0.33440  0.88350  0.60236  Biso   1.000  C
  C92      1.0000 0.16560  0.11650  0.10236  Biso   1.000  C
  N29      1.0000 0.93270  0.63930  0.31303  Biso   1.000  N
  N30      1.0000 0.56730  0.36070  0.81303  Biso   1.000  N
  N31      1.0000 0.43270  0.86070  0.68697  Biso   1.000  N
  N32      1.0000 0.06730  0.13930  0.18697  Biso   1.000  N
  C93      1.0000 0.28380  0.63700  0.65940  Biso   1.000  C
  C94      1.0000 0.21620  0.36300  0.15940  Biso   1.000  C
  C95      1.0000 0.78380  0.86300  0.34060  Biso   1.000  C
  C96      1.0000 0.71620  0.13700  0.84060  Biso   1.000  C
  H41      1.0000 0.35260  0.66260  0.64890  Biso   1.000  H
  H42      1.0000 0.14740  0.33740  0.14890  Biso   1.000  H
  H43      1.0000 0.85260  0.83740  0.35110  Biso   1.000  H
  H44      1.0000 0.64740  0.16260  0.85110  Biso   1.000  H
  C97      1.0000 0.17710  0.38690  0.60130  Biso   1.000  C
  C98      1.0000 0.32290  0.61310  0.10130  Biso   1.000  C
  C99      1.0000 0.67710  0.11310  0.39870  Biso   1.000  C
  C100     1.0000 0.82290  0.88690  0.89870  Biso   1.000  C
  H45      1.0000 0.09490  0.40940  0.59760  Biso   1.000  H
  H46      1.0000 0.40510  0.59060  0.09760  Biso   1.000  H
  H47      1.0000 0.59490  0.09060  0.40240  Biso   1.000  H
  H48      1.0000 0.90510  0.90940  0.90240  Biso   1.000  H
  C101     1.0000 0.41850  0.36340  0.58350  Biso   1.000  C
  C102     1.0000 0.08150  0.63660  0.08350  Biso   1.000  C
  C103     1.0000 0.91850  0.13660  0.41650  Biso   1.000  C
  C104     1.0000 0.58150  0.86340  0.91650  Biso   1.000  C
  H49      1.0000 0.50340  0.36990  0.56820  Biso   1.000  H
  H50      1.0000 0.99660  0.63010  0.06820  Biso   1.000  H
  H51      1.0000 0.00340  0.13010  0.43180  Biso   1.000  H
  H52      1.0000 0.49660  0.86990  0.93180  Biso   1.000  H
  C105     1.0000 0.21930  0.93000  0.24190  Biso   1.000  C
  C106     1.0000 0.28070  0.07000  0.74190  Biso   1.000  C
  C107     1.0000 0.71930  0.57000  0.75810  Biso   1.000  C
  C108     1.0000 0.78070  0.43000  0.25810  Biso   1.000  C
  C109     1.0000 0.80300  0.43030  0.65960  Biso   1.000  C
  C110     1.0000 0.69700  0.56970  0.15960  Biso   1.000  C
  C111     1.0000 0.30300  0.06970  0.34040  Biso   1.000  C
  C112     1.0000 0.19700  0.93030  0.84040  Biso   1.000  C
  H53      1.0000 0.90190  0.42700  0.65560  Biso   1.000  H
  H54      1.0000 0.59810  0.57300  0.15560  Biso   1.000  H
  H55      1.0000 0.40190  0.07300  0.34440  Biso   1.000  H
  H56      1.0000 0.09810  0.92700  0.84440  Biso   1.000  H
  C113     1.0000 0.65570  0.35570  0.38010  Biso   1.000  C
  C114     1.0000 0.84430  0.64430  0.88010  Biso   1.000  C
  C115     1.0000 0.15570  0.14430  0.61990  Biso   1.000  C
  C116     1.0000 0.34430  0.85570  0.11990  Biso   1.000  C
  H57      1.0000 0.57220  0.34500  0.36550  Biso   1.000  H
  H58      1.0000 0.92780  0.65500  0.86550  Biso   1.000  H
  H59      1.0000 0.07220  0.15500  0.63450  Biso   1.000  H
  H60      1.0000 0.42780  0.84500  0.13450  Biso   1.000  H
  C117     1.0000 0.74350  0.64050  0.36650  Biso   1.000  C
  C118     1.0000 0.75650  0.35950  0.86650  Biso   1.000  C
  C119     1.0000 0.24350  0.85950  0.63350  Biso   1.000  C
  C120     1.0000 0.25650  0.14050  0.13350  Biso   1.000  C
  H61      1.0000 0.64850  0.64950  0.37330  Biso   1.000  H
  H62      1.0000 0.85150  0.35050  0.87330  Biso   1.000  H
  H63      1.0000 0.14850  0.85050  0.62670  Biso   1.000  H
  H64      1.0000 0.35150  0.14950  0.12670  Biso   1.000  H
  C121     1.0000 0.26030  0.43180  0.39760  Biso   1.000  C
  C122     1.0000 0.23970  0.56820  0.89760  Biso   1.000  C
  C123     1.0000 0.76030  0.06820  0.60240  Biso   1.000  C
  C124     1.0000 0.73970  0.93180  0.10240  Biso   1.000  C
  H65      1.0000 0.20530  0.41340  0.41890  Biso   1.000  H
  H66      1.0000 0.29470  0.58660  0.91890  Biso   1.000  H
  H67      1.0000 0.70530  0.08660  0.58110  Biso   1.000  H
  H68      1.0000 0.79470  0.91340  0.08110  Biso   1.000  H
  O61      1.0000 0.34750  0.93680  0.22940  Biso   1.000  O
  O62      1.0000 0.15250  0.06320  0.72940  Biso   1.000  O
  O63      1.0000 0.84750  0.56320  0.77060  Biso   1.000  O
  O64      1.0000 0.65250  0.43680  0.27060  Biso   1.000  O
  C125     1.0000 0.57710  0.47030  0.64160  Biso   1.000  C
  C126     1.0000 0.92290  0.52970  0.14160  Biso   1.000  C
  C127     1.0000 0.07710  0.02970  0.35840  Biso   1.000  C
  C128     1.0000 0.42290  0.97030  0.85840  Biso   1.000  C
  H69      1.0000 0.51970  0.49420  0.62450  Biso   1.000  H
  H70      1.0000 0.98030  0.50580  0.12450  Biso   1.000  H
  H71      1.0000 0.01970  0.00580  0.37550  Biso   1.000  H
  H72      1.0000 0.48030  0.99420  0.87550  Biso   1.000  H
  C129     1.0000 0.73500  0.40110  0.69380  Biso   1.000  C
  C130     1.0000 0.76500  0.59890  0.19380  Biso   1.000  C
  C131     1.0000 0.23500  0.09890  0.30620  Biso   1.000  C
  C132     1.0000 0.26500  0.90110  0.80620  Biso   1.000  C
  H73      1.0000 0.79070  0.37720  0.71140  Biso   1.000  H
  H74      1.0000 0.70930  0.62280  0.21140  Biso   1.000  H
  H75      1.0000 0.29070  0.12280  0.28860  Biso   1.000  H
  H76      1.0000 0.20930  0.87720  0.78860  Biso   1.000  H
  C133     1.0000 0.29870  0.40270  0.36010  Biso   1.000  C
  C134     1.0000 0.20130  0.59730  0.86010  Biso   1.000  C
  C135     1.0000 0.79870  0.09730  0.63990  Biso   1.000  C
  C136     1.0000 0.70130  0.90270  0.13990  Biso   1.000  C
  H77      1.0000 0.26400  0.36540  0.35610  Biso   1.000  H
  H78      1.0000 0.23600  0.63460  0.85610  Biso   1.000  H
  H79      1.0000 0.76400  0.13460  0.64390  Biso   1.000  H
  H80      1.0000 0.73600  0.86540  0.14390  Biso   1.000  H
  C137     1.0000 0.29780  0.58320  0.58850  Biso   1.000  C
  C138     1.0000 0.20220  0.41680  0.08850  Biso   1.000  C
  C139     1.0000 0.79780  0.91680  0.41150  Biso   1.000  C
  C140     1.0000 0.70220  0.08320  0.91150  Biso   1.000  C
  N33      1.0000 0.11300  0.95180  0.22080  Biso   1.000  N
  N34      1.0000 0.38700  0.04820  0.72080  Biso   1.000  N
  N35      1.0000 0.61300  0.54820  0.77920  Biso   1.000  N
  N36      1.0000 0.88700  0.45180  0.27920  Biso   1.000  N
  C141     1.0000 0.78640  0.49280  0.59241  Biso   1.000  C
  C142     1.0000 0.71360  0.50720  0.09241  Biso   1.000  C
  C143     1.0000 0.28640  0.00720  0.40759  Biso   1.000  C
  C144     1.0000 0.21360  0.99280  0.90759  Biso   1.000  C
  C145     1.0000 0.89510  0.38480  0.42540  Biso   1.000  C
  C146     1.0000 0.60490  0.61520  0.92540  Biso   1.000  C
  C147     1.0000 0.39510  0.11520  0.57460  Biso   1.000  C
  C148     1.0000 0.10490  0.88480  0.07460  Biso   1.000  C
  H81      1.0000 0.97840  0.39270  0.44110  Biso   1.000  H
  H82      1.0000 0.52160  0.60730  0.94110  Biso   1.000  H
  H83      1.0000 0.47840  0.10730  0.55890  Biso   1.000  H
  H84      1.0000 0.02160  0.89270  0.05890  Biso   1.000  H
  C149     1.0000 0.39270  0.77230  0.33220  Biso   1.000  C
  C150     1.0000 0.10730  0.22770  0.83220  Biso   1.000  C
  C151     1.0000 0.89270  0.72770  0.66780  Biso   1.000  C
  C152     1.0000 0.60730  0.27230  0.16780  Biso   1.000  C
  H85      1.0000 0.47360  0.76070  0.31660  Biso   1.000  H
  H86      1.0000 0.02640  0.23930  0.81660  Biso   1.000  H
  H87      1.0000 0.97360  0.73930  0.68340  Biso   1.000  H
  H88      1.0000 0.52640  0.26070  0.18340  Biso   1.000  H
  C153     1.0000 0.79750  0.65090  0.32480  Biso   1.000  C
  C154     1.0000 0.70250  0.34910  0.82480  Biso   1.000  C
  C155     1.0000 0.29750  0.84910  0.67520  Biso   1.000  C
  C156     1.0000 0.20250  0.15090  0.17520  Biso   1.000  C
  H89      1.0000 0.73600  0.66680  0.30410  Biso   1.000  H
  H90      1.0000 0.76400  0.33320  0.80410  Biso   1.000  H
  H91      1.0000 0.23600  0.83320  0.69590  Biso   1.000  H
  H92      1.0000 0.26400  0.16680  0.19590  Biso   1.000  H
  C157     1.0000 0.22450  0.71700  0.54610  Biso   1.000  C
  C158     1.0000 0.27550  0.28300  0.04610  Biso   1.000  C
  C159     1.0000 0.72450  0.78300  0.45390  Biso   1.000  C
  C160     1.0000 0.77550  0.21700  0.95390  Biso   1.000  C
  H93      1.0000 0.15420  0.69400  0.56100  Biso   1.000  H
  H94      1.0000 0.34580  0.30600  0.06100  Biso   1.000  H
  H95      1.0000 0.65420  0.80600  0.43900  Biso   1.000  H
  H96      1.0000 0.84580  0.19400  0.93900  Biso   1.000  H
  H97      1.0000 0.20480  0.75720  0.55100  Biso   1.000  H
  H98      1.0000 0.29520  0.24280  0.05100  Biso   1.000  H
  H99      1.0000 0.70480  0.74280  0.44900  Biso   1.000  H
  H100     1.0000 0.79520  0.25720  0.94900  Biso   1.000  H
  H101     1.0000 0.31880  0.70790  0.55690  Biso   1.000  H
  H102     1.0000 0.18120  0.29210  0.05690  Biso   1.000  H
  H103     1.0000 0.81880  0.79210  0.44310  Biso   1.000  H
  H104     1.0000 0.68120  0.20790  0.94310  Biso   1.000  H
  C161     1.0000 0.19180  0.89540  0.28300  Biso   1.000  C
  C162     1.0000 0.30820  0.10460  0.78300  Biso   1.000  C
  C163     1.0000 0.69180  0.60460  0.71700  Biso   1.000  C
  C164     1.0000 0.80820  0.39540  0.21700  Biso   1.000  C
  H105     1.0000 0.15680  0.85780  0.27530  Biso   1.000  H
  H106     1.0000 0.34320  0.14220  0.77530  Biso   1.000  H
  H107     1.0000 0.65680  0.64220  0.72470  Biso   1.000  H
  H108     1.0000 0.84320  0.35780  0.22470  Biso   1.000  H
  H109     1.0000 0.12140  0.91490  0.30060  Biso   1.000  H
  H110     1.0000 0.37860  0.08510  0.80060  Biso   1.000  H
  H111     1.0000 0.62140  0.58510  0.69940  Biso   1.000  H
  H112     1.0000 0.87860  0.41490  0.19940  Biso   1.000  H
  H113     1.0000 0.27990  0.89170  0.29920  Biso   1.000  H
  H114     1.0000 0.22010  0.10830  0.79920  Biso   1.000  H
  H115     1.0000 0.77990  0.60830  0.70080  Biso   1.000  H
  H116     1.0000 0.72010  0.39170  0.20080  Biso   1.000  H
  C165     1.0000 0.40760  0.31870  0.61310  Biso   1.000  C
  C166     1.0000 0.09240  0.68130  0.11310  Biso   1.000  C
  C167     1.0000 0.90760  0.18130  0.38690  Biso   1.000  C
  C168     1.0000 0.59240  0.81870  0.88690  Biso   1.000  C
  H117     1.0000 0.48870  0.29580  0.61710  Biso   1.000  H
  H118     1.0000 0.01130  0.70420  0.11710  Biso   1.000  H
  H119     1.0000 0.98870  0.20420  0.38290  Biso   1.000  H
  H120     1.0000 0.51130  0.79580  0.88290  Biso   1.000  H
  C169     1.0000 0.17930  0.34130  0.63110  Biso   1.000  C
  C170     1.0000 0.32070  0.65870  0.13110  Biso   1.000  C
  C171     1.0000 0.67930  0.15870  0.36890  Biso   1.000  C
  C172     1.0000 0.82070  0.84130  0.86890  Biso   1.000  C
  H121     1.0000 0.09850  0.33520  0.64850  Biso   1.000  H
  H122     1.0000 0.40150  0.66480  0.14850  Biso   1.000  H
  H123     1.0000 0.59850  0.16480  0.35150  Biso   1.000  H
  H124     1.0000 0.90150  0.83520  0.85150  Biso   1.000  H
  C173     1.0000 0.42470  0.47960  0.33520  Biso   1.000  C
  C174     1.0000 0.07530  0.52040  0.83520  Biso   1.000  C
  C175     1.0000 0.92470  0.02040  0.66480  Biso   1.000  C
  C176     1.0000 0.57530  0.97960  0.16480  Biso   1.000  C
  H125     1.0000 0.47880  0.49720  0.31350  Biso   1.000  H
  H126     1.0000 0.02120  0.50280  0.81350  Biso   1.000  H
  H127     1.0000 0.97880  0.00280  0.68650  Biso   1.000  H
  H128     1.0000 0.52120  0.99720  0.18650  Biso   1.000  H
  C177     1.0000 0.09210  0.72520  0.47630  Biso   1.000  C
  C178     1.0000 0.40790  0.27480  0.97630  Biso   1.000  C
  C179     1.0000 0.59210  0.77480  0.52370  Biso   1.000  C
  C180     1.0000 0.90790  0.22520  0.02370  Biso   1.000  C
  H129     1.0000 0.08730  0.76650  0.47840  Biso   1.000  H
  H130     1.0000 0.41270  0.23350  0.97840  Biso   1.000  H
  H131     1.0000 0.58730  0.73350  0.52160  Biso   1.000  H
  H132     1.0000 0.91270  0.26650  0.02160  Biso   1.000  H
  H133     1.0000 0.00770  0.70860  0.48930  Biso   1.000  H
  H134     1.0000 0.49230  0.29140  0.98930  Biso   1.000  H
  H135     1.0000 0.50770  0.79140  0.51070  Biso   1.000  H
  H136     1.0000 0.99230  0.20860  0.01070  Biso   1.000  H
  H137     1.0000 0.09720  0.71400  0.44610  Biso   1.000  H
  H138     1.0000 0.40280  0.28600  0.94610  Biso   1.000  H
  H139     1.0000 0.59720  0.78600  0.55390  Biso   1.000  H
  H140     1.0000 0.90280  0.21400  0.05390  Biso   1.000  H
  C181     1.0000 0.13890  0.55390  0.65180  Biso   1.000  C
  C182     1.0000 0.36110  0.44610  0.15180  Biso   1.000  C
  C183     1.0000 0.63890  0.94610  0.34820  Biso   1.000  C
  C184     1.0000 0.86110  0.05390  0.84820  Biso   1.000  C
  H141     1.0000 0.10390  0.52320  0.63530  Biso   1.000  H
  H142     1.0000 0.39610  0.47680  0.13530  Biso   1.000  H
  H143     1.0000 0.60390  0.97680  0.36470  Biso   1.000  H
  H144     1.0000 0.89610  0.02320  0.86470  Biso   1.000  H
  C185     1.0000 0.39160  0.51120  0.37240  Biso   1.000  C
  C186     1.0000 0.10840  0.48880  0.87240  Biso   1.000  C
  C187     1.0000 0.89160  0.98880  0.62760  Biso   1.000  C
  C188     1.0000 0.60840  0.01120  0.12760  Biso   1.000  C
  H145     1.0000 0.42920  0.54810  0.37610  Biso   1.000  H
  H146     1.0000 0.07080  0.45190  0.87610  Biso   1.000  H
  H147     1.0000 0.92920  0.95190  0.62390  Biso   1.000  H
  H148     1.0000 0.57080  0.04810  0.12390  Biso   1.000  H
  C189     1.0000 0.32740  0.66810  0.43210  Biso   1.000  C
  C190     1.0000 0.17260  0.33190  0.93210  Biso   1.000  C
  C191     1.0000 0.82740  0.83190  0.56790  Biso   1.000  C
  C192     1.0000 0.67260  0.16810  0.06790  Biso   1.000  C
  H149     1.0000 0.40570  0.64360  0.42340  Biso   1.000  H
  H150     1.0000 0.09430  0.35640  0.92340  Biso   1.000  H
  H151     1.0000 0.90570  0.85640  0.57660  Biso   1.000  H
  H152     1.0000 0.59430  0.14360  0.07660  Biso   1.000  H
  H153     1.0000 0.33910  0.70560  0.41910  Biso   1.000  H
  H154     1.0000 0.16090  0.29440  0.91910  Biso   1.000  H
  H155     1.0000 0.83910  0.79440  0.58090  Biso   1.000  H
  H156     1.0000 0.66090  0.20560  0.08090  Biso   1.000  H
  H157     1.0000 0.23810  0.65150  0.42250  Biso   1.000  H
  H158     1.0000 0.26190  0.34850  0.92250  Biso   1.000  H
  H159     1.0000 0.73810  0.84850  0.57750  Biso   1.000  H
  H160     1.0000 0.76190  0.15150  0.07750  Biso   1.000  H
  C193     1.0000 0.15050  0.98330  0.17930  Biso   1.000  C
  C194     1.0000 0.34950  0.01670  0.67930  Biso   1.000  C
  C195     1.0000 0.65050  0.51670  0.82070  Biso   1.000  C
  C196     1.0000 0.84950  0.48330  0.32070  Biso   1.000  C
  H161     1.0000 0.16780  0.02320  0.18570  Biso   1.000  H
  H162     1.0000 0.33220  0.97680  0.68570  Biso   1.000  H
  H163     1.0000 0.66780  0.47680  0.81430  Biso   1.000  H
  H164     1.0000 0.83220  0.52320  0.31430  Biso   1.000  H
  H165     1.0000 0.07220  0.98010  0.15900  Biso   1.000  H
  H166     1.0000 0.42780  0.01990  0.65900  Biso   1.000  H
  H167     1.0000 0.57220  0.51990  0.84100  Biso   1.000  H
  H168     1.0000 0.92780  0.48010  0.34100  Biso   1.000  H
  H169     1.0000 0.23560  0.96660  0.16680  Biso   1.000  H
  H170     1.0000 0.26440  0.03340  0.66680  Biso   1.000  H
  H171     1.0000 0.73560  0.53340  0.83320  Biso   1.000  H
  H172     1.0000 0.76440  0.46660  0.33320  Biso   1.000  H
  C197     1.0000 0.96190  0.94610  0.23620  Biso   1.000  C
  C198     1.0000 0.53810  0.05390  0.73620  Biso   1.000  C
  C199     1.0000 0.46190  0.55390  0.76380  Biso   1.000  C
  C200     1.0000 0.03810  0.44610  0.26380  Biso   1.000  C
  H173     1.0000 0.93850  0.90590  0.23940  Biso   1.000  H
  H174     1.0000 0.56150  0.09410  0.73940  Biso   1.000  H
  H175     1.0000 0.43850  0.59410  0.76060  Biso   1.000  H
  H176     1.0000 0.06150  0.40590  0.26060  Biso   1.000  H
  H177     1.0000 0.89810  0.96340  0.21530  Biso   1.000  H
  H178     1.0000 0.60190  0.03660  0.71530  Biso   1.000  H
  H179     1.0000 0.39810  0.53660  0.78470  Biso   1.000  H
  H180     1.0000 0.10190  0.46340  0.28470  Biso   1.000  H
  H181     1.0000 0.95160  0.96510  0.26380  Biso   1.000  H
  H182     1.0000 0.54840  0.03490  0.76380  Biso   1.000  H
  H183     1.0000 0.45160  0.53490  0.73620  Biso   1.000  H
  H184     1.0000 0.04840  0.46510  0.23620  Biso   1.000  H
  N37      1.0000 0.28210  0.21940  0.44300  Biso   1.000  N
  N38      1.0000 0.21790  0.78060  0.94300  Biso   1.000  N
  N39      1.0000 0.78210  0.28060  0.55700  Biso   1.000  N
  N40      1.0000 0.71790  0.71940  0.05700  Biso   1.000  N
  O65      1.0000 0.18840  0.30270  0.43960  Biso   1.000  O
  O66      1.0000 0.31160  0.69730  0.93960  Biso   1.000  O
  O67      1.0000 0.68840  0.19730  0.56040  Biso   1.000  O
  O68      1.0000 0.81160  0.80270  0.06040  Biso   1.000  O
  C201     1.0000 0.22700  0.26120  0.46240  Biso   1.000  C
  C202     1.0000 0.27300  0.73880  0.96240  Biso   1.000  C
  C203     1.0000 0.72700  0.23880  0.53760  Biso   1.000  C
  C204     1.0000 0.77300  0.76120  0.03760  Biso   1.000  C
  C205     1.0000 0.32840  0.16260  0.46140  Biso   1.000  C
  C206     1.0000 0.17160  0.83740  0.96140  Biso   1.000  C
  C207     1.0000 0.82840  0.33740  0.53860  Biso   1.000  C
  C208     1.0000 0.67160  0.66260  0.03860  Biso   1.000  C
  H185     1.0000 0.41970  0.16700  0.47570  Biso   1.000  H
  H186     1.0000 0.08030  0.83300  0.97570  Biso   1.000  H
  H187     1.0000 0.91970  0.33300  0.52430  Biso   1.000  H
  H188     1.0000 0.58030  0.66700  0.02430  Biso   1.000  H
  H189     1.0000 0.33730  0.13500  0.43820  Biso   1.000  H
  H190     1.0000 0.16270  0.86500  0.93820  Biso   1.000  H
  H191     1.0000 0.83730  0.36500  0.56180  Biso   1.000  H
  H192     1.0000 0.66270  0.63500  0.06180  Biso   1.000  H
  H193     1.0000 0.25800  0.14940  0.48200  Biso   1.000  H
  H194     1.0000 0.24200  0.85060  0.98200  Biso   1.000  H
  H195     1.0000 0.75800  0.35060  0.51800  Biso   1.000  H
  H196     1.0000 0.74200  0.64940  0.01800  Biso   1.000  H
  C209     1.0000 0.31010  0.22790  0.39540  Biso   1.000  C
  C210     1.0000 0.18990  0.77210  0.89540  Biso   1.000  C
  C211     1.0000 0.81010  0.27210  0.60460  Biso   1.000  C
  C212     1.0000 0.68990  0.72790  0.10460  Biso   1.000  C
  H197     1.0000 0.24240  0.25530  0.38390  Biso   1.000  H
  H198     1.0000 0.25760  0.74470  0.88390  Biso   1.000  H
  H199     1.0000 0.74240  0.24470  0.61610  Biso   1.000  H
  H200     1.0000 0.75760  0.75530  0.11610  Biso   1.000  H
  H201     1.0000 0.29970  0.19180  0.38050  Biso   1.000  H
  H202     1.0000 0.20030  0.80820  0.88050  Biso   1.000  H
  H203     1.0000 0.79970  0.30820  0.61950  Biso   1.000  H
  H204     1.0000 0.70030  0.69180  0.11950  Biso   1.000  H
  H205     1.0000 0.40620  0.24220  0.39140  Biso   1.000  H
  H206     1.0000 0.09380  0.75780  0.89140  Biso   1.000  H
  H207     1.0000 0.90620  0.25780  0.60860  Biso   1.000  H
  H208     1.0000 0.59380  0.74220  0.10860  Biso   1.000  H
  C213     1.0000 0.18500  0.24910  0.50920  Biso   1.000  C
  C214     1.0000 0.31500  0.75090  0.00920  Biso   1.000  C
  C215     1.0000 0.68500  0.25090  0.49080  Biso   1.000  C
  C216     1.0000 0.81500  0.74910  0.99080  Biso   1.000  C
  H209     1.0000 0.14150  0.21160  0.51100  Biso   1.000  H
  H210     1.0000 0.35850  0.78840  0.01100  Biso   1.000  H
  H211     1.0000 0.64150  0.28840  0.48900  Biso   1.000  H
  H212     1.0000 0.85850  0.71160  0.98900  Biso   1.000  H
  H213     1.0000 0.11760  0.27780  0.51880  Biso   1.000  H
  H214     1.0000 0.38240  0.72220  0.01880  Biso   1.000  H
  H215     1.0000 0.61760  0.22220  0.48120  Biso   1.000  H
  H216     1.0000 0.88240  0.77780  0.98120  Biso   1.000  H
  H217     1.0000 0.26920  0.25030  0.52730  Biso   1.000  H
  H218     1.0000 0.23080  0.74970  0.02730  Biso   1.000  H
  H219     1.0000 0.76920  0.24970  0.47270  Biso   1.000  H
  H220     1.0000 0.73080  0.75030  0.97270  Biso   1.000  H
