data_image0
_cell_length_a       9.264
_cell_length_b       23.203
_cell_length_c       30.606
_cell_angle_alpha    90
_cell_angle_beta     90
_cell_angle_gamma    90

_symmetry_space_group_name_H-M    "P 1"
_symmetry_int_tables_number       1

loop_
  _symmetry_equiv_pos_as_xyz
  'x, y, z'

loop_
  _atom_site_label
  _atom_site_occupancy
  _atom_site_fract_x
  _atom_site_fract_y
  _atom_site_fract_z
  _atom_site_thermal_displace_type
  _atom_site_B_iso_or_equiv
  _atom_site_type_symbol
  Ho1      1.0000 0.04230  0.43933  0.48446  Biso   1.000  Ho
  Ho2      1.0000 0.45770  0.56067  0.98446  Biso   1.000  Ho
  Ho3      1.0000 0.54230  0.06067  0.51554  Biso   1.000  Ho
  Ho4      1.0000 0.95770  0.93933  0.01554  Biso   1.000  Ho
  Ho5      1.0000 0.98814  0.53494  0.97829  Biso   1.000  Ho
  Ho6      1.0000 0.51186  0.46506  0.47829  Biso   1.000  Ho
  Ho7      1.0000 0.48814  0.96506  0.02171  Biso   1.000  Ho
  Ho8      1.0000 0.01186  0.03494  0.52171  Biso   1.000  Ho
  I1       1.0000 0.28955  0.10812  0.25104  Biso   1.000  I
  I2       1.0000 0.21045  0.89188  0.75104  Biso   1.000  I
  I3       1.0000 0.78955  0.39188  0.74896  Biso   1.000  I
  I4       1.0000 0.71045  0.60812  0.24896  Biso   1.000  I
  I5       1.0000 0.47835  0.27022  0.21417  Biso   1.000  I
  I6       1.0000 0.02165  0.72978  0.71417  Biso   1.000  I
  I7       1.0000 0.97835  0.22978  0.78583  Biso   1.000  I
  I8       1.0000 0.52165  0.77022  0.28583  Biso   1.000  I
  I9       1.0000 0.98689  0.25548  0.22428  Biso   1.000  I
  I10      1.0000 0.51311  0.74452  0.72428  Biso   1.000  I
  I11      1.0000 0.48689  0.24452  0.77572  Biso   1.000  I
  I12      1.0000 0.01311  0.75548  0.27572  Biso   1.000  I
  Cu1      1.0000 0.54460  0.38069  0.22234  Biso   1.000  Cu
  Cu2      1.0000 0.95540  0.61931  0.72234  Biso   1.000  Cu
  Cu3      1.0000 0.04460  0.11931  0.77766  Biso   1.000  Cu
  Cu4      1.0000 0.45540  0.88069  0.27766  Biso   1.000  Cu
  Cu5      1.0000 0.00600  0.14333  0.24919  Biso   1.000  Cu
  Cu6      1.0000 0.49400  0.85667  0.74919  Biso   1.000  Cu
  Cu7      1.0000 0.50600  0.35667  0.75081  Biso   1.000  Cu
  Cu8      1.0000 0.99400  0.64333  0.25081  Biso   1.000  Cu
  Cu9      1.0000 0.22020  0.26513  0.17594  Biso   1.000  Cu
  Cu10     1.0000 0.27980  0.73487  0.67594  Biso   1.000  Cu
  Cu11     1.0000 0.72020  0.23487  0.82406  Biso   1.000  Cu
  Cu12     1.0000 0.77980  0.76513  0.32406  Biso   1.000  Cu
  Cu13     1.0000 0.24430  0.21799  0.25706  Biso   1.000  Cu
  Cu14     1.0000 0.25570  0.78201  0.75706  Biso   1.000  Cu
  Cu15     1.0000 0.74430  0.28201  0.74294  Biso   1.000  Cu
  Cu16     1.0000 0.75570  0.71799  0.24294  Biso   1.000  Cu
  O1       1.0000 0.35390  0.48370  0.02320  Biso   1.000  O
  O2       1.0000 0.14610  0.51630  0.52320  Biso   1.000  O
  O3       1.0000 0.85390  0.01630  0.97680  Biso   1.000  O
  O4       1.0000 0.64610  0.98370  0.47680  Biso   1.000  O
  O5       1.0000 0.91610  0.52580  0.46000  Biso   1.000  O
  O6       1.0000 0.58390  0.47420  0.96000  Biso   1.000  O
  O7       1.0000 0.41610  0.97420  0.54000  Biso   1.000  O
  O8       1.0000 0.08390  0.02580  0.04000  Biso   1.000  O
  O9       1.0000 0.42450  0.38540  0.43870  Biso   1.000  O
  O10      1.0000 0.07550  0.61460  0.93870  Biso   1.000  O
  O11      1.0000 0.92450  0.11460  0.56130  Biso   1.000  O
  O12      1.0000 0.57550  0.88540  0.06130  Biso   1.000  O
  O13      1.0000 0.19070  0.36730  0.45610  Biso   1.000  O
  O14      1.0000 0.30930  0.63270  0.95610  Biso   1.000  O
  O15      1.0000 0.69070  0.13270  0.54390  Biso   1.000  O
  O16      1.0000 0.80930  0.86730  0.04390  Biso   1.000  O
  O17      1.0000 0.93130  0.41380  0.41650  Biso   1.000  O
  O18      1.0000 0.56870  0.58620  0.91650  Biso   1.000  O
  O19      1.0000 0.43130  0.08620  0.58350  Biso   1.000  O
  O20      1.0000 0.06870  0.91380  0.08350  Biso   1.000  O
  O21      1.0000 0.92530  0.34760  0.49570  Biso   1.000  O
  O22      1.0000 0.57470  0.65240  0.99570  Biso   1.000  O
  O23      1.0000 0.42530  0.15240  0.50430  Biso   1.000  O
  O24      1.0000 0.07470  0.84760  0.00430  Biso   1.000  O
  O25      1.0000 0.86010  0.52590  0.04410  Biso   1.000  O
  O26      1.0000 0.63990  0.47410  0.54410  Biso   1.000  O
  O27      1.0000 0.36010  0.97410  0.95590  Biso   1.000  O
  O28      1.0000 0.13990  0.02590  0.45590  Biso   1.000  O
  O29      1.0000 0.62930  0.54680  0.03760  Biso   1.000  O
  O30      1.0000 0.87070  0.45320  0.53760  Biso   1.000  O
  O31      1.0000 0.12930  0.95320  0.96240  Biso   1.000  O
  O32      1.0000 0.37070  0.04680  0.46240  Biso   1.000  O
  O33      1.0000 0.67680  0.53760  0.46900  Biso   1.000  O
  O34      1.0000 0.82320  0.46240  0.96900  Biso   1.000  O
  O35      1.0000 0.17680  0.96240  0.53100  Biso   1.000  O
  O36      1.0000 0.32320  0.03760  0.03100  Biso   1.000  O
  O37      1.0000 0.12490  0.46420  0.00710  Biso   1.000  O
  O38      1.0000 0.37510  0.53580  0.50710  Biso   1.000  O
  O39      1.0000 0.62490  0.03580  0.99290  Biso   1.000  O
  O40      1.0000 0.87510  0.96420  0.49290  Biso   1.000  O
  N1       1.0000 0.26390  0.25550  0.31780  Biso   1.000  N
  N2       1.0000 0.23610  0.74450  0.81780  Biso   1.000  N
  N3       1.0000 0.76390  0.24450  0.68220  Biso   1.000  N
  N4       1.0000 0.73610  0.75550  0.18220  Biso   1.000  N
  C1       1.0000 0.30370  0.36200  0.43330  Biso   1.000  C
  C2       1.0000 0.19630  0.63800  0.93330  Biso   1.000  C
  C3       1.0000 0.80370  0.13800  0.56670  Biso   1.000  C
  C4       1.0000 0.69630  0.86200  0.06670  Biso   1.000  C
  O41      1.0000 0.70690  0.42630  0.44180  Biso   1.000  O
  O42      1.0000 0.79310  0.57370  0.94180  Biso   1.000  O
  O43      1.0000 0.20690  0.07370  0.55820  Biso   1.000  O
  O44      1.0000 0.29310  0.92630  0.05820  Biso   1.000  O
  N5       1.0000 0.62880  0.39300  0.28190  Biso   1.000  N
  N6       1.0000 0.87120  0.60700  0.78190  Biso   1.000  N
  N7       1.0000 0.12880  0.10700  0.71810  Biso   1.000  N
  N8       1.0000 0.37120  0.89300  0.21810  Biso   1.000  N
  C5       1.0000 0.23810  0.45680  0.02740  Biso   1.000  C
  C6       1.0000 0.26190  0.54320  0.52740  Biso   1.000  C
  C7       1.0000 0.73810  0.04320  0.97260  Biso   1.000  C
  C8       1.0000 0.76190  0.95680  0.47260  Biso   1.000  C
  C9       1.0000 0.73000  0.52210  0.05520  Biso   1.000  C
  C10      1.0000 0.77000  0.47790  0.55520  Biso   1.000  C
  C11      1.0000 0.23000  0.97790  0.94480  Biso   1.000  C
  C12      1.0000 0.27000  0.02210  0.44480  Biso   1.000  C
  O45      1.0000 0.42110  0.51050  0.41330  Biso   1.000  O
  O46      1.0000 0.07890  0.48950  0.91330  Biso   1.000  O
  O47      1.0000 0.92110  0.98950  0.58670  Biso   1.000  O
  O48      1.0000 0.57890  0.01050  0.08670  Biso   1.000  O
  C13      1.0000 0.15670  0.30490  0.37980  Biso   1.000  C
  C14      1.0000 0.34330  0.69510  0.87980  Biso   1.000  C
  C15      1.0000 0.65670  0.19510  0.62020  Biso   1.000  C
  C16      1.0000 0.84330  0.80490  0.12020  Biso   1.000  C
  H1       1.0000 0.07490  0.31460  0.39580  Biso   1.000  H
  H2       1.0000 0.42510  0.68540  0.89580  Biso   1.000  H
  H3       1.0000 0.57490  0.18540  0.60420  Biso   1.000  H
  H4       1.0000 0.92510  0.81460  0.10420  Biso   1.000  H
  C17      1.0000 0.28800  0.39960  0.55630  Biso   1.000  C
  C18      1.0000 0.21200  0.60040  0.05630  Biso   1.000  C
  C19      1.0000 0.78800  0.10040  0.44370  Biso   1.000  C
  C20      1.0000 0.71200  0.89960  0.94370  Biso   1.000  C
  C21      1.0000 0.80050  0.60210  0.42310  Biso   1.000  C
  C22      1.0000 0.69950  0.39790  0.92310  Biso   1.000  C
  C23      1.0000 0.30050  0.89790  0.57690  Biso   1.000  C
  C24      1.0000 0.19950  0.10210  0.07690  Biso   1.000  C
  O49      1.0000 0.20270  0.48130  0.43360  Biso   1.000  O
  O50      1.0000 0.29730  0.51870  0.93360  Biso   1.000  O
  O51      1.0000 0.70270  0.01870  0.56640  Biso   1.000  O
  O52      1.0000 0.79730  0.98130  0.06640  Biso   1.000  O
  C25      1.0000 0.02200  0.55970  0.32370  Biso   1.000  C
  C26      1.0000 0.47800  0.44030  0.82370  Biso   1.000  C
  C27      1.0000 0.52200  0.94030  0.67630  Biso   1.000  C
  C28      1.0000 0.97800  0.05970  0.17630  Biso   1.000  C
  H5       1.0000 0.92430  0.55510  0.31770  Biso   1.000  H
  H6       1.0000 0.57570  0.44490  0.81770  Biso   1.000  H
  H7       1.0000 0.42430  0.94490  0.68230  Biso   1.000  H
  H8       1.0000 0.07570  0.05510  0.18230  Biso   1.000  H
  C29      1.0000 0.23240  0.41250  0.06430  Biso   1.000  C
  C30      1.0000 0.26760  0.58750  0.56430  Biso   1.000  C
  C31      1.0000 0.73240  0.08750  0.93570  Biso   1.000  C
  C32      1.0000 0.76760  0.91250  0.43570  Biso   1.000  C
  N9       1.0000 0.79200  0.69480  0.36510  Biso   1.000  N
  N10      1.0000 0.70800  0.30520  0.86510  Biso   1.000  N
  N11      1.0000 0.29200  0.80520  0.63490  Biso   1.000  N
  N12      1.0000 0.20800  0.19480  0.13490  Biso   1.000  N
  N13      1.0000 0.09550  0.59440  0.29730  Biso   1.000  N
  N14      1.0000 0.40450  0.40560  0.79730  Biso   1.000  N
  N15      1.0000 0.59550  0.90560  0.70270  Biso   1.000  N
  N16      1.0000 0.90450  0.09440  0.20270  Biso   1.000  N
  C33      1.0000 0.52160  0.38150  0.65620  Biso   1.000  C
  C34      1.0000 0.97840  0.61850  0.15620  Biso   1.000  C
  C35      1.0000 0.02160  0.11850  0.34380  Biso   1.000  C
  C36      1.0000 0.47840  0.88150  0.84380  Biso   1.000  C
  H9       1.0000 0.61640  0.38960  0.66400  Biso   1.000  H
  H10      1.0000 0.88360  0.61040  0.16400  Biso   1.000  H
  H11      1.0000 0.11640  0.11040  0.33600  Biso   1.000  H
  H12      1.0000 0.38360  0.88960  0.83600  Biso   1.000  H
  O53      1.0000 0.15170  0.39870  0.54900  Biso   1.000  O
  O54      1.0000 0.34830  0.60130  0.04900  Biso   1.000  O
  O55      1.0000 0.65170  0.10130  0.45100  Biso   1.000  O
  O56      1.0000 0.84830  0.89870  0.95100  Biso   1.000  O
  C37      1.0000 0.73830  0.40930  0.36590  Biso   1.000  C
  C38      1.0000 0.76170  0.59070  0.86590  Biso   1.000  C
  C39      1.0000 0.23830  0.09070  0.63410  Biso   1.000  C
  C40      1.0000 0.26170  0.90930  0.13410  Biso   1.000  C
  N17      1.0000 0.22040  0.33080  0.13280  Biso   1.000  N
  N18      1.0000 0.27960  0.66920  0.63280  Biso   1.000  N
  N19      1.0000 0.72040  0.16920  0.86720  Biso   1.000  N
  N20      1.0000 0.77960  0.83080  0.36720  Biso   1.000  N
  C41      1.0000 0.69630  0.48780  0.09570  Biso   1.000  C
  C42      1.0000 0.80370  0.51220  0.59570  Biso   1.000  C
  C43      1.0000 0.19630  0.01220  0.90430  Biso   1.000  C
  C44      1.0000 0.30370  0.98780  0.40430  Biso   1.000  C
  C45      1.0000 0.82520  0.32600  0.51820  Biso   1.000  C
  C46      1.0000 0.67480  0.67400  0.01820  Biso   1.000  C
  C47      1.0000 0.32520  0.17400  0.48180  Biso   1.000  C
  C48      1.0000 0.17480  0.82600  0.98180  Biso   1.000  C
  O57      1.0000 0.38110  0.41340  0.52970  Biso   1.000  O
  O58      1.0000 0.11890  0.58660  0.02970  Biso   1.000  O
  O59      1.0000 0.88110  0.08660  0.47030  Biso   1.000  O
  O60      1.0000 0.61890  0.91340  0.97030  Biso   1.000  O
  C49      1.0000 0.29260  0.32370  0.39230  Biso   1.000  C
  C50      1.0000 0.20740  0.67630  0.89230  Biso   1.000  C
  C51      1.0000 0.79260  0.17630  0.60770  Biso   1.000  C
  C52      1.0000 0.70740  0.82370  0.10770  Biso   1.000  C
  N21      1.0000 0.71930  0.29470  0.50070  Biso   1.000  N
  N22      1.0000 0.78070  0.70530  0.00070  Biso   1.000  N
  N23      1.0000 0.21930  0.20530  0.49930  Biso   1.000  N
  N24      1.0000 0.28070  0.79470  0.99930  Biso   1.000  N
  C53      1.0000 0.67760  0.61320  0.39840  Biso   1.000  C
  C54      1.0000 0.82240  0.38680  0.89840  Biso   1.000  C
  C55      1.0000 0.17760  0.88680  0.60160  Biso   1.000  C
  C56      1.0000 0.32240  0.11320  0.10160  Biso   1.000  C
  H13      1.0000 0.59550  0.59040  0.40140  Biso   1.000  H
  H14      1.0000 0.90450  0.40960  0.90140  Biso   1.000  H
  H15      1.0000 0.09550  0.90960  0.59860  Biso   1.000  H
  H16      1.0000 0.40450  0.09040  0.09860  Biso   1.000  H
  C57      1.0000 0.10340  0.38620  0.07440  Biso   1.000  C
  C58      1.0000 0.39660  0.61380  0.57440  Biso   1.000  C
  C59      1.0000 0.60340  0.11380  0.92560  Biso   1.000  C
  C60      1.0000 0.89660  0.88620  0.42560  Biso   1.000  C
  H17      1.0000 0.01950  0.39500  0.05910  Biso   1.000  H
  H18      1.0000 0.48050  0.60500  0.55910  Biso   1.000  H
  H19      1.0000 0.51950  0.10500  0.94090  Biso   1.000  H
  H20      1.0000 0.98050  0.89500  0.44090  Biso   1.000  H
  C61      1.0000 0.14690  0.27020  0.34150  Biso   1.000  C
  C62      1.0000 0.35310  0.72980  0.84150  Biso   1.000  C
  C63      1.0000 0.64690  0.22980  0.65850  Biso   1.000  C
  C64      1.0000 0.85310  0.77020  0.15850  Biso   1.000  C
  H21      1.0000 0.05670  0.25720  0.33250  Biso   1.000  H
  H22      1.0000 0.44330  0.74280  0.83250  Biso   1.000  H
  H23      1.0000 0.55670  0.24280  0.66750  Biso   1.000  H
  H24      1.0000 0.94330  0.75720  0.16750  Biso   1.000  H
  C65      1.0000 0.33640  0.38300  0.60200  Biso   1.000  C
  C66      1.0000 0.16360  0.61700  0.10200  Biso   1.000  C
  C67      1.0000 0.83640  0.11700  0.39800  Biso   1.000  C
  C68      1.0000 0.66360  0.88300  0.89800  Biso   1.000  C
  C69      1.0000 0.78180  0.36250  0.33960  Biso   1.000  C
  C70      1.0000 0.71820  0.63750  0.83960  Biso   1.000  C
  C71      1.0000 0.28180  0.13750  0.66040  Biso   1.000  C
  C72      1.0000 0.21820  0.86250  0.16040  Biso   1.000  C
  H25      1.0000 0.84940  0.33640  0.35010  Biso   1.000  H
  H26      1.0000 0.65060  0.66360  0.85010  Biso   1.000  H
  H27      1.0000 0.34940  0.16360  0.64990  Biso   1.000  H
  H28      1.0000 0.15060  0.83640  0.14990  Biso   1.000  H
  C73      1.0000 0.72540  0.35540  0.29870  Biso   1.000  C
  C74      1.0000 0.77460  0.64460  0.79870  Biso   1.000  C
  C75      1.0000 0.22540  0.14460  0.70130  Biso   1.000  C
  C76      1.0000 0.27460  0.85540  0.20130  Biso   1.000  C
  H29      1.0000 0.75420  0.32400  0.28200  Biso   1.000  H
  H30      1.0000 0.74580  0.67600  0.78200  Biso   1.000  H
  H31      1.0000 0.25420  0.17600  0.71800  Biso   1.000  H
  H32      1.0000 0.24580  0.82400  0.21800  Biso   1.000  H
  C77      1.0000 0.21600  0.43040  0.24190  Biso   1.000  C
  C78      1.0000 0.28400  0.56960  0.74190  Biso   1.000  C
  C79      1.0000 0.71600  0.06960  0.75810  Biso   1.000  C
  C80      1.0000 0.78400  0.93040  0.25810  Biso   1.000  C
  C81      1.0000 0.91970  0.63740  0.41750  Biso   1.000  C
  C82      1.0000 0.58030  0.36260  0.91750  Biso   1.000  C
  C83      1.0000 0.41970  0.86260  0.58250  Biso   1.000  C
  C84      1.0000 0.08030  0.13740  0.08250  Biso   1.000  C
  H33      1.0000 0.00410  0.63170  0.43340  Biso   1.000  H
  H34      1.0000 0.49590  0.36830  0.93340  Biso   1.000  H
  H35      1.0000 0.50410  0.86830  0.56660  Biso   1.000  H
  H36      1.0000 0.99590  0.13170  0.06660  Biso   1.000  H
  C85      1.0000 0.34430  0.35650  0.11890  Biso   1.000  C
  C86      1.0000 0.15570  0.64350  0.61890  Biso   1.000  C
  C87      1.0000 0.84430  0.14350  0.88110  Biso   1.000  C
  C88      1.0000 0.65570  0.85650  0.38110  Biso   1.000  C
  H37      1.0000 0.42830  0.34620  0.13360  Biso   1.000  H
  H38      1.0000 0.07170  0.65380  0.63360  Biso   1.000  H
  H39      1.0000 0.92830  0.15380  0.86640  Biso   1.000  H
  H40      1.0000 0.57170  0.84620  0.36640  Biso   1.000  H
  C89      1.0000 0.24030  0.59870  0.30690  Biso   1.000  C
  C90      1.0000 0.25970  0.40130  0.80690  Biso   1.000  C
  C91      1.0000 0.74030  0.90130  0.69310  Biso   1.000  C
  C92      1.0000 0.75970  0.09870  0.19310  Biso   1.000  C
  H41      1.0000 0.29770  0.62220  0.28950  Biso   1.000  H
  H42      1.0000 0.20230  0.37780  0.78950  Biso   1.000  H
  H43      1.0000 0.79770  0.87780  0.71050  Biso   1.000  H
  H44      1.0000 0.70230  0.12220  0.21050  Biso   1.000  H
  C93      1.0000 0.07480  0.53050  0.35840  Biso   1.000  C
  C94      1.0000 0.42520  0.46950  0.85840  Biso   1.000  C
  C95      1.0000 0.57480  0.96950  0.64160  Biso   1.000  C
  C96      1.0000 0.92520  0.03050  0.14160  Biso   1.000  C
  H45      1.0000 0.01550  0.50720  0.37540  Biso   1.000  H
  H46      1.0000 0.48450  0.49280  0.87540  Biso   1.000  H
  H47      1.0000 0.51550  0.99280  0.62460  Biso   1.000  H
  H48      1.0000 0.98450  0.00720  0.12460  Biso   1.000  H
  N25      1.0000 0.43450  0.35970  0.68670  Biso   1.000  N
  N26      1.0000 0.06550  0.64030  0.18670  Biso   1.000  N
  N27      1.0000 0.93450  0.14030  0.31330  Biso   1.000  N
  N28      1.0000 0.56550  0.85970  0.81330  Biso   1.000  N
  C97      1.0000 0.22390  0.53650  0.36800  Biso   1.000  C
  C98      1.0000 0.27610  0.46350  0.86800  Biso   1.000  C
  C99      1.0000 0.72390  0.96350  0.63200  Biso   1.000  C
  C100     1.0000 0.77610  0.03650  0.13200  Biso   1.000  C
  C101     1.0000 0.39040  0.27330  0.33180  Biso   1.000  C
  C102     1.0000 0.10960  0.72670  0.83180  Biso   1.000  C
  C103     1.0000 0.89040  0.22670  0.66820  Biso   1.000  C
  C104     1.0000 0.60960  0.77330  0.16820  Biso   1.000  C
  H49      1.0000 0.47180  0.26250  0.31600  Biso   1.000  H
  H50      1.0000 0.02820  0.73750  0.81600  Biso   1.000  H
  H51      1.0000 0.97180  0.23750  0.68400  Biso   1.000  H
  H52      1.0000 0.52820  0.76250  0.18400  Biso   1.000  H
  C105     1.0000 0.73910  0.43210  0.10250  Biso   1.000  C
  C106     1.0000 0.76090  0.56790  0.60250  Biso   1.000  C
  C107     1.0000 0.23910  0.06790  0.89750  Biso   1.000  C
  C108     1.0000 0.26090  0.93210  0.39750  Biso   1.000  C
  H53      1.0000 0.79740  0.41430  0.08180  Biso   1.000  H
  H54      1.0000 0.70260  0.58570  0.58180  Biso   1.000  H
  H55      1.0000 0.29740  0.08570  0.91820  Biso   1.000  H
  H56      1.0000 0.20260  0.91430  0.41820  Biso   1.000  H
  C109     1.0000 0.69850  0.40130  0.13940  Biso   1.000  C
  C110     1.0000 0.80150  0.59870  0.63940  Biso   1.000  C
  C111     1.0000 0.19850  0.09870  0.86060  Biso   1.000  C
  C112     1.0000 0.30150  0.90130  0.36060  Biso   1.000  C
  H57      1.0000 0.72750  0.36310  0.14220  Biso   1.000  H
  H58      1.0000 0.77250  0.63690  0.64220  Biso   1.000  H
  H59      1.0000 0.22750  0.13690  0.85780  Biso   1.000  H
  H60      1.0000 0.27250  0.86310  0.35780  Biso   1.000  H
  C113     1.0000 0.10230  0.34560  0.10870  Biso   1.000  C
  C114     1.0000 0.39770  0.65440  0.60870  Biso   1.000  C
  C115     1.0000 0.60230  0.15440  0.89130  Biso   1.000  C
  C116     1.0000 0.89770  0.84560  0.39130  Biso   1.000  C
  H61      1.0000 0.01510  0.32770  0.11530  Biso   1.000  H
  H62      1.0000 0.48490  0.67230  0.61530  Biso   1.000  H
  H63      1.0000 0.51510  0.17230  0.88470  Biso   1.000  H
  H64      1.0000 0.98490  0.82770  0.38470  Biso   1.000  H
  C117     1.0000 0.35930  0.39570  0.08570  Biso   1.000  C
  C118     1.0000 0.14070  0.60430  0.58570  Biso   1.000  C
  C119     1.0000 0.85930  0.10430  0.91430  Biso   1.000  C
  C120     1.0000 0.64070  0.89570  0.41430  Biso   1.000  C
  H65      1.0000 0.44900  0.41040  0.07790  Biso   1.000  H
  H66      1.0000 0.05100  0.58960  0.57790  Biso   1.000  H
  H67      1.0000 0.94900  0.08960  0.92210  Biso   1.000  H
  H68      1.0000 0.55100  0.91040  0.42210  Biso   1.000  H
  C121     1.0000 0.24370  0.35970  0.63360  Biso   1.000  C
  C122     1.0000 0.25630  0.64030  0.13360  Biso   1.000  C
  C123     1.0000 0.74370  0.14030  0.36640  Biso   1.000  C
  C124     1.0000 0.75630  0.85970  0.86640  Biso   1.000  C
  H69      1.0000 0.14790  0.35150  0.62700  Biso   1.000  H
  H70      1.0000 0.35210  0.64850  0.12700  Biso   1.000  H
  H71      1.0000 0.64790  0.14850  0.37300  Biso   1.000  H
  H72      1.0000 0.85210  0.85150  0.87300  Biso   1.000  H
  C125     1.0000 0.30270  0.57060  0.34030  Biso   1.000  C
  C126     1.0000 0.19730  0.42940  0.84030  Biso   1.000  C
  C127     1.0000 0.80270  0.92940  0.65970  Biso   1.000  C
  C128     1.0000 0.69730  0.07060  0.15970  Biso   1.000  C
  H73      1.0000 0.40150  0.57430  0.34480  Biso   1.000  H
  H74      1.0000 0.09850  0.42570  0.84480  Biso   1.000  H
  H75      1.0000 0.90150  0.92570  0.65520  Biso   1.000  H
  H76      1.0000 0.59850  0.07430  0.15520  Biso   1.000  H
  C129     1.0000 0.59090  0.43730  0.30690  Biso   1.000  C
  C130     1.0000 0.90910  0.56270  0.80690  Biso   1.000  C
  C131     1.0000 0.09090  0.06270  0.69310  Biso   1.000  C
  C132     1.0000 0.40910  0.93730  0.19310  Biso   1.000  C
  H77      1.0000 0.52470  0.46340  0.29550  Biso   1.000  H
  H78      1.0000 0.97530  0.53660  0.79550  Biso   1.000  H
  H79      1.0000 0.02470  0.03660  0.70450  Biso   1.000  H
  H80      1.0000 0.47530  0.96340  0.20450  Biso   1.000  H
  C133     1.0000 0.41030  0.30740  0.36880  Biso   1.000  C
  C134     1.0000 0.08970  0.69260  0.86880  Biso   1.000  C
  C135     1.0000 0.91030  0.19260  0.63120  Biso   1.000  C
  C136     1.0000 0.58970  0.80740  0.13120  Biso   1.000  C
  H81      1.0000 0.50240  0.31880  0.37720  Biso   1.000  H
  H82      1.0000 0.99760  0.68120  0.87720  Biso   1.000  H
  H83      1.0000 0.00240  0.18120  0.62280  Biso   1.000  H
  H84      1.0000 0.49760  0.81880  0.12280  Biso   1.000  H
  C137     1.0000 0.48030  0.39300  0.61360  Biso   1.000  C
  C138     1.0000 0.01970  0.60700  0.11360  Biso   1.000  C
  C139     1.0000 0.98030  0.10700  0.38640  Biso   1.000  C
  C140     1.0000 0.51970  0.89300  0.88640  Biso   1.000  C
  H85      1.0000 0.54630  0.40690  0.59330  Biso   1.000  H
  H86      1.0000 0.95370  0.59310  0.09330  Biso   1.000  H
  H87      1.0000 0.04630  0.09310  0.40670  Biso   1.000  H
  H88      1.0000 0.45370  0.90690  0.90670  Biso   1.000  H
  C141     1.0000 0.28410  0.50620  0.40810  Biso   1.000  C
  C142     1.0000 0.21590  0.49380  0.90810  Biso   1.000  C
  C143     1.0000 0.78410  0.99380  0.59190  Biso   1.000  C
  C144     1.0000 0.71590  0.00620  0.09190  Biso   1.000  C
  C145     1.0000 0.72500  0.28230  0.45280  Biso   1.000  C
  C146     1.0000 0.77500  0.71770  0.95280  Biso   1.000  C
  C147     1.0000 0.22500  0.21770  0.54720  Biso   1.000  C
  C148     1.0000 0.27500  0.78230  0.04720  Biso   1.000  C
  H89      1.0000 0.65760  0.30640  0.43780  Biso   1.000  H
  H90      1.0000 0.84240  0.69360  0.93780  Biso   1.000  H
  H91      1.0000 0.15760  0.19360  0.56220  Biso   1.000  H
  H92      1.0000 0.34240  0.80640  0.06220  Biso   1.000  H
  H93      1.0000 0.70170  0.24250  0.44780  Biso   1.000  H
  H94      1.0000 0.79830  0.75750  0.94780  Biso   1.000  H
  H95      1.0000 0.20170  0.25750  0.55220  Biso   1.000  H
  H96      1.0000 0.29830  0.74250  0.05220  Biso   1.000  H
  H97      1.0000 0.82100  0.28980  0.44220  Biso   1.000  H
  H98      1.0000 0.67900  0.71020  0.94220  Biso   1.000  H
  H99      1.0000 0.32100  0.21020  0.55780  Biso   1.000  H
  H100     1.0000 0.17900  0.78980  0.05780  Biso   1.000  H
  N29      1.0000 0.61870  0.42530  0.17100  Biso   1.000  N
  N30      1.0000 0.88130  0.57470  0.67100  Biso   1.000  N
  N31      1.0000 0.11870  0.07470  0.82900  Biso   1.000  N
  N32      1.0000 0.38130  0.92530  0.32900  Biso   1.000  N
  O61      1.0000 0.34650  0.43630  0.22920  Biso   1.000  O
  O62      1.0000 0.15350  0.56370  0.72920  Biso   1.000  O
  O63      1.0000 0.84650  0.06370  0.77080  Biso   1.000  O
  O64      1.0000 0.65350  0.93630  0.27080  Biso   1.000  O
  N33      1.0000 0.11250  0.45230  0.21820  Biso   1.000  N
  N34      1.0000 0.38750  0.54770  0.71820  Biso   1.000  N
  N35      1.0000 0.61250  0.04770  0.78180  Biso   1.000  N
  N36      1.0000 0.88750  0.95230  0.28180  Biso   1.000  N
  C149     1.0000 0.79890  0.55070  0.45350  Biso   1.000  C
  C150     1.0000 0.70110  0.44930  0.95350  Biso   1.000  C
  C151     1.0000 0.29890  0.94930  0.54650  Biso   1.000  C
  C152     1.0000 0.20110  0.05070  0.04650  Biso   1.000  C
  C153     1.0000 0.59180  0.27620  0.52320  Biso   1.000  C
  C154     1.0000 0.90820  0.72380  0.02320  Biso   1.000  C
  C155     1.0000 0.09180  0.22380  0.47680  Biso   1.000  C
  C156     1.0000 0.40820  0.77620  0.97680  Biso   1.000  C
  H101     1.0000 0.59240  0.23490  0.52570  Biso   1.000  H
  H102     1.0000 0.90760  0.76510  0.02570  Biso   1.000  H
  H103     1.0000 0.09240  0.26510  0.47430  Biso   1.000  H
  H104     1.0000 0.40760  0.73490  0.97430  Biso   1.000  H
  H105     1.0000 0.50790  0.28810  0.50710  Biso   1.000  H
  H106     1.0000 0.99210  0.71190  0.00710  Biso   1.000  H
  H107     1.0000 0.00790  0.21190  0.49290  Biso   1.000  H
  H108     1.0000 0.49210  0.78810  0.99290  Biso   1.000  H
  H109     1.0000 0.58960  0.29300  0.55180  Biso   1.000  H
  H110     1.0000 0.91040  0.70700  0.05180  Biso   1.000  H
  H111     1.0000 0.08960  0.20700  0.44820  Biso   1.000  H
  H112     1.0000 0.41040  0.79300  0.94820  Biso   1.000  H
  C157     1.0000 0.19100  0.39530  0.28300  Biso   1.000  C
  C158     1.0000 0.30900  0.60470  0.78300  Biso   1.000  C
  C159     1.0000 0.69100  0.10470  0.71700  Biso   1.000  C
  C160     1.0000 0.80900  0.89530  0.21700  Biso   1.000  C
  H113     1.0000 0.14120  0.36030  0.27570  Biso   1.000  H
  H114     1.0000 0.35880  0.63970  0.77570  Biso   1.000  H
  H115     1.0000 0.64120  0.13970  0.72430  Biso   1.000  H
  H116     1.0000 0.85880  0.86030  0.22430  Biso   1.000  H
  H117     1.0000 0.13330  0.41720  0.30320  Biso   1.000  H
  H118     1.0000 0.36670  0.58280  0.80320  Biso   1.000  H
  H119     1.0000 0.63330  0.08280  0.69680  Biso   1.000  H
  H120     1.0000 0.86670  0.91720  0.19680  Biso   1.000  H
  H121     1.0000 0.28190  0.38610  0.29630  Biso   1.000  H
  H122     1.0000 0.21810  0.61390  0.79630  Biso   1.000  H
  H123     1.0000 0.78190  0.11390  0.70370  Biso   1.000  H
  H124     1.0000 0.71810  0.88610  0.20370  Biso   1.000  H
  C161     1.0000 0.57900  0.47940  0.16400  Biso   1.000  C
  C162     1.0000 0.92100  0.52060  0.66400  Biso   1.000  C
  C163     1.0000 0.07900  0.02060  0.83600  Biso   1.000  C
  C164     1.0000 0.42100  0.97940  0.33600  Biso   1.000  C
  H125     1.0000 0.52340  0.49670  0.18550  Biso   1.000  H
  H126     1.0000 0.97660  0.50330  0.68550  Biso   1.000  H
  H127     1.0000 0.02340  0.00330  0.81450  Biso   1.000  H
  H128     1.0000 0.47660  0.99670  0.31450  Biso   1.000  H
  C165     1.0000 0.29710  0.34940  0.67420  Biso   1.000  C
  C166     1.0000 0.20290  0.65060  0.17420  Biso   1.000  C
  C167     1.0000 0.79710  0.15060  0.32580  Biso   1.000  C
  C168     1.0000 0.70290  0.84940  0.82580  Biso   1.000  C
  H129     1.0000 0.23440  0.33410  0.69490  Biso   1.000  H
  H130     1.0000 0.26560  0.66590  0.19490  Biso   1.000  H
  H131     1.0000 0.73440  0.16590  0.30510  Biso   1.000  H
  H132     1.0000 0.76560  0.83410  0.80510  Biso   1.000  H
  C169     1.0000 0.79350  0.41560  0.41260  Biso   1.000  C
  C170     1.0000 0.70650  0.58440  0.91260  Biso   1.000  C
  C171     1.0000 0.29350  0.08440  0.58740  Biso   1.000  C
  C172     1.0000 0.20650  0.91560  0.08740  Biso   1.000  C
  C173     1.0000 0.68010  0.65880  0.36960  Biso   1.000  C
  C174     1.0000 0.81990  0.34120  0.86960  Biso   1.000  C
  C175     1.0000 0.18010  0.84120  0.63040  Biso   1.000  C
  C176     1.0000 0.31990  0.15880  0.13040  Biso   1.000  C
  H133     1.0000 0.59930  0.66490  0.35210  Biso   1.000  H
  H134     1.0000 0.90070  0.33510  0.85210  Biso   1.000  H
  H135     1.0000 0.09930  0.83510  0.64790  Biso   1.000  H
  H136     1.0000 0.40070  0.16490  0.14790  Biso   1.000  H
  C177     1.0000 0.90810  0.68100  0.38760  Biso   1.000  C
  C178     1.0000 0.59190  0.31900  0.88760  Biso   1.000  C
  C179     1.0000 0.40810  0.81900  0.61240  Biso   1.000  C
  C180     1.0000 0.09190  0.18100  0.11240  Biso   1.000  C
  H137     1.0000 0.99020  0.70310  0.38280  Biso   1.000  H
  H138     1.0000 0.50980  0.29690  0.88280  Biso   1.000  H
  H139     1.0000 0.49020  0.79690  0.61720  Biso   1.000  H
  H140     1.0000 0.00980  0.20310  0.11720  Biso   1.000  H
  C181     1.0000 0.64070  0.44740  0.34740  Biso   1.000  C
  C182     1.0000 0.85930  0.55260  0.84740  Biso   1.000  C
  C183     1.0000 0.14070  0.05260  0.65260  Biso   1.000  C
  C184     1.0000 0.35930  0.94740  0.15260  Biso   1.000  C
  H141     1.0000 0.61000  0.47970  0.36290  Biso   1.000  H
  H142     1.0000 0.89000  0.52030  0.86290  Biso   1.000  H
  H143     1.0000 0.11000  0.02030  0.63710  Biso   1.000  H
  H144     1.0000 0.39000  0.97970  0.13710  Biso   1.000  H
  C185     1.0000 0.61200  0.51240  0.12830  Biso   1.000  C
  C186     1.0000 0.88800  0.48760  0.62830  Biso   1.000  C
  C187     1.0000 0.11200  0.98760  0.87170  Biso   1.000  C
  C188     1.0000 0.38800  0.01240  0.37170  Biso   1.000  C
  H145     1.0000 0.57920  0.55010  0.12600  Biso   1.000  H
  H146     1.0000 0.92080  0.44990  0.62600  Biso   1.000  H
  H147     1.0000 0.07920  0.94990  0.87400  Biso   1.000  H
  H148     1.0000 0.42080  0.05010  0.37400  Biso   1.000  H
  C189     1.0000 0.83000  0.33290  0.56810  Biso   1.000  C
  C190     1.0000 0.67000  0.66710  0.06810  Biso   1.000  C
  C191     1.0000 0.33000  0.16710  0.43190  Biso   1.000  C
  C192     1.0000 0.17000  0.83290  0.93190  Biso   1.000  C
  H149     1.0000 0.84050  0.29580  0.58150  Biso   1.000  H
  H150     1.0000 0.65950  0.70420  0.08150  Biso   1.000  H
  H151     1.0000 0.34050  0.20420  0.41850  Biso   1.000  H
  H152     1.0000 0.15950  0.79580  0.91850  Biso   1.000  H
  H153     1.0000 0.74170  0.35040  0.57800  Biso   1.000  H
  H154     1.0000 0.75830  0.64960  0.07800  Biso   1.000  H
  H155     1.0000 0.24170  0.14960  0.42200  Biso   1.000  H
  H156     1.0000 0.25830  0.85040  0.92200  Biso   1.000  H
  H157     1.0000 0.91000  0.35690  0.57610  Biso   1.000  H
  H158     1.0000 0.59000  0.64310  0.07610  Biso   1.000  H
  H159     1.0000 0.41000  0.14310  0.42390  Biso   1.000  H
  H160     1.0000 0.09000  0.85690  0.92390  Biso   1.000  H
  C193     1.0000 0.15700  0.48570  0.18020  Biso   1.000  C
  C194     1.0000 0.34300  0.51430  0.68020  Biso   1.000  C
  C195     1.0000 0.65700  0.01430  0.81980  Biso   1.000  C
  C196     1.0000 0.84300  0.98570  0.31980  Biso   1.000  C
  H161     1.0000 0.16010  0.52580  0.18770  Biso   1.000  H
  H162     1.0000 0.33990  0.47420  0.68770  Biso   1.000  H
  H163     1.0000 0.66010  0.97420  0.81230  Biso   1.000  H
  H164     1.0000 0.83990  0.02580  0.31230  Biso   1.000  H
  H165     1.0000 0.08920  0.47990  0.15690  Biso   1.000  H
  H166     1.0000 0.41080  0.52010  0.65690  Biso   1.000  H
  H167     1.0000 0.58920  0.02010  0.84310  Biso   1.000  H
  H168     1.0000 0.91080  0.97990  0.34310  Biso   1.000  H
  H169     1.0000 0.25110  0.47330  0.17100  Biso   1.000  H
  H170     1.0000 0.24890  0.52670  0.67100  Biso   1.000  H
  H171     1.0000 0.75110  0.02670  0.82900  Biso   1.000  H
  H172     1.0000 0.74890  0.97330  0.32900  Biso   1.000  H
  C197     1.0000 0.96200  0.44820  0.23550  Biso   1.000  C
  C198     1.0000 0.53800  0.55180  0.73550  Biso   1.000  C
  C199     1.0000 0.46200  0.05180  0.76450  Biso   1.000  C
  C200     1.0000 0.03800  0.94820  0.26450  Biso   1.000  C
  H173     1.0000 0.96350  0.42940  0.26340  Biso   1.000  H
  H174     1.0000 0.53650  0.57060  0.76340  Biso   1.000  H
  H175     1.0000 0.46350  0.07060  0.73660  Biso   1.000  H
  H176     1.0000 0.03650  0.92940  0.23660  Biso   1.000  H
  H177     1.0000 0.90380  0.42630  0.21560  Biso   1.000  H
  H178     1.0000 0.59620  0.57370  0.71560  Biso   1.000  H
  H179     1.0000 0.40380  0.07370  0.78440  Biso   1.000  H
  H180     1.0000 0.09620  0.92630  0.28440  Biso   1.000  H
  H181     1.0000 0.92240  0.48610  0.23860  Biso   1.000  H
  H182     1.0000 0.57760  0.51390  0.73860  Biso   1.000  H
  H183     1.0000 0.42240  0.01390  0.76140  Biso   1.000  H
  H184     1.0000 0.07760  0.98610  0.26140  Biso   1.000  H
  N37      1.0000 0.28200  0.71850  0.44330  Biso   1.000  N
  N38      1.0000 0.21800  0.28150  0.94330  Biso   1.000  N
  N39      1.0000 0.78200  0.78150  0.55670  Biso   1.000  N
  N40      1.0000 0.71800  0.21850  0.05670  Biso   1.000  N
  O65      1.0000 0.18600  0.80310  0.44010  Biso   1.000  O
  O66      1.0000 0.31400  0.19690  0.94010  Biso   1.000  O
  O67      1.0000 0.68600  0.69690  0.55990  Biso   1.000  O
  O68      1.0000 0.81400  0.30310  0.05990  Biso   1.000  O
  C201     1.0000 0.32700  0.66250  0.46120  Biso   1.000  C
  C202     1.0000 0.17300  0.33750  0.96120  Biso   1.000  C
  C203     1.0000 0.82700  0.83750  0.53880  Biso   1.000  C
  C204     1.0000 0.67300  0.16250  0.03880  Biso   1.000  C
  H185     1.0000 0.28360  0.65700  0.48940  Biso   1.000  H
  H186     1.0000 0.21640  0.34300  0.98940  Biso   1.000  H
  H187     1.0000 0.78360  0.84300  0.51060  Biso   1.000  H
  H188     1.0000 0.71640  0.15700  0.01060  Biso   1.000  H
  H189     1.0000 0.43000  0.66170  0.46390  Biso   1.000  H
  H190     1.0000 0.07000  0.33830  0.96390  Biso   1.000  H
  H191     1.0000 0.93000  0.83830  0.53610  Biso   1.000  H
  H192     1.0000 0.57000  0.16170  0.03610  Biso   1.000  H
  H193     1.0000 0.29630  0.63220  0.44190  Biso   1.000  H
  H194     1.0000 0.20370  0.36780  0.94190  Biso   1.000  H
  H195     1.0000 0.79630  0.86780  0.55810  Biso   1.000  H
  H196     1.0000 0.70370  0.13220  0.05810  Biso   1.000  H
  C205     1.0000 0.22400  0.75970  0.46240  Biso   1.000  C
  C206     1.0000 0.27600  0.24030  0.96240  Biso   1.000  C
  C207     1.0000 0.72400  0.74030  0.53760  Biso   1.000  C
  C208     1.0000 0.77600  0.25970  0.03760  Biso   1.000  C
  C209     1.0000 0.30900  0.72850  0.39650  Biso   1.000  C
  C210     1.0000 0.19100  0.27150  0.89650  Biso   1.000  C
  C211     1.0000 0.80900  0.77150  0.60350  Biso   1.000  C
  C212     1.0000 0.69100  0.22850  0.10350  Biso   1.000  C
  H197     1.0000 0.39680  0.75000  0.39310  Biso   1.000  H
  H198     1.0000 0.10320  0.25000  0.89310  Biso   1.000  H
  H199     1.0000 0.89680  0.75000  0.60690  Biso   1.000  H
  H200     1.0000 0.60320  0.25000  0.10690  Biso   1.000  H
  H201     1.0000 0.23010  0.74980  0.38410  Biso   1.000  H
  H202     1.0000 0.26990  0.25020  0.88410  Biso   1.000  H
  H203     1.0000 0.73010  0.75020  0.61590  Biso   1.000  H
  H204     1.0000 0.76990  0.24980  0.11590  Biso   1.000  H
  H205     1.0000 0.31800  0.69210  0.38180  Biso   1.000  H
  H206     1.0000 0.18200  0.30790  0.88180  Biso   1.000  H
  H207     1.0000 0.81800  0.80790  0.61820  Biso   1.000  H
  H208     1.0000 0.68200  0.19210  0.11820  Biso   1.000  H
  C213     1.0000 0.18000  0.74940  0.50970  Biso   1.000  C
  C214     1.0000 0.32000  0.25060  0.00970  Biso   1.000  C
  C215     1.0000 0.68000  0.75060  0.49030  Biso   1.000  C
  C216     1.0000 0.82000  0.24940  0.99030  Biso   1.000  C
  H209     1.0000 0.16770  0.70890  0.51450  Biso   1.000  H
  H210     1.0000 0.33230  0.29110  0.01450  Biso   1.000  H
  H211     1.0000 0.66770  0.79110  0.48550  Biso   1.000  H
  H212     1.0000 0.83230  0.20890  0.98550  Biso   1.000  H
  H213     1.0000 0.09130  0.76910  0.51560  Biso   1.000  H
  H214     1.0000 0.40870  0.23090  0.01560  Biso   1.000  H
  H215     1.0000 0.59130  0.73090  0.48440  Biso   1.000  H
  H216     1.0000 0.90870  0.26910  0.98440  Biso   1.000  H
  H217     1.0000 0.25430  0.76380  0.52880  Biso   1.000  H
  H218     1.0000 0.24570  0.23620  0.02880  Biso   1.000  H
  H219     1.0000 0.75430  0.73620  0.47120  Biso   1.000  H
  H220     1.0000 0.74570  0.26380  0.97120  Biso   1.000  H
