data_image0
_cell_length_a       21.0434
_cell_length_b       21.0434
_cell_length_c       12.7594
_cell_angle_alpha    90
_cell_angle_beta     90
_cell_angle_gamma    90

_symmetry_space_group_name_H-M    "P 1"
_symmetry_int_tables_number       1

loop_
  _symmetry_equiv_pos_as_xyz
  'x, y, z'

loop_
  _atom_site_label
  _atom_site_occupancy
  _atom_site_fract_x
  _atom_site_fract_y
  _atom_site_fract_z
  _atom_site_thermal_displace_type
  _atom_site_B_iso_or_equiv
  _atom_site_type_symbol
  W1       1.0000 0.08798  0.32927  0.17868  Biso   1.000  W
  W2       1.0000 0.91202  0.17073  0.17868  Biso   1.000  W
  W3       1.0000 0.08798  0.67073  0.82132  Biso   1.000  W
  W4       1.0000 0.91202  0.82927  0.82132  Biso   1.000  W
  W5       1.0000 0.92073  0.16202  0.57132  Biso   1.000  W
  W6       1.0000 0.57927  0.83798  0.07132  Biso   1.000  W
  W7       1.0000 0.57927  0.16202  0.92868  Biso   1.000  W
  W8       1.0000 0.92073  0.83798  0.42868  Biso   1.000  W
  W9       1.0000 0.58798  0.82927  0.67868  Biso   1.000  W
  W10      1.0000 0.41202  0.67073  0.67868  Biso   1.000  W
  W11      1.0000 0.58798  0.17073  0.32132  Biso   1.000  W
  W12      1.0000 0.41202  0.32927  0.32132  Biso   1.000  W
  W13      1.0000 0.42073  0.66202  0.07132  Biso   1.000  W
  W14      1.0000 0.07927  0.33798  0.57132  Biso   1.000  W
  W15      1.0000 0.07927  0.66202  0.42868  Biso   1.000  W
  W16      1.0000 0.42073  0.33798  0.92868  Biso   1.000  W
  W17      1.0000 0.91202  0.67073  0.82132  Biso   1.000  W
  W18      1.0000 0.08798  0.82927  0.82132  Biso   1.000  W
  W19      1.0000 0.91202  0.32927  0.17868  Biso   1.000  W
  W20      1.0000 0.08798  0.17073  0.17868  Biso   1.000  W
  W21      1.0000 0.57927  0.33798  0.92868  Biso   1.000  W
  W22      1.0000 0.92073  0.66202  0.42868  Biso   1.000  W
  W23      1.0000 0.92073  0.33798  0.57132  Biso   1.000  W
  W24      1.0000 0.57927  0.66202  0.07132  Biso   1.000  W
  W25      1.0000 0.41202  0.17073  0.32132  Biso   1.000  W
  W26      1.0000 0.58798  0.32927  0.32132  Biso   1.000  W
  W27      1.0000 0.41202  0.82927  0.67868  Biso   1.000  W
  W28      1.0000 0.58798  0.67073  0.67868  Biso   1.000  W
  W29      1.0000 0.07927  0.83798  0.42868  Biso   1.000  W
  W30      1.0000 0.42073  0.16202  0.92868  Biso   1.000  W
  W31      1.0000 0.42073  0.83798  0.07132  Biso   1.000  W
  W32      1.0000 0.07927  0.16202  0.57132  Biso   1.000  W
  O1       1.0000 0.00000  0.32620  0.14290  Biso   1.000  O
  O2       1.0000 0.00000  0.17380  0.14290  Biso   1.000  O
  O3       1.0000 0.00000  0.67380  0.85710  Biso   1.000  O
  O4       1.0000 0.00000  0.82620  0.85710  Biso   1.000  O
  O5       1.0000 0.92380  0.25000  0.60710  Biso   1.000  O
  O6       1.0000 0.57620  0.75000  0.10710  Biso   1.000  O
  O7       1.0000 0.57620  0.25000  0.89290  Biso   1.000  O
  O8       1.0000 0.92380  0.75000  0.39290  Biso   1.000  O
  O9       1.0000 0.50000  0.82620  0.64290  Biso   1.000  O
  O10      1.0000 0.50000  0.67380  0.64290  Biso   1.000  O
  O11      1.0000 0.50000  0.17380  0.35710  Biso   1.000  O
  O12      1.0000 0.50000  0.32620  0.35710  Biso   1.000  O
  O13      1.0000 0.42380  0.75000  0.10710  Biso   1.000  O
  O14      1.0000 0.07620  0.25000  0.60710  Biso   1.000  O
  O15      1.0000 0.07620  0.75000  0.39290  Biso   1.000  O
  O16      1.0000 0.42380  0.25000  0.89290  Biso   1.000  O
  O17      1.0000 0.16460  0.31480  0.25690  Biso   1.000  O
  O18      1.0000 0.83540  0.18520  0.25690  Biso   1.000  O
  O19      1.0000 0.16460  0.68520  0.74310  Biso   1.000  O
  O20      1.0000 0.83540  0.81480  0.74310  Biso   1.000  O
  O21      1.0000 0.93520  0.08540  0.49310  Biso   1.000  O
  O22      1.0000 0.56480  0.91460  0.99310  Biso   1.000  O
  O23      1.0000 0.56480  0.08540  0.00690  Biso   1.000  O
  O24      1.0000 0.93520  0.91460  0.50690  Biso   1.000  O
  O25      1.0000 0.66460  0.81480  0.75690  Biso   1.000  O
  O26      1.0000 0.33540  0.68520  0.75690  Biso   1.000  O
  O27      1.0000 0.66460  0.18520  0.24310  Biso   1.000  O
  O28      1.0000 0.33540  0.31480  0.24310  Biso   1.000  O
  O29      1.0000 0.43520  0.58540  0.99310  Biso   1.000  O
  O30      1.0000 0.06480  0.41460  0.49310  Biso   1.000  O
  O31      1.0000 0.06480  0.58540  0.50690  Biso   1.000  O
  O32      1.0000 0.43520  0.41460  0.00690  Biso   1.000  O
  O33      1.0000 0.83540  0.68520  0.74310  Biso   1.000  O
  O34      1.0000 0.16460  0.81480  0.74310  Biso   1.000  O
  O35      1.0000 0.83540  0.31480  0.25690  Biso   1.000  O
  O36      1.0000 0.16460  0.18520  0.25690  Biso   1.000  O
  O37      1.0000 0.56480  0.41460  0.00690  Biso   1.000  O
  O38      1.0000 0.93520  0.58540  0.50690  Biso   1.000  O
  O39      1.0000 0.93520  0.41460  0.49310  Biso   1.000  O
  O40      1.0000 0.56480  0.58540  0.99310  Biso   1.000  O
  O41      1.0000 0.33540  0.18520  0.24310  Biso   1.000  O
  O42      1.0000 0.66460  0.31480  0.24310  Biso   1.000  O
  O43      1.0000 0.33540  0.81480  0.75690  Biso   1.000  O
  O44      1.0000 0.66460  0.68520  0.75690  Biso   1.000  O
  O45      1.0000 0.06480  0.91460  0.50690  Biso   1.000  O
  O46      1.0000 0.43520  0.08540  0.00690  Biso   1.000  O
  O47      1.0000 0.43520  0.91460  0.99310  Biso   1.000  O
  O48      1.0000 0.06480  0.08540  0.49310  Biso   1.000  O
  O49      1.0000 0.06280  0.25000  0.30040  Biso   1.000  O
  O50      1.0000 0.93720  0.25000  0.30040  Biso   1.000  O
  O51      1.0000 0.06280  0.75000  0.69960  Biso   1.000  O
  O52      1.0000 0.93720  0.75000  0.69960  Biso   1.000  O
  O53      1.0000 0.00000  0.18720  0.44960  Biso   1.000  O
  O54      1.0000 0.50000  0.81280  0.94960  Biso   1.000  O
  O55      1.0000 0.50000  0.18720  0.05040  Biso   1.000  O
  O56      1.0000 0.00000  0.81280  0.55040  Biso   1.000  O
  O57      1.0000 0.56280  0.75000  0.80040  Biso   1.000  O
  O58      1.0000 0.43720  0.75000  0.80040  Biso   1.000  O
  O59      1.0000 0.56280  0.25000  0.19960  Biso   1.000  O
  O60      1.0000 0.43720  0.25000  0.19960  Biso   1.000  O
  O61      1.0000 0.50000  0.68720  0.94960  Biso   1.000  O
  O62      1.0000 0.00000  0.31280  0.44960  Biso   1.000  O
  O63      1.0000 0.00000  0.68720  0.55040  Biso   1.000  O
  O64      1.0000 0.50000  0.31280  0.05040  Biso   1.000  O
  O65      1.0000 0.06250  0.38630  0.28740  Biso   1.000  O
  O66      1.0000 0.93750  0.11370  0.28740  Biso   1.000  O
  O67      1.0000 0.06250  0.61370  0.71260  Biso   1.000  O
  O68      1.0000 0.93750  0.88630  0.71260  Biso   1.000  O
  O69      1.0000 0.86370  0.18750  0.46260  Biso   1.000  O
  O70      1.0000 0.63630  0.81250  0.96260  Biso   1.000  O
  O71      1.0000 0.63630  0.18750  0.03740  Biso   1.000  O
  O72      1.0000 0.86370  0.81250  0.53740  Biso   1.000  O
  O73      1.0000 0.56250  0.88630  0.78740  Biso   1.000  O
  O74      1.0000 0.43750  0.61370  0.78740  Biso   1.000  O
  O75      1.0000 0.56250  0.11370  0.21260  Biso   1.000  O
  O76      1.0000 0.43750  0.38630  0.21260  Biso   1.000  O
  O77      1.0000 0.36370  0.68750  0.96260  Biso   1.000  O
  O78      1.0000 0.13630  0.31250  0.46260  Biso   1.000  O
  O79      1.0000 0.13630  0.68750  0.53740  Biso   1.000  O
  O80      1.0000 0.36370  0.31250  0.03740  Biso   1.000  O
  O81      1.0000 0.93750  0.61370  0.71260  Biso   1.000  O
  O82      1.0000 0.06250  0.88630  0.71260  Biso   1.000  O
  O83      1.0000 0.93750  0.38630  0.28740  Biso   1.000  O
  O84      1.0000 0.06250  0.11370  0.28740  Biso   1.000  O
  O85      1.0000 0.63630  0.31250  0.03740  Biso   1.000  O
  O86      1.0000 0.86370  0.68750  0.53740  Biso   1.000  O
  O87      1.0000 0.86370  0.31250  0.46260  Biso   1.000  O
  O88      1.0000 0.63630  0.68750  0.96260  Biso   1.000  O
  O89      1.0000 0.43750  0.11370  0.21260  Biso   1.000  O
  O90      1.0000 0.56250  0.38630  0.21260  Biso   1.000  O
  O91      1.0000 0.43750  0.88630  0.78740  Biso   1.000  O
  O92      1.0000 0.56250  0.61370  0.78740  Biso   1.000  O
  O93      1.0000 0.13630  0.81250  0.53740  Biso   1.000  O
  O94      1.0000 0.36370  0.18750  0.03740  Biso   1.000  O
  O95      1.0000 0.36370  0.81250  0.96260  Biso   1.000  O
  O96      1.0000 0.13630  0.18750  0.46260  Biso   1.000  O
  O97      1.0000 0.11640  0.38200  0.08730  Biso   1.000  O
  O98      1.0000 0.88360  0.11800  0.08730  Biso   1.000  O
  O99      1.0000 0.11640  0.61800  0.91270  Biso   1.000  O
  O100     1.0000 0.88360  0.88200  0.91270  Biso   1.000  O
  O101     1.0000 0.86800  0.13360  0.66270  Biso   1.000  O
  O102     1.0000 0.63200  0.86640  0.16270  Biso   1.000  O
  O103     1.0000 0.63200  0.13360  0.83730  Biso   1.000  O
  O104     1.0000 0.86800  0.86640  0.33730  Biso   1.000  O
  O105     1.0000 0.61640  0.88200  0.58730  Biso   1.000  O
  O106     1.0000 0.38360  0.61800  0.58730  Biso   1.000  O
  O107     1.0000 0.61640  0.11800  0.41270  Biso   1.000  O
  O108     1.0000 0.38360  0.38200  0.41270  Biso   1.000  O
  O109     1.0000 0.36800  0.63360  0.16270  Biso   1.000  O
  O110     1.0000 0.13200  0.36640  0.66270  Biso   1.000  O
  O111     1.0000 0.13200  0.63360  0.33730  Biso   1.000  O
  O112     1.0000 0.36800  0.36640  0.83730  Biso   1.000  O
  O113     1.0000 0.88360  0.61800  0.91270  Biso   1.000  O
  O114     1.0000 0.11640  0.88200  0.91270  Biso   1.000  O
  O115     1.0000 0.88360  0.38200  0.08730  Biso   1.000  O
  O116     1.0000 0.11640  0.11800  0.08730  Biso   1.000  O
  O117     1.0000 0.63200  0.36640  0.83730  Biso   1.000  O
  O118     1.0000 0.86800  0.63360  0.33730  Biso   1.000  O
  O119     1.0000 0.86800  0.36640  0.66270  Biso   1.000  O
  O120     1.0000 0.63200  0.63360  0.16270  Biso   1.000  O
  O121     1.0000 0.38360  0.11800  0.41270  Biso   1.000  O
  O122     1.0000 0.61640  0.38200  0.41270  Biso   1.000  O
  O123     1.0000 0.38360  0.88200  0.58730  Biso   1.000  O
  O124     1.0000 0.61640  0.61800  0.58730  Biso   1.000  O
  O125     1.0000 0.13200  0.86640  0.33730  Biso   1.000  O
  O126     1.0000 0.36800  0.13360  0.83730  Biso   1.000  O
  O127     1.0000 0.36800  0.86640  0.16270  Biso   1.000  O
  O128     1.0000 0.13200  0.13360  0.66270  Biso   1.000  O
  O129     1.0000 0.09970  0.25000  0.10830  Biso   1.000  O
  O130     1.0000 0.90030  0.25000  0.10830  Biso   1.000  O
  O131     1.0000 0.09970  0.75000  0.89170  Biso   1.000  O
  O132     1.0000 0.90030  0.75000  0.89170  Biso   1.000  O
  O133     1.0000 0.00000  0.15030  0.64170  Biso   1.000  O
  O134     1.0000 0.50000  0.84970  0.14170  Biso   1.000  O
  O135     1.0000 0.50000  0.15030  0.85830  Biso   1.000  O
  O136     1.0000 0.00000  0.84970  0.35830  Biso   1.000  O
  O137     1.0000 0.59970  0.75000  0.60830  Biso   1.000  O
  O138     1.0000 0.40030  0.75000  0.60830  Biso   1.000  O
  O139     1.0000 0.59970  0.25000  0.39170  Biso   1.000  O
  O140     1.0000 0.40030  0.25000  0.39170  Biso   1.000  O
  O141     1.0000 0.50000  0.65030  0.14170  Biso   1.000  O
  O142     1.0000 0.00000  0.34970  0.64170  Biso   1.000  O
  O143     1.0000 0.00000  0.65030  0.35830  Biso   1.000  O
  O144     1.0000 0.50000  0.34970  0.85830  Biso   1.000  O
  W33      1.0000 0.16765  0.25000  0.36477  Biso   1.000  W
  W34      1.0000 0.83235  0.25000  0.36477  Biso   1.000  W
  W35      1.0000 0.16765  0.75000  0.63523  Biso   1.000  W
  W36      1.0000 0.83235  0.75000  0.63523  Biso   1.000  W
  W37      1.0000 0.00000  0.08235  0.38523  Biso   1.000  W
  W38      1.0000 0.50000  0.91765  0.88523  Biso   1.000  W
  W39      1.0000 0.50000  0.08235  0.11477  Biso   1.000  W
  W40      1.0000 0.00000  0.91765  0.61477  Biso   1.000  W
  W41      1.0000 0.66765  0.75000  0.86477  Biso   1.000  W
  W42      1.0000 0.33235  0.75000  0.86477  Biso   1.000  W
  W43      1.0000 0.66765  0.25000  0.13523  Biso   1.000  W
  W44      1.0000 0.33235  0.25000  0.13523  Biso   1.000  W
  W45      1.0000 0.50000  0.58235  0.88523  Biso   1.000  W
  W46      1.0000 0.00000  0.41765  0.38523  Biso   1.000  W
  W47      1.0000 0.00000  0.58235  0.61477  Biso   1.000  W
  W48      1.0000 0.50000  0.41765  0.11477  Biso   1.000  W
  Si1      1.0000 0.00000  0.25000  0.37500  Biso   1.000  Si
  Si2      1.0000 0.00000  0.75000  0.62500  Biso   1.000  Si
  Si3      1.0000 0.50000  0.75000  0.87500  Biso   1.000  Si
  Si4      1.0000 0.50000  0.25000  0.12500  Biso   1.000  Si
  Cu1      1.0000 0.13693  0.49697  0.11731  Biso   1.000  Cu
  Cu2      1.0000 0.86307  0.00303  0.11731  Biso   1.000  Cu
  Cu3      1.0000 0.13693  0.50303  0.88269  Biso   1.000  Cu
  Cu4      1.0000 0.86307  0.99697  0.88269  Biso   1.000  Cu
  Cu5      1.0000 0.75303  0.11307  0.63269  Biso   1.000  Cu
  Cu6      1.0000 0.74697  0.88693  0.13269  Biso   1.000  Cu
  Cu7      1.0000 0.74697  0.11307  0.86731  Biso   1.000  Cu
  Cu8      1.0000 0.75303  0.88693  0.36731  Biso   1.000  Cu
  Cu9      1.0000 0.63693  0.99697  0.61731  Biso   1.000  Cu
  Cu10     1.0000 0.36307  0.50303  0.61731  Biso   1.000  Cu
  Cu11     1.0000 0.63693  0.00303  0.38269  Biso   1.000  Cu
  Cu12     1.0000 0.36307  0.49697  0.38269  Biso   1.000  Cu
  Cu13     1.0000 0.25303  0.61307  0.13269  Biso   1.000  Cu
  Cu14     1.0000 0.24697  0.38693  0.63269  Biso   1.000  Cu
  Cu15     1.0000 0.24697  0.61307  0.36731  Biso   1.000  Cu
  Cu16     1.0000 0.25303  0.38693  0.86731  Biso   1.000  Cu
  Cu17     1.0000 0.86307  0.50303  0.88269  Biso   1.000  Cu
  Cu18     1.0000 0.13693  0.99697  0.88269  Biso   1.000  Cu
  Cu19     1.0000 0.86307  0.49697  0.11731  Biso   1.000  Cu
  Cu20     1.0000 0.13693  0.00303  0.11731  Biso   1.000  Cu
  Cu21     1.0000 0.74697  0.38693  0.86731  Biso   1.000  Cu
  Cu22     1.0000 0.75303  0.61307  0.36731  Biso   1.000  Cu
  Cu23     1.0000 0.75303  0.38693  0.63269  Biso   1.000  Cu
  Cu24     1.0000 0.74697  0.61307  0.13269  Biso   1.000  Cu
  Cu25     1.0000 0.36307  0.00303  0.38269  Biso   1.000  Cu
  Cu26     1.0000 0.63693  0.49697  0.38269  Biso   1.000  Cu
  Cu27     1.0000 0.36307  0.99697  0.61731  Biso   1.000  Cu
  Cu28     1.0000 0.63693  0.50303  0.61731  Biso   1.000  Cu
  Cu29     1.0000 0.24697  0.88693  0.36731  Biso   1.000  Cu
  Cu30     1.0000 0.25303  0.11307  0.86731  Biso   1.000  Cu
  Cu31     1.0000 0.25303  0.88693  0.13269  Biso   1.000  Cu
  Cu32     1.0000 0.24697  0.11307  0.63269  Biso   1.000  Cu
  O145     1.0000 0.24640  0.25000  0.39470  Biso   1.000  O
  O146     1.0000 0.75360  0.25000  0.39470  Biso   1.000  O
  O147     1.0000 0.24640  0.75000  0.60530  Biso   1.000  O
  O148     1.0000 0.75360  0.75000  0.60530  Biso   1.000  O
  O149     1.0000 0.00000  0.00360  0.35530  Biso   1.000  O
  O150     1.0000 0.50000  0.99640  0.85530  Biso   1.000  O
  O151     1.0000 0.50000  0.00360  0.14470  Biso   1.000  O
  O152     1.0000 0.00000  0.99640  0.64470  Biso   1.000  O
  O153     1.0000 0.74640  0.75000  0.89470  Biso   1.000  O
  O154     1.0000 0.25360  0.75000  0.89470  Biso   1.000  O
  O155     1.0000 0.74640  0.25000  0.10530  Biso   1.000  O
  O156     1.0000 0.25360  0.25000  0.10530  Biso   1.000  O
  O157     1.0000 0.50000  0.50360  0.85530  Biso   1.000  O
  O158     1.0000 0.00000  0.49640  0.35530  Biso   1.000  O
  O159     1.0000 0.00000  0.50360  0.64470  Biso   1.000  O
  O160     1.0000 0.50000  0.49640  0.14470  Biso   1.000  O
  C1       1.0000 0.05220  0.52570  0.12280  Biso   1.000  C
  C2       1.0000 0.94780  0.97430  0.12280  Biso   1.000  C
  C3       1.0000 0.05220  0.47430  0.87720  Biso   1.000  C
  C4       1.0000 0.94780  0.02570  0.87720  Biso   1.000  C
  C5       1.0000 0.72430  0.19780  0.62720  Biso   1.000  C
  C6       1.0000 0.77570  0.80220  0.12720  Biso   1.000  C
  C7       1.0000 0.77570  0.19780  0.87280  Biso   1.000  C
  C8       1.0000 0.72430  0.80220  0.37280  Biso   1.000  C
  C9       1.0000 0.55220  0.02570  0.62280  Biso   1.000  C
  C10      1.0000 0.44780  0.47430  0.62280  Biso   1.000  C
  C11      1.0000 0.55220  0.97430  0.37720  Biso   1.000  C
  C12      1.0000 0.44780  0.52570  0.37720  Biso   1.000  C
  C13      1.0000 0.22430  0.69780  0.12720  Biso   1.000  C
  C14      1.0000 0.27570  0.30220  0.62720  Biso   1.000  C
  C15      1.0000 0.27570  0.69780  0.37280  Biso   1.000  C
  C16      1.0000 0.22430  0.30220  0.87280  Biso   1.000  C
  C17      1.0000 0.94780  0.47430  0.87720  Biso   1.000  C
  C18      1.0000 0.05220  0.02570  0.87720  Biso   1.000  C
  C19      1.0000 0.94780  0.52570  0.12280  Biso   1.000  C
  C20      1.0000 0.05220  0.97430  0.12280  Biso   1.000  C
  C21      1.0000 0.77570  0.30220  0.87280  Biso   1.000  C
  C22      1.0000 0.72430  0.69780  0.37280  Biso   1.000  C
  C23      1.0000 0.72430  0.30220  0.62720  Biso   1.000  C
  C24      1.0000 0.77570  0.69780  0.12720  Biso   1.000  C
  C25      1.0000 0.44780  0.97430  0.37720  Biso   1.000  C
  C26      1.0000 0.55220  0.52570  0.37720  Biso   1.000  C
  C27      1.0000 0.44780  0.02570  0.62280  Biso   1.000  C
  C28      1.0000 0.55220  0.47430  0.62280  Biso   1.000  C
  C29      1.0000 0.27570  0.80220  0.37280  Biso   1.000  C
  C30      1.0000 0.22430  0.19780  0.87280  Biso   1.000  C
  C31      1.0000 0.22430  0.80220  0.12720  Biso   1.000  C
  C32      1.0000 0.27570  0.19780  0.62720  Biso   1.000  C
  N1       1.0000 0.22480  0.47870  0.12390  Biso   1.000  N
  N2       1.0000 0.77520  0.02130  0.12390  Biso   1.000  N
  N3       1.0000 0.22480  0.52130  0.87610  Biso   1.000  N
  N4       1.0000 0.77520  0.97870  0.87610  Biso   1.000  N
  N5       1.0000 0.77130  0.02520  0.62610  Biso   1.000  N
  N6       1.0000 0.72870  0.97480  0.12610  Biso   1.000  N
  N7       1.0000 0.72870  0.02520  0.87390  Biso   1.000  N
  N8       1.0000 0.77130  0.97480  0.37390  Biso   1.000  N
  N9       1.0000 0.72480  0.97870  0.62390  Biso   1.000  N
  N10      1.0000 0.27520  0.52130  0.62390  Biso   1.000  N
  N11      1.0000 0.72480  0.02130  0.37610  Biso   1.000  N
  N12      1.0000 0.27520  0.47870  0.37610  Biso   1.000  N
  N13      1.0000 0.27130  0.52520  0.12610  Biso   1.000  N
  N14      1.0000 0.22870  0.47480  0.62610  Biso   1.000  N
  N15      1.0000 0.22870  0.52520  0.37390  Biso   1.000  N
  N16      1.0000 0.27130  0.47480  0.87390  Biso   1.000  N
  N17      1.0000 0.77520  0.52130  0.87610  Biso   1.000  N
  N18      1.0000 0.22480  0.97870  0.87610  Biso   1.000  N
  N19      1.0000 0.77520  0.47870  0.12390  Biso   1.000  N
  N20      1.0000 0.22480  0.02130  0.12390  Biso   1.000  N
  N21      1.0000 0.72870  0.47480  0.87390  Biso   1.000  N
  N22      1.0000 0.77130  0.52520  0.37390  Biso   1.000  N
  N23      1.0000 0.77130  0.47480  0.62610  Biso   1.000  N
  N24      1.0000 0.72870  0.52520  0.12610  Biso   1.000  N
  N25      1.0000 0.27520  0.02130  0.37610  Biso   1.000  N
  N26      1.0000 0.72480  0.47870  0.37610  Biso   1.000  N
  N27      1.0000 0.27520  0.97870  0.62390  Biso   1.000  N
  N28      1.0000 0.72480  0.52130  0.62390  Biso   1.000  N
  N29      1.0000 0.22870  0.97480  0.37390  Biso   1.000  N
  N30      1.0000 0.27130  0.02520  0.87390  Biso   1.000  N
  N31      1.0000 0.27130  0.97480  0.12610  Biso   1.000  N
  N32      1.0000 0.22870  0.02520  0.62610  Biso   1.000  N
  N33      1.0000 0.00000  0.49020  0.11950  Biso   1.000  N
  N34      1.0000 0.00000  0.00980  0.11950  Biso   1.000  N
  N35      1.0000 0.00000  0.50980  0.88050  Biso   1.000  N
  N36      1.0000 0.00000  0.99020  0.88050  Biso   1.000  N
  N37      1.0000 0.75980  0.25000  0.63050  Biso   1.000  N
  N38      1.0000 0.74020  0.75000  0.13050  Biso   1.000  N
  N39      1.0000 0.74020  0.25000  0.86950  Biso   1.000  N
  N40      1.0000 0.75980  0.75000  0.36950  Biso   1.000  N
  N41      1.0000 0.50000  0.99020  0.61950  Biso   1.000  N
  N42      1.0000 0.50000  0.50980  0.61950  Biso   1.000  N
  N43      1.0000 0.50000  0.00980  0.38050  Biso   1.000  N
  N44      1.0000 0.50000  0.49020  0.38050  Biso   1.000  N
  N45      1.0000 0.25980  0.75000  0.13050  Biso   1.000  N
  N46      1.0000 0.24020  0.25000  0.63050  Biso   1.000  N
  N47      1.0000 0.24020  0.75000  0.36950  Biso   1.000  N
  N48      1.0000 0.25980  0.25000  0.86950  Biso   1.000  N
  N49      1.0000 0.03200  0.58590  0.13130  Biso   1.000  N
  N50      1.0000 0.96800  0.91410  0.13130  Biso   1.000  N
  N51      1.0000 0.03200  0.41410  0.86870  Biso   1.000  N
  N52      1.0000 0.96800  0.08590  0.86870  Biso   1.000  N
  N53      1.0000 0.66410  0.21800  0.61870  Biso   1.000  N
  N54      1.0000 0.83590  0.78200  0.11870  Biso   1.000  N
  N55      1.0000 0.83590  0.21800  0.88130  Biso   1.000  N
  N56      1.0000 0.66410  0.78200  0.38130  Biso   1.000  N
  N57      1.0000 0.53200  0.08590  0.63130  Biso   1.000  N
  N58      1.0000 0.46800  0.41410  0.63130  Biso   1.000  N
  N59      1.0000 0.53200  0.91410  0.36870  Biso   1.000  N
  N60      1.0000 0.46800  0.58590  0.36870  Biso   1.000  N
  N61      1.0000 0.16410  0.71800  0.11870  Biso   1.000  N
  N62      1.0000 0.33590  0.28200  0.61870  Biso   1.000  N
  N63      1.0000 0.33590  0.71800  0.38130  Biso   1.000  N
  N64      1.0000 0.16410  0.28200  0.88130  Biso   1.000  N
  N65      1.0000 0.96800  0.41410  0.86870  Biso   1.000  N
  N66      1.0000 0.03200  0.08590  0.86870  Biso   1.000  N
  N67      1.0000 0.96800  0.58590  0.13130  Biso   1.000  N
  N68      1.0000 0.03200  0.91410  0.13130  Biso   1.000  N
  N69      1.0000 0.83590  0.28200  0.88130  Biso   1.000  N
  N70      1.0000 0.66410  0.71800  0.38130  Biso   1.000  N
  N71      1.0000 0.66410  0.28200  0.61870  Biso   1.000  N
  N72      1.0000 0.83590  0.71800  0.11870  Biso   1.000  N
  N73      1.0000 0.46800  0.91410  0.36870  Biso   1.000  N
  N74      1.0000 0.53200  0.58590  0.36870  Biso   1.000  N
  N75      1.0000 0.46800  0.08590  0.63130  Biso   1.000  N
  N76      1.0000 0.53200  0.41410  0.63130  Biso   1.000  N
  N77      1.0000 0.33590  0.78200  0.38130  Biso   1.000  N
  N78      1.0000 0.16410  0.21800  0.88130  Biso   1.000  N
  N79      1.0000 0.16410  0.78200  0.11870  Biso   1.000  N
  N80      1.0000 0.33590  0.21800  0.61870  Biso   1.000  N
  C33      1.0000 0.25370  0.42410  0.12400  Biso   1.000  C
  C34      1.0000 0.74630  0.07590  0.12400  Biso   1.000  C
  C35      1.0000 0.25370  0.57590  0.87600  Biso   1.000  C
  C36      1.0000 0.74630  0.92410  0.87600  Biso   1.000  C
  C37      1.0000 0.82590  0.99630  0.62600  Biso   1.000  C
  C38      1.0000 0.67410  0.00370  0.12600  Biso   1.000  C
  C39      1.0000 0.67410  0.99630  0.87400  Biso   1.000  C
  C40      1.0000 0.82590  0.00370  0.37400  Biso   1.000  C
  C41      1.0000 0.75370  0.92410  0.62400  Biso   1.000  C
  C42      1.0000 0.24630  0.57590  0.62400  Biso   1.000  C
  C43      1.0000 0.75370  0.07590  0.37600  Biso   1.000  C
  C44      1.0000 0.24630  0.42410  0.37600  Biso   1.000  C
  C45      1.0000 0.32590  0.49630  0.12600  Biso   1.000  C
  C46      1.0000 0.17410  0.50370  0.62600  Biso   1.000  C
  C47      1.0000 0.17410  0.49630  0.37400  Biso   1.000  C
  C48      1.0000 0.32590  0.50370  0.87400  Biso   1.000  C
  C49      1.0000 0.74630  0.57590  0.87600  Biso   1.000  C
  C50      1.0000 0.25370  0.92410  0.87600  Biso   1.000  C
  C51      1.0000 0.74630  0.42410  0.12400  Biso   1.000  C
  C52      1.0000 0.25370  0.07590  0.12400  Biso   1.000  C
  C53      1.0000 0.67410  0.50370  0.87400  Biso   1.000  C
  C54      1.0000 0.82590  0.49630  0.37400  Biso   1.000  C
  C55      1.0000 0.82590  0.50370  0.62600  Biso   1.000  C
  C56      1.0000 0.67410  0.49630  0.12600  Biso   1.000  C
  C57      1.0000 0.24630  0.07590  0.37600  Biso   1.000  C
  C58      1.0000 0.75370  0.42410  0.37600  Biso   1.000  C
  C59      1.0000 0.24630  0.92410  0.62400  Biso   1.000  C
  C60      1.0000 0.75370  0.57590  0.62400  Biso   1.000  C
  C61      1.0000 0.17410  0.00370  0.37400  Biso   1.000  C
  C62      1.0000 0.32590  0.99630  0.87400  Biso   1.000  C
  C63      1.0000 0.32590  0.00370  0.12600  Biso   1.000  C
  C64      1.0000 0.17410  0.99630  0.62600  Biso   1.000  C
  Cu33     1.0000 0.09933  0.65067  0.12500  Biso   1.000  Cu
  Cu34     1.0000 0.90067  0.84933  0.12500  Biso   1.000  Cu
  Cu35     1.0000 0.09933  0.34933  0.87500  Biso   1.000  Cu
  Cu36     1.0000 0.90067  0.15067  0.87500  Biso   1.000  Cu
  Cu37     1.0000 0.59933  0.15067  0.62500  Biso   1.000  Cu
  Cu38     1.0000 0.59933  0.84933  0.37500  Biso   1.000  Cu
  Cu39     1.0000 0.40067  0.34933  0.62500  Biso   1.000  Cu
  Cu40     1.0000 0.40067  0.65067  0.37500  Biso   1.000  Cu
  Cu41     1.0000 0.90067  0.34933  0.87500  Biso   1.000  Cu
  Cu42     1.0000 0.09933  0.15067  0.87500  Biso   1.000  Cu
  Cu43     1.0000 0.90067  0.65067  0.12500  Biso   1.000  Cu
  Cu44     1.0000 0.09933  0.84933  0.12500  Biso   1.000  Cu
  Cu45     1.0000 0.59933  0.65067  0.37500  Biso   1.000  Cu
  Cu46     1.0000 0.59933  0.34933  0.62500  Biso   1.000  Cu
  Cu47     1.0000 0.40067  0.84933  0.37500  Biso   1.000  Cu
  Cu48     1.0000 0.40067  0.15067  0.62500  Biso   1.000  Cu
  H1       1.0000 0.23370  0.38470  0.12340  Biso   1.000  H
  H2       1.0000 0.76630  0.11530  0.12340  Biso   1.000  H
  H3       1.0000 0.23370  0.61530  0.87660  Biso   1.000  H
  H4       1.0000 0.76630  0.88470  0.87660  Biso   1.000  H
  H5       1.0000 0.86530  0.01630  0.62660  Biso   1.000  H
  H6       1.0000 0.63470  0.98370  0.12660  Biso   1.000  H
  H7       1.0000 0.63470  0.01630  0.87340  Biso   1.000  H
  H8       1.0000 0.86530  0.98370  0.37340  Biso   1.000  H
  H9       1.0000 0.73370  0.88470  0.62340  Biso   1.000  H
  H10      1.0000 0.26630  0.61530  0.62340  Biso   1.000  H
  H11      1.0000 0.73370  0.11530  0.37660  Biso   1.000  H
  H12      1.0000 0.26630  0.38470  0.37660  Biso   1.000  H
  H13      1.0000 0.36530  0.51630  0.12660  Biso   1.000  H
  H14      1.0000 0.13470  0.48370  0.62660  Biso   1.000  H
  H15      1.0000 0.13470  0.51630  0.37340  Biso   1.000  H
  H16      1.0000 0.36530  0.48370  0.87340  Biso   1.000  H
  H17      1.0000 0.76630  0.61530  0.87660  Biso   1.000  H
  H18      1.0000 0.23370  0.88470  0.87660  Biso   1.000  H
  H19      1.0000 0.76630  0.38470  0.12340  Biso   1.000  H
  H20      1.0000 0.23370  0.11530  0.12340  Biso   1.000  H
  H21      1.0000 0.63470  0.48370  0.87340  Biso   1.000  H
  H22      1.0000 0.86530  0.51630  0.37340  Biso   1.000  H
  H23      1.0000 0.86530  0.48370  0.62660  Biso   1.000  H
  H24      1.0000 0.63470  0.51630  0.12660  Biso   1.000  H
  H25      1.0000 0.26630  0.11530  0.37660  Biso   1.000  H
  H26      1.0000 0.73370  0.38470  0.37660  Biso   1.000  H
  H27      1.0000 0.26630  0.88470  0.62340  Biso   1.000  H
  H28      1.0000 0.73370  0.61530  0.62340  Biso   1.000  H
  H29      1.0000 0.13470  0.98370  0.37340  Biso   1.000  H
  H30      1.0000 0.36530  0.01630  0.87340  Biso   1.000  H
  H31      1.0000 0.36530  0.98370  0.12660  Biso   1.000  H
  H32      1.0000 0.13470  0.01630  0.62660  Biso   1.000  H
  N81      1.0000 0.31670  0.43330  0.12500  Biso   1.000  N
  N82      1.0000 0.68330  0.06670  0.12500  Biso   1.000  N
  N83      1.0000 0.31670  0.56670  0.87500  Biso   1.000  N
  N84      1.0000 0.68330  0.93330  0.87500  Biso   1.000  N
  N85      1.0000 0.81670  0.93330  0.62500  Biso   1.000  N
  N86      1.0000 0.81670  0.06670  0.37500  Biso   1.000  N
  N87      1.0000 0.18330  0.56670  0.62500  Biso   1.000  N
  N88      1.0000 0.18330  0.43330  0.37500  Biso   1.000  N
  N89      1.0000 0.68330  0.56670  0.87500  Biso   1.000  N
  N90      1.0000 0.31670  0.93330  0.87500  Biso   1.000  N
  N91      1.0000 0.68330  0.43330  0.12500  Biso   1.000  N
  N92      1.0000 0.31670  0.06670  0.12500  Biso   1.000  N
  N93      1.0000 0.81670  0.43330  0.37500  Biso   1.000  N
  N94      1.0000 0.81670  0.56670  0.62500  Biso   1.000  N
  N95      1.0000 0.18330  0.06670  0.37500  Biso   1.000  N
  N96      1.0000 0.18330  0.93330  0.62500  Biso   1.000  N
