data_image0
_cell_length_a       21.074
_cell_length_b       21.074
_cell_length_c       12.766
_cell_angle_alpha    90
_cell_angle_beta     90
_cell_angle_gamma    90

_symmetry_space_group_name_H-M    "P 1"
_symmetry_int_tables_number       1

loop_
  _symmetry_equiv_pos_as_xyz
  'x, y, z'

loop_
  _atom_site_label
  _atom_site_occupancy
  _atom_site_fract_x
  _atom_site_fract_y
  _atom_site_fract_z
  _atom_site_thermal_displace_type
  _atom_site_B_iso_or_equiv
  _atom_site_type_symbol
  W1       1.0000 0.33129  0.75000  0.36659  Biso   1.000  W
  W2       1.0000 0.66871  0.75000  0.36659  Biso   1.000  W
  W3       1.0000 0.33129  0.25000  0.63341  Biso   1.000  W
  W4       1.0000 0.66871  0.25000  0.63341  Biso   1.000  W
  W5       1.0000 0.50000  0.91871  0.38341  Biso   1.000  W
  W6       1.0000 0.00000  0.08129  0.88341  Biso   1.000  W
  W7       1.0000 0.00000  0.91871  0.11659  Biso   1.000  W
  W8       1.0000 0.50000  0.08129  0.61659  Biso   1.000  W
  W9       1.0000 0.83129  0.25000  0.86659  Biso   1.000  W
  W10      1.0000 0.16871  0.25000  0.86659  Biso   1.000  W
  W11      1.0000 0.83129  0.75000  0.13341  Biso   1.000  W
  W12      1.0000 0.16871  0.75000  0.13341  Biso   1.000  W
  W13      1.0000 0.00000  0.41871  0.88341  Biso   1.000  W
  W14      1.0000 0.50000  0.58129  0.38341  Biso   1.000  W
  W15      1.0000 0.50000  0.41871  0.61659  Biso   1.000  W
  W16      1.0000 0.00000  0.58129  0.11659  Biso   1.000  W
  O1       1.0000 0.33720  0.81350  0.25760  Biso   1.000  O
  O2       1.0000 0.66280  0.68650  0.25760  Biso   1.000  O
  O3       1.0000 0.33720  0.18650  0.74240  Biso   1.000  O
  O4       1.0000 0.66280  0.31350  0.74240  Biso   1.000  O
  O5       1.0000 0.43650  0.91280  0.49240  Biso   1.000  O
  O6       1.0000 0.06350  0.08720  0.99240  Biso   1.000  O
  O7       1.0000 0.06350  0.91280  0.00760  Biso   1.000  O
  O8       1.0000 0.43650  0.08720  0.50760  Biso   1.000  O
  O9       1.0000 0.83720  0.31350  0.75760  Biso   1.000  O
  O10      1.0000 0.16280  0.18650  0.75760  Biso   1.000  O
  O11      1.0000 0.83720  0.68650  0.24240  Biso   1.000  O
  O12      1.0000 0.16280  0.81350  0.24240  Biso   1.000  O
  O13      1.0000 0.93650  0.41280  0.99240  Biso   1.000  O
  O14      1.0000 0.56350  0.58720  0.49240  Biso   1.000  O
  O15      1.0000 0.56350  0.41280  0.50760  Biso   1.000  O
  O16      1.0000 0.93650  0.58720  0.00760  Biso   1.000  O
  O17      1.0000 0.66280  0.18650  0.74240  Biso   1.000  O
  O18      1.0000 0.33720  0.31350  0.74240  Biso   1.000  O
  O19      1.0000 0.66280  0.81350  0.25760  Biso   1.000  O
  O20      1.0000 0.33720  0.68650  0.25760  Biso   1.000  O
  O21      1.0000 0.06350  0.58720  0.00760  Biso   1.000  O
  O22      1.0000 0.43650  0.41280  0.50760  Biso   1.000  O
  O23      1.0000 0.43650  0.58720  0.49240  Biso   1.000  O
  O24      1.0000 0.06350  0.41280  0.99240  Biso   1.000  O
  O25      1.0000 0.16280  0.68650  0.24240  Biso   1.000  O
  O26      1.0000 0.83720  0.81350  0.24240  Biso   1.000  O
  O27      1.0000 0.16280  0.31350  0.75760  Biso   1.000  O
  O28      1.0000 0.83720  0.18650  0.75760  Biso   1.000  O
  O29      1.0000 0.56350  0.08720  0.50760  Biso   1.000  O
  O30      1.0000 0.93650  0.91280  0.00760  Biso   1.000  O
  O31      1.0000 0.93650  0.08720  0.99240  Biso   1.000  O
  O32      1.0000 0.56350  0.91280  0.49240  Biso   1.000  O
  O33      1.0000 0.36230  0.81270  0.46350  Biso   1.000  O
  O34      1.0000 0.63770  0.68730  0.46350  Biso   1.000  O
  O35      1.0000 0.36230  0.18730  0.53650  Biso   1.000  O
  O36      1.0000 0.63770  0.31270  0.53650  Biso   1.000  O
  O37      1.0000 0.43730  0.88770  0.28650  Biso   1.000  O
  O38      1.0000 0.06270  0.11230  0.78650  Biso   1.000  O
  O39      1.0000 0.06270  0.88770  0.21350  Biso   1.000  O
  O40      1.0000 0.43730  0.11230  0.71350  Biso   1.000  O
  O41      1.0000 0.86230  0.31270  0.96350  Biso   1.000  O
  O42      1.0000 0.13770  0.18730  0.96350  Biso   1.000  O
  O43      1.0000 0.86230  0.68730  0.03650  Biso   1.000  O
  O44      1.0000 0.13770  0.81270  0.03650  Biso   1.000  O
  O45      1.0000 0.93730  0.38770  0.78650  Biso   1.000  O
  O46      1.0000 0.56270  0.61230  0.28650  Biso   1.000  O
  O47      1.0000 0.56270  0.38770  0.71350  Biso   1.000  O
  O48      1.0000 0.93730  0.61230  0.21350  Biso   1.000  O
  O49      1.0000 0.63770  0.18730  0.53650  Biso   1.000  O
  O50      1.0000 0.36230  0.31270  0.53650  Biso   1.000  O
  O51      1.0000 0.63770  0.81270  0.46350  Biso   1.000  O
  O52      1.0000 0.36230  0.68730  0.46350  Biso   1.000  O
  O53      1.0000 0.06270  0.61230  0.21350  Biso   1.000  O
  O54      1.0000 0.43730  0.38770  0.71350  Biso   1.000  O
  O55      1.0000 0.43730  0.61230  0.28650  Biso   1.000  O
  O56      1.0000 0.06270  0.38770  0.78650  Biso   1.000  O
  O57      1.0000 0.13770  0.68730  0.03650  Biso   1.000  O
  O58      1.0000 0.86230  0.81270  0.03650  Biso   1.000  O
  O59      1.0000 0.13770  0.31270  0.96350  Biso   1.000  O
  O60      1.0000 0.86230  0.18730  0.96350  Biso   1.000  O
  O61      1.0000 0.56270  0.11230  0.71350  Biso   1.000  O
  O62      1.0000 0.93730  0.88770  0.21350  Biso   1.000  O
  O63      1.0000 0.93730  0.11230  0.78650  Biso   1.000  O
  O64      1.0000 0.56270  0.88770  0.28650  Biso   1.000  O
  O65      1.0000 0.44020  0.75000  0.30480  Biso   1.000  O
  O66      1.0000 0.55980  0.75000  0.30480  Biso   1.000  O
  O67      1.0000 0.44020  0.25000  0.69520  Biso   1.000  O
  O68      1.0000 0.55980  0.25000  0.69520  Biso   1.000  O
  O69      1.0000 0.50000  0.80980  0.44520  Biso   1.000  O
  O70      1.0000 0.00000  0.19020  0.94520  Biso   1.000  O
  O71      1.0000 0.00000  0.80980  0.05480  Biso   1.000  O
  O72      1.0000 0.50000  0.19020  0.55480  Biso   1.000  O
  O73      1.0000 0.94020  0.25000  0.80480  Biso   1.000  O
  O74      1.0000 0.05980  0.25000  0.80480  Biso   1.000  O
  O75      1.0000 0.94020  0.75000  0.19520  Biso   1.000  O
  O76      1.0000 0.05980  0.75000  0.19520  Biso   1.000  O
  O77      1.0000 0.00000  0.30980  0.94520  Biso   1.000  O
  O78      1.0000 0.50000  0.69020  0.44520  Biso   1.000  O
  O79      1.0000 0.50000  0.30980  0.55480  Biso   1.000  O
  O80      1.0000 0.00000  0.69020  0.05480  Biso   1.000  O
  O81      1.0000 0.25270  0.75000  0.39160  Biso   1.000  O
  O82      1.0000 0.74730  0.75000  0.39160  Biso   1.000  O
  O83      1.0000 0.25270  0.25000  0.60840  Biso   1.000  O
  O84      1.0000 0.74730  0.25000  0.60840  Biso   1.000  O
  O85      1.0000 0.50000  0.99730  0.35840  Biso   1.000  O
  O86      1.0000 0.00000  0.00270  0.85840  Biso   1.000  O
  O87      1.0000 0.00000  0.99730  0.14160  Biso   1.000  O
  O88      1.0000 0.50000  0.00270  0.64160  Biso   1.000  O
  O89      1.0000 0.75270  0.25000  0.89160  Biso   1.000  O
  O90      1.0000 0.24730  0.25000  0.89160  Biso   1.000  O
  O91      1.0000 0.75270  0.75000  0.10840  Biso   1.000  O
  O92      1.0000 0.24730  0.75000  0.10840  Biso   1.000  O
  O93      1.0000 0.00000  0.49730  0.85840  Biso   1.000  O
  O94      1.0000 0.50000  0.50270  0.35840  Biso   1.000  O
  O95      1.0000 0.50000  0.49730  0.64160  Biso   1.000  O
  O96      1.0000 0.00000  0.50270  0.14160  Biso   1.000  O
  W17      1.0000 0.41208  0.83064  0.17758  Biso   1.000  W
  W18      1.0000 0.58792  0.66936  0.17758  Biso   1.000  W
  W19      1.0000 0.41208  0.16936  0.82242  Biso   1.000  W
  W20      1.0000 0.58792  0.33064  0.82242  Biso   1.000  W
  W21      1.0000 0.41936  0.83792  0.57242  Biso   1.000  W
  W22      1.0000 0.08064  0.16208  0.07242  Biso   1.000  W
  W23      1.0000 0.08064  0.83792  0.92758  Biso   1.000  W
  W24      1.0000 0.41936  0.16208  0.42758  Biso   1.000  W
  W25      1.0000 0.91208  0.33064  0.67758  Biso   1.000  W
  W26      1.0000 0.08792  0.16936  0.67758  Biso   1.000  W
  W27      1.0000 0.91208  0.66936  0.32242  Biso   1.000  W
  W28      1.0000 0.08792  0.83064  0.32242  Biso   1.000  W
  W29      1.0000 0.91936  0.33792  0.07242  Biso   1.000  W
  W30      1.0000 0.58064  0.66208  0.57242  Biso   1.000  W
  W31      1.0000 0.58064  0.33792  0.42758  Biso   1.000  W
  W32      1.0000 0.91936  0.66208  0.92758  Biso   1.000  W
  W33      1.0000 0.58792  0.16936  0.82242  Biso   1.000  W
  W34      1.0000 0.41208  0.33064  0.82242  Biso   1.000  W
  W35      1.0000 0.58792  0.83064  0.17758  Biso   1.000  W
  W36      1.0000 0.41208  0.66936  0.17758  Biso   1.000  W
  W37      1.0000 0.08064  0.66208  0.92758  Biso   1.000  W
  W38      1.0000 0.41936  0.33792  0.42758  Biso   1.000  W
  W39      1.0000 0.41936  0.66208  0.57242  Biso   1.000  W
  W40      1.0000 0.08064  0.33792  0.07242  Biso   1.000  W
  W41      1.0000 0.08792  0.66936  0.32242  Biso   1.000  W
  W42      1.0000 0.91208  0.83064  0.32242  Biso   1.000  W
  W43      1.0000 0.08792  0.33064  0.67758  Biso   1.000  W
  W44      1.0000 0.91208  0.16936  0.67758  Biso   1.000  W
  W45      1.0000 0.58064  0.16208  0.42758  Biso   1.000  W
  W46      1.0000 0.91936  0.83792  0.92758  Biso   1.000  W
  W47      1.0000 0.91936  0.16208  0.07242  Biso   1.000  W
  W48      1.0000 0.58064  0.83792  0.57242  Biso   1.000  W
  P1       1.0000 0.50000  0.75000  0.37500  Biso   1.000  P
  P2       1.0000 0.50000  0.25000  0.62500  Biso   1.000  P
  P3       1.0000 0.00000  0.25000  0.87500  Biso   1.000  P
  P4       1.0000 0.00000  0.75000  0.12500  Biso   1.000  P
  O97      1.0000 0.38360  0.88260  0.08520  Biso   1.000  O
  O98      1.0000 0.61640  0.61740  0.08520  Biso   1.000  O
  O99      1.0000 0.38360  0.11740  0.91480  Biso   1.000  O
  O100     1.0000 0.61640  0.38260  0.91480  Biso   1.000  O
  O101     1.0000 0.36740  0.86640  0.66480  Biso   1.000  O
  O102     1.0000 0.13260  0.13360  0.16480  Biso   1.000  O
  O103     1.0000 0.13260  0.86640  0.83520  Biso   1.000  O
  O104     1.0000 0.36740  0.13360  0.33520  Biso   1.000  O
  O105     1.0000 0.88360  0.38260  0.58520  Biso   1.000  O
  O106     1.0000 0.11640  0.11740  0.58520  Biso   1.000  O
  O107     1.0000 0.88360  0.61740  0.41480  Biso   1.000  O
  O108     1.0000 0.11640  0.88260  0.41480  Biso   1.000  O
  O109     1.0000 0.86740  0.36640  0.16480  Biso   1.000  O
  O110     1.0000 0.63260  0.63360  0.66480  Biso   1.000  O
  O111     1.0000 0.63260  0.36640  0.33520  Biso   1.000  O
  O112     1.0000 0.86740  0.63360  0.83520  Biso   1.000  O
  O113     1.0000 0.61640  0.11740  0.91480  Biso   1.000  O
  O114     1.0000 0.38360  0.38260  0.91480  Biso   1.000  O
  O115     1.0000 0.61640  0.88260  0.08520  Biso   1.000  O
  O116     1.0000 0.38360  0.61740  0.08520  Biso   1.000  O
  O117     1.0000 0.13260  0.63360  0.83520  Biso   1.000  O
  O118     1.0000 0.36740  0.36640  0.33520  Biso   1.000  O
  O119     1.0000 0.36740  0.63360  0.66480  Biso   1.000  O
  O120     1.0000 0.13260  0.36640  0.16480  Biso   1.000  O
  O121     1.0000 0.11640  0.61740  0.41480  Biso   1.000  O
  O122     1.0000 0.88360  0.88260  0.41480  Biso   1.000  O
  O123     1.0000 0.11640  0.38260  0.58520  Biso   1.000  O
  O124     1.0000 0.88360  0.11740  0.58520  Biso   1.000  O
  O125     1.0000 0.63260  0.13360  0.33520  Biso   1.000  O
  O126     1.0000 0.86740  0.86640  0.83520  Biso   1.000  O
  O127     1.0000 0.86740  0.13360  0.16480  Biso   1.000  O
  O128     1.0000 0.63260  0.86640  0.66480  Biso   1.000  O
  O129     1.0000 0.40170  0.75000  0.11110  Biso   1.000  O
  O130     1.0000 0.59830  0.75000  0.11110  Biso   1.000  O
  O131     1.0000 0.40170  0.25000  0.88890  Biso   1.000  O
  O132     1.0000 0.59830  0.25000  0.88890  Biso   1.000  O
  O133     1.0000 0.50000  0.84830  0.63890  Biso   1.000  O
  O134     1.0000 0.00000  0.15170  0.13890  Biso   1.000  O
  O135     1.0000 0.00000  0.84830  0.86110  Biso   1.000  O
  O136     1.0000 0.50000  0.15170  0.36110  Biso   1.000  O
  O137     1.0000 0.90170  0.25000  0.61110  Biso   1.000  O
  O138     1.0000 0.09830  0.25000  0.61110  Biso   1.000  O
  O139     1.0000 0.90170  0.75000  0.38890  Biso   1.000  O
  O140     1.0000 0.09830  0.75000  0.38890  Biso   1.000  O
  O141     1.0000 0.00000  0.34830  0.13890  Biso   1.000  O
  O142     1.0000 0.50000  0.65170  0.63890  Biso   1.000  O
  O143     1.0000 0.50000  0.34830  0.36110  Biso   1.000  O
  O144     1.0000 0.00000  0.65170  0.86110  Biso   1.000  O
  O145     1.0000 0.50000  0.82780  0.14220  Biso   1.000  O
  O146     1.0000 0.50000  0.67220  0.14220  Biso   1.000  O
  O147     1.0000 0.50000  0.17220  0.85780  Biso   1.000  O
  O148     1.0000 0.50000  0.32780  0.85780  Biso   1.000  O
  O149     1.0000 0.42220  0.75000  0.60780  Biso   1.000  O
  O150     1.0000 0.07780  0.25000  0.10780  Biso   1.000  O
  O151     1.0000 0.07780  0.75000  0.89220  Biso   1.000  O
  O152     1.0000 0.42220  0.25000  0.39220  Biso   1.000  O
  O153     1.0000 0.00000  0.32780  0.64220  Biso   1.000  O
  O154     1.0000 0.00000  0.17220  0.64220  Biso   1.000  O
  O155     1.0000 0.00000  0.67220  0.35780  Biso   1.000  O
  O156     1.0000 0.00000  0.82780  0.35780  Biso   1.000  O
  O157     1.0000 0.92220  0.25000  0.10780  Biso   1.000  O
  O158     1.0000 0.57780  0.75000  0.60780  Biso   1.000  O
  O159     1.0000 0.57780  0.25000  0.39220  Biso   1.000  O
  O160     1.0000 0.92220  0.75000  0.89220  Biso   1.000  O
  Cu1      1.0000 0.36299  0.99744  0.11751  Biso   1.000  Cu
  Cu2      1.0000 0.63701  0.50256  0.11751  Biso   1.000  Cu
  Cu3      1.0000 0.36299  0.00256  0.88249  Biso   1.000  Cu
  Cu4      1.0000 0.63701  0.49744  0.88249  Biso   1.000  Cu
  Cu5      1.0000 0.25256  0.88701  0.63249  Biso   1.000  Cu
  Cu6      1.0000 0.24744  0.11299  0.13249  Biso   1.000  Cu
  Cu7      1.0000 0.24744  0.88701  0.86751  Biso   1.000  Cu
  Cu8      1.0000 0.25256  0.11299  0.36751  Biso   1.000  Cu
  Cu9      1.0000 0.86299  0.49744  0.61751  Biso   1.000  Cu
  Cu10     1.0000 0.13701  0.00256  0.61751  Biso   1.000  Cu
  Cu11     1.0000 0.86299  0.50256  0.38249  Biso   1.000  Cu
  Cu12     1.0000 0.13701  0.99744  0.38249  Biso   1.000  Cu
  Cu13     1.0000 0.75256  0.38701  0.13249  Biso   1.000  Cu
  Cu14     1.0000 0.74744  0.61299  0.63249  Biso   1.000  Cu
  Cu15     1.0000 0.74744  0.38701  0.36751  Biso   1.000  Cu
  Cu16     1.0000 0.75256  0.61299  0.86751  Biso   1.000  Cu
  Cu17     1.0000 0.63701  0.00256  0.88249  Biso   1.000  Cu
  Cu18     1.0000 0.36299  0.49744  0.88249  Biso   1.000  Cu
  Cu19     1.0000 0.63701  0.99744  0.11751  Biso   1.000  Cu
  Cu20     1.0000 0.36299  0.50256  0.11751  Biso   1.000  Cu
  Cu21     1.0000 0.24744  0.61299  0.86751  Biso   1.000  Cu
  Cu22     1.0000 0.25256  0.38701  0.36751  Biso   1.000  Cu
  Cu23     1.0000 0.25256  0.61299  0.63249  Biso   1.000  Cu
  Cu24     1.0000 0.24744  0.38701  0.13249  Biso   1.000  Cu
  Cu25     1.0000 0.13701  0.50256  0.38249  Biso   1.000  Cu
  Cu26     1.0000 0.86299  0.99744  0.38249  Biso   1.000  Cu
  Cu27     1.0000 0.13701  0.49744  0.61751  Biso   1.000  Cu
  Cu28     1.0000 0.86299  0.00256  0.61751  Biso   1.000  Cu
  Cu29     1.0000 0.74744  0.11299  0.36751  Biso   1.000  Cu
  Cu30     1.0000 0.75256  0.88701  0.86751  Biso   1.000  Cu
  Cu31     1.0000 0.75256  0.11299  0.13249  Biso   1.000  Cu
  Cu32     1.0000 0.74744  0.88701  0.63249  Biso   1.000  Cu
  C1       1.0000 0.44790  0.02520  0.12360  Biso   1.000  C
  C2       1.0000 0.55210  0.47480  0.12360  Biso   1.000  C
  C3       1.0000 0.44790  0.97480  0.87640  Biso   1.000  C
  C4       1.0000 0.55210  0.52520  0.87640  Biso   1.000  C
  C5       1.0000 0.22480  0.80210  0.62640  Biso   1.000  C
  C6       1.0000 0.27520  0.19790  0.12640  Biso   1.000  C
  C7       1.0000 0.27520  0.80210  0.87360  Biso   1.000  C
  C8       1.0000 0.22480  0.19790  0.37360  Biso   1.000  C
  C9       1.0000 0.94790  0.52520  0.62360  Biso   1.000  C
  C10      1.0000 0.05210  0.97480  0.62360  Biso   1.000  C
  C11      1.0000 0.94790  0.47480  0.37640  Biso   1.000  C
  C12      1.0000 0.05210  0.02520  0.37640  Biso   1.000  C
  C13      1.0000 0.72480  0.30210  0.12640  Biso   1.000  C
  C14      1.0000 0.77520  0.69790  0.62640  Biso   1.000  C
  C15      1.0000 0.77520  0.30210  0.37360  Biso   1.000  C
  C16      1.0000 0.72480  0.69790  0.87360  Biso   1.000  C
  C17      1.0000 0.55210  0.97480  0.87640  Biso   1.000  C
  C18      1.0000 0.44790  0.52520  0.87640  Biso   1.000  C
  C19      1.0000 0.55210  0.02520  0.12360  Biso   1.000  C
  C20      1.0000 0.44790  0.47480  0.12360  Biso   1.000  C
  C21      1.0000 0.27520  0.69790  0.87360  Biso   1.000  C
  C22      1.0000 0.22480  0.30210  0.37360  Biso   1.000  C
  C23      1.0000 0.22480  0.69790  0.62640  Biso   1.000  C
  C24      1.0000 0.27520  0.30210  0.12640  Biso   1.000  C
  C25      1.0000 0.05210  0.47480  0.37640  Biso   1.000  C
  C26      1.0000 0.94790  0.02520  0.37640  Biso   1.000  C
  C27      1.0000 0.05210  0.52520  0.62360  Biso   1.000  C
  C28      1.0000 0.94790  0.97480  0.62360  Biso   1.000  C
  C29      1.0000 0.77520  0.19790  0.37360  Biso   1.000  C
  C30      1.0000 0.72480  0.80210  0.87360  Biso   1.000  C
  C31      1.0000 0.72480  0.19790  0.12640  Biso   1.000  C
  C32      1.0000 0.77520  0.80210  0.62640  Biso   1.000  C
  N1       1.0000 0.27480  0.97910  0.12440  Biso   1.000  N
  N2       1.0000 0.72520  0.52090  0.12440  Biso   1.000  N
  N3       1.0000 0.27480  0.02090  0.87560  Biso   1.000  N
  N4       1.0000 0.72520  0.47910  0.87560  Biso   1.000  N
  N5       1.0000 0.27090  0.97520  0.62560  Biso   1.000  N
  N6       1.0000 0.22910  0.02480  0.12560  Biso   1.000  N
  N7       1.0000 0.22910  0.97520  0.87440  Biso   1.000  N
  N8       1.0000 0.27090  0.02480  0.37440  Biso   1.000  N
  N9       1.0000 0.77480  0.47910  0.62440  Biso   1.000  N
  N10      1.0000 0.22520  0.02090  0.62440  Biso   1.000  N
  N11      1.0000 0.77480  0.52090  0.37560  Biso   1.000  N
  N12      1.0000 0.22520  0.97910  0.37560  Biso   1.000  N
  N13      1.0000 0.77090  0.47520  0.12560  Biso   1.000  N
  N14      1.0000 0.72910  0.52480  0.62560  Biso   1.000  N
  N15      1.0000 0.72910  0.47520  0.37440  Biso   1.000  N
  N16      1.0000 0.77090  0.52480  0.87440  Biso   1.000  N
  N17      1.0000 0.72520  0.02090  0.87560  Biso   1.000  N
  N18      1.0000 0.27480  0.47910  0.87560  Biso   1.000  N
  N19      1.0000 0.72520  0.97910  0.12440  Biso   1.000  N
  N20      1.0000 0.27480  0.52090  0.12440  Biso   1.000  N
  N21      1.0000 0.22910  0.52480  0.87440  Biso   1.000  N
  N22      1.0000 0.27090  0.47520  0.37440  Biso   1.000  N
  N23      1.0000 0.27090  0.52480  0.62560  Biso   1.000  N
  N24      1.0000 0.22910  0.47520  0.12560  Biso   1.000  N
  N25      1.0000 0.22520  0.52090  0.37560  Biso   1.000  N
  N26      1.0000 0.77480  0.97910  0.37560  Biso   1.000  N
  N27      1.0000 0.22520  0.47910  0.62440  Biso   1.000  N
  N28      1.0000 0.77480  0.02090  0.62440  Biso   1.000  N
  N29      1.0000 0.72910  0.02480  0.37440  Biso   1.000  N
  N30      1.0000 0.77090  0.97520  0.87440  Biso   1.000  N
  N31      1.0000 0.77090  0.02480  0.12560  Biso   1.000  N
  N32      1.0000 0.72910  0.97520  0.62560  Biso   1.000  N
  N33      1.0000 0.46880  0.08690  0.13210  Biso   1.000  N
  N34      1.0000 0.53120  0.41310  0.13210  Biso   1.000  N
  N35      1.0000 0.46880  0.91310  0.86790  Biso   1.000  N
  N36      1.0000 0.53120  0.58690  0.86790  Biso   1.000  N
  N37      1.0000 0.16310  0.78120  0.61790  Biso   1.000  N
  N38      1.0000 0.33690  0.21880  0.11790  Biso   1.000  N
  N39      1.0000 0.33690  0.78120  0.88210  Biso   1.000  N
  N40      1.0000 0.16310  0.21880  0.38210  Biso   1.000  N
  N41      1.0000 0.96880  0.58690  0.63210  Biso   1.000  N
  N42      1.0000 0.03120  0.91310  0.63210  Biso   1.000  N
  N43      1.0000 0.96880  0.41310  0.36790  Biso   1.000  N
  N44      1.0000 0.03120  0.08690  0.36790  Biso   1.000  N
  N45      1.0000 0.66310  0.28120  0.11790  Biso   1.000  N
  N46      1.0000 0.83690  0.71880  0.61790  Biso   1.000  N
  N47      1.0000 0.83690  0.28120  0.38210  Biso   1.000  N
  N48      1.0000 0.66310  0.71880  0.88210  Biso   1.000  N
  N49      1.0000 0.53120  0.91310  0.86790  Biso   1.000  N
  N50      1.0000 0.46880  0.58690  0.86790  Biso   1.000  N
  N51      1.0000 0.53120  0.08690  0.13210  Biso   1.000  N
  N52      1.0000 0.46880  0.41310  0.13210  Biso   1.000  N
  N53      1.0000 0.33690  0.71880  0.88210  Biso   1.000  N
  N54      1.0000 0.16310  0.28120  0.38210  Biso   1.000  N
  N55      1.0000 0.16310  0.71880  0.61790  Biso   1.000  N
  N56      1.0000 0.33690  0.28120  0.11790  Biso   1.000  N
  N57      1.0000 0.03120  0.41310  0.36790  Biso   1.000  N
  N58      1.0000 0.96880  0.08690  0.36790  Biso   1.000  N
  N59      1.0000 0.03120  0.58690  0.63210  Biso   1.000  N
  N60      1.0000 0.96880  0.91310  0.63210  Biso   1.000  N
  N61      1.0000 0.83690  0.21880  0.38210  Biso   1.000  N
  N62      1.0000 0.66310  0.78120  0.88210  Biso   1.000  N
  N63      1.0000 0.66310  0.21880  0.11790  Biso   1.000  N
  N64      1.0000 0.83690  0.78120  0.61790  Biso   1.000  N
  N65      1.0000 0.50000  0.99160  0.11800  Biso   1.000  N
  N66      1.0000 0.50000  0.50840  0.11800  Biso   1.000  N
  N67      1.0000 0.50000  0.00840  0.88200  Biso   1.000  N
  N68      1.0000 0.50000  0.49160  0.88200  Biso   1.000  N
  N69      1.0000 0.25840  0.75000  0.63200  Biso   1.000  N
  N70      1.0000 0.24160  0.25000  0.13200  Biso   1.000  N
  N71      1.0000 0.24160  0.75000  0.86800  Biso   1.000  N
  N72      1.0000 0.25840  0.25000  0.36800  Biso   1.000  N
  N73      1.0000 0.00000  0.49160  0.61800  Biso   1.000  N
  N74      1.0000 0.00000  0.00840  0.61800  Biso   1.000  N
  N75      1.0000 0.00000  0.50840  0.38200  Biso   1.000  N
  N76      1.0000 0.00000  0.99160  0.38200  Biso   1.000  N
  N77      1.0000 0.75840  0.25000  0.13200  Biso   1.000  N
  N78      1.0000 0.74160  0.75000  0.63200  Biso   1.000  N
  N79      1.0000 0.74160  0.25000  0.36800  Biso   1.000  N
  N80      1.0000 0.75840  0.75000  0.86800  Biso   1.000  N
  C33      1.0000 0.24600  0.92400  0.12320  Biso   1.000  C
  C34      1.0000 0.75400  0.57600  0.12320  Biso   1.000  C
  C35      1.0000 0.24600  0.07600  0.87680  Biso   1.000  C
  C36      1.0000 0.75400  0.42400  0.87680  Biso   1.000  C
  C37      1.0000 0.32600  0.00400  0.62680  Biso   1.000  C
  C38      1.0000 0.17400  0.99600  0.12680  Biso   1.000  C
  C39      1.0000 0.17400  0.00400  0.87320  Biso   1.000  C
  C40      1.0000 0.32600  0.99600  0.37320  Biso   1.000  C
  C41      1.0000 0.74600  0.42400  0.62320  Biso   1.000  C
  C42      1.0000 0.25400  0.07600  0.62320  Biso   1.000  C
  C43      1.0000 0.74600  0.57600  0.37680  Biso   1.000  C
  C44      1.0000 0.25400  0.92400  0.37680  Biso   1.000  C
  C45      1.0000 0.82600  0.50400  0.12680  Biso   1.000  C
  C46      1.0000 0.67400  0.49600  0.62680  Biso   1.000  C
  C47      1.0000 0.67400  0.50400  0.37320  Biso   1.000  C
  C48      1.0000 0.82600  0.49600  0.87320  Biso   1.000  C
  C49      1.0000 0.75400  0.07600  0.87680  Biso   1.000  C
  C50      1.0000 0.24600  0.42400  0.87680  Biso   1.000  C
  C51      1.0000 0.75400  0.92400  0.12320  Biso   1.000  C
  C52      1.0000 0.24600  0.57600  0.12320  Biso   1.000  C
  C53      1.0000 0.17400  0.49600  0.87320  Biso   1.000  C
  C54      1.0000 0.32600  0.50400  0.37320  Biso   1.000  C
  C55      1.0000 0.32600  0.49600  0.62680  Biso   1.000  C
  C56      1.0000 0.17400  0.50400  0.12680  Biso   1.000  C
  C57      1.0000 0.25400  0.57600  0.37680  Biso   1.000  C
  C58      1.0000 0.74600  0.92400  0.37680  Biso   1.000  C
  C59      1.0000 0.25400  0.42400  0.62320  Biso   1.000  C
  C60      1.0000 0.74600  0.07600  0.62320  Biso   1.000  C
  C61      1.0000 0.67400  0.99600  0.37320  Biso   1.000  C
  C62      1.0000 0.82600  0.00400  0.87320  Biso   1.000  C
  C63      1.0000 0.82600  0.99600  0.12680  Biso   1.000  C
  C64      1.0000 0.67400  0.00400  0.62680  Biso   1.000  C
  Cu33     1.0000 0.40150  0.15150  0.12500  Biso   1.000  Cu
  Cu34     1.0000 0.59850  0.34850  0.12500  Biso   1.000  Cu
  Cu35     1.0000 0.40150  0.84850  0.87500  Biso   1.000  Cu
  Cu36     1.0000 0.59850  0.65150  0.87500  Biso   1.000  Cu
  Cu37     1.0000 0.09850  0.84850  0.62500  Biso   1.000  Cu
  Cu38     1.0000 0.09850  0.15150  0.37500  Biso   1.000  Cu
  Cu39     1.0000 0.90150  0.65150  0.62500  Biso   1.000  Cu
  Cu40     1.0000 0.90150  0.34850  0.37500  Biso   1.000  Cu
  Cu41     1.0000 0.59850  0.84850  0.87500  Biso   1.000  Cu
  Cu42     1.0000 0.40150  0.65150  0.87500  Biso   1.000  Cu
  Cu43     1.0000 0.59850  0.15150  0.12500  Biso   1.000  Cu
  Cu44     1.0000 0.40150  0.34850  0.12500  Biso   1.000  Cu
  Cu45     1.0000 0.09850  0.34850  0.37500  Biso   1.000  Cu
  Cu46     1.0000 0.09850  0.65150  0.62500  Biso   1.000  Cu
  Cu47     1.0000 0.90150  0.15150  0.37500  Biso   1.000  Cu
  Cu48     1.0000 0.90150  0.84850  0.62500  Biso   1.000  Cu
  H1       1.0000 0.26620  0.88480  0.12140  Biso   1.000  H
  H2       1.0000 0.73380  0.61520  0.12140  Biso   1.000  H
  H3       1.0000 0.26620  0.11520  0.87860  Biso   1.000  H
  H4       1.0000 0.73380  0.38480  0.87860  Biso   1.000  H
  H5       1.0000 0.36520  0.98380  0.62860  Biso   1.000  H
  H6       1.0000 0.13480  0.01620  0.12860  Biso   1.000  H
  H7       1.0000 0.13480  0.98380  0.87140  Biso   1.000  H
  H8       1.0000 0.36520  0.01620  0.37140  Biso   1.000  H
  H9       1.0000 0.76620  0.38480  0.62140  Biso   1.000  H
  H10      1.0000 0.23380  0.11520  0.62140  Biso   1.000  H
  H11      1.0000 0.76620  0.61520  0.37860  Biso   1.000  H
  H12      1.0000 0.23380  0.88480  0.37860  Biso   1.000  H
  H13      1.0000 0.86520  0.48380  0.12860  Biso   1.000  H
  H14      1.0000 0.63480  0.51620  0.62860  Biso   1.000  H
  H15      1.0000 0.63480  0.48380  0.37140  Biso   1.000  H
  H16      1.0000 0.86520  0.51620  0.87140  Biso   1.000  H
  H17      1.0000 0.73380  0.11520  0.87860  Biso   1.000  H
  H18      1.0000 0.26620  0.38480  0.87860  Biso   1.000  H
  H19      1.0000 0.73380  0.88480  0.12140  Biso   1.000  H
  H20      1.0000 0.26620  0.61520  0.12140  Biso   1.000  H
  H21      1.0000 0.13480  0.51620  0.87140  Biso   1.000  H
  H22      1.0000 0.36520  0.48380  0.37140  Biso   1.000  H
  H23      1.0000 0.36520  0.51620  0.62860  Biso   1.000  H
  H24      1.0000 0.13480  0.48380  0.12860  Biso   1.000  H
  H25      1.0000 0.23380  0.61520  0.37860  Biso   1.000  H
  H26      1.0000 0.76620  0.88480  0.37860  Biso   1.000  H
  H27      1.0000 0.23380  0.38480  0.62140  Biso   1.000  H
  H28      1.0000 0.76620  0.11520  0.62140  Biso   1.000  H
  H29      1.0000 0.63480  0.01620  0.37140  Biso   1.000  H
  H30      1.0000 0.86520  0.98380  0.87140  Biso   1.000  H
  H31      1.0000 0.86520  0.01620  0.12860  Biso   1.000  H
  H32      1.0000 0.63480  0.98380  0.62860  Biso   1.000  H
  N81      1.0000 0.18280  0.93280  0.12500  Biso   1.000  N
  N82      1.0000 0.81720  0.56720  0.12500  Biso   1.000  N
  N83      1.0000 0.18280  0.06720  0.87500  Biso   1.000  N
  N84      1.0000 0.81720  0.43280  0.87500  Biso   1.000  N
  N85      1.0000 0.31720  0.06720  0.62500  Biso   1.000  N
  N86      1.0000 0.31720  0.93280  0.37500  Biso   1.000  N
  N87      1.0000 0.68280  0.43280  0.62500  Biso   1.000  N
  N88      1.0000 0.68280  0.56720  0.37500  Biso   1.000  N
  N89      1.0000 0.81720  0.06720  0.87500  Biso   1.000  N
  N90      1.0000 0.18280  0.43280  0.87500  Biso   1.000  N
  N91      1.0000 0.81720  0.93280  0.12500  Biso   1.000  N
  N92      1.0000 0.18280  0.56720  0.12500  Biso   1.000  N
  N93      1.0000 0.31720  0.56720  0.37500  Biso   1.000  N
  N94      1.0000 0.31720  0.43280  0.62500  Biso   1.000  N
  N95      1.0000 0.68280  0.93280  0.37500  Biso   1.000  N
  N96      1.0000 0.68280  0.06720  0.62500  Biso   1.000  N
