data_image0
_cell_length_a       29.282
_cell_length_b       12.478
_cell_length_c       14.476
_cell_angle_alpha    90
_cell_angle_beta     107.43
_cell_angle_gamma    90

_symmetry_space_group_name_H-M    "P 1"
_symmetry_int_tables_number       1

loop_
  _symmetry_equiv_pos_as_xyz
  'x, y, z'

loop_
  _atom_site_label
  _atom_site_occupancy
  _atom_site_fract_x
  _atom_site_fract_y
  _atom_site_fract_z
  _atom_site_thermal_displace_type
  _atom_site_B_iso_or_equiv
  _atom_site_type_symbol
  Cu1      1.0000 0.30072  0.32025  0.06257  Biso   1.000  Cu
  Cu2      1.0000 0.69928  0.32025  0.43743  Biso   1.000  Cu
  Cu3      1.0000 0.80072  0.82025  0.06257  Biso   1.000  Cu
  Cu4      1.0000 0.19928  0.82025  0.43743  Biso   1.000  Cu
  Cu5      1.0000 0.69928  0.67975  0.93743  Biso   1.000  Cu
  Cu6      1.0000 0.30072  0.67975  0.56257  Biso   1.000  Cu
  Cu7      1.0000 0.19928  0.17975  0.93743  Biso   1.000  Cu
  Cu8      1.0000 0.80072  0.17975  0.56257  Biso   1.000  Cu
  P1       1.0000 0.36473  0.25297  0.16305  Biso   1.000  P
  P2       1.0000 0.63527  0.25297  0.33695  Biso   1.000  P
  P3       1.0000 0.86473  0.75297  0.16305  Biso   1.000  P
  P4       1.0000 0.13527  0.75297  0.33695  Biso   1.000  P
  P5       1.0000 0.63527  0.74703  0.83695  Biso   1.000  P
  P6       1.0000 0.36473  0.74703  0.66305  Biso   1.000  P
  P7       1.0000 0.13527  0.24703  0.83695  Biso   1.000  P
  P8       1.0000 0.86473  0.24703  0.66305  Biso   1.000  P
  N1       1.0000 0.22888  0.23960  0.15720  Biso   1.000  N
  N2       1.0000 0.77112  0.23960  0.34280  Biso   1.000  N
  N3       1.0000 0.72888  0.73960  0.15720  Biso   1.000  N
  N4       1.0000 0.27112  0.73960  0.34280  Biso   1.000  N
  N5       1.0000 0.77112  0.76040  0.84280  Biso   1.000  N
  N6       1.0000 0.22888  0.76040  0.65720  Biso   1.000  N
  N7       1.0000 0.27112  0.26040  0.84280  Biso   1.000  N
  N8       1.0000 0.72888  0.26040  0.65720  Biso   1.000  N
  O1       1.0000 0.23326  0.25660  0.07334  Biso   1.000  O
  O2       1.0000 0.76674  0.25660  0.42666  Biso   1.000  O
  O3       1.0000 0.73326  0.75660  0.07334  Biso   1.000  O
  O4       1.0000 0.26674  0.75660  0.42666  Biso   1.000  O
  O5       1.0000 0.76674  0.74340  0.92666  Biso   1.000  O
  O6       1.0000 0.23326  0.74340  0.57334  Biso   1.000  O
  O7       1.0000 0.26674  0.24340  0.92666  Biso   1.000  O
  O8       1.0000 0.73326  0.24340  0.57334  Biso   1.000  O
  O9       1.0000 0.19715  0.17960  0.16560  Biso   1.000  O
  O10      1.0000 0.80285  0.17960  0.33440  Biso   1.000  O
  O11      1.0000 0.69715  0.67960  0.16560  Biso   1.000  O
  O12      1.0000 0.30285  0.67960  0.33440  Biso   1.000  O
  O13      1.0000 0.80285  0.82040  0.83440  Biso   1.000  O
  O14      1.0000 0.19715  0.82040  0.66560  Biso   1.000  O
  O15      1.0000 0.30285  0.32040  0.83440  Biso   1.000  O
  O16      1.0000 0.69715  0.32040  0.66560  Biso   1.000  O
  O17      1.0000 0.25656  0.28710  0.22670  Biso   1.000  O
  O18      1.0000 0.74344  0.28710  0.27330  Biso   1.000  O
  O19      1.0000 0.75656  0.78710  0.22670  Biso   1.000  O
  O20      1.0000 0.24344  0.78710  0.27330  Biso   1.000  O
  O21      1.0000 0.74344  0.71290  0.77330  Biso   1.000  O
  O22      1.0000 0.25656  0.71290  0.72670  Biso   1.000  O
  O23      1.0000 0.24344  0.21290  0.77330  Biso   1.000  O
  O24      1.0000 0.75656  0.21290  0.72670  Biso   1.000  O
  N9       1.0000 0.28133  0.47470  0.03600  Biso   1.000  N
  N10      1.0000 0.71867  0.47470  0.46400  Biso   1.000  N
  N11      1.0000 0.78133  0.97470  0.03600  Biso   1.000  N
  N12      1.0000 0.21867  0.97470  0.46400  Biso   1.000  N
  N13      1.0000 0.71867  0.52530  0.96400  Biso   1.000  N
  N14      1.0000 0.28133  0.52530  0.53600  Biso   1.000  N
  N15      1.0000 0.21867  0.02530  0.96400  Biso   1.000  N
  N16      1.0000 0.78133  0.02530  0.53600  Biso   1.000  N
  C1       1.0000 0.24004  0.97380  0.90770  Biso   1.000  C
  C2       1.0000 0.75996  0.97380  0.59230  Biso   1.000  C
  C3       1.0000 0.74004  0.47380  0.90770  Biso   1.000  C
  C4       1.0000 0.25996  0.47380  0.59230  Biso   1.000  C
  C5       1.0000 0.75996  0.02620  0.09230  Biso   1.000  C
  C6       1.0000 0.24004  0.02620  0.40770  Biso   1.000  C
  C7       1.0000 0.25996  0.52620  0.09230  Biso   1.000  C
  C8       1.0000 0.74004  0.52620  0.40770  Biso   1.000  C
  H1       1.0000 0.24675  0.01240  0.85680  Biso   1.000  H
  H2       1.0000 0.75325  0.01240  0.64320  Biso   1.000  H
  H3       1.0000 0.74675  0.51240  0.85680  Biso   1.000  H
  H4       1.0000 0.25325  0.51240  0.64320  Biso   1.000  H
  H5       1.0000 0.75325  0.98760  0.14320  Biso   1.000  H
  H6       1.0000 0.24675  0.98760  0.35680  Biso   1.000  H
  H7       1.0000 0.25325  0.48760  0.14320  Biso   1.000  H
  H8       1.0000 0.74675  0.48760  0.35680  Biso   1.000  H
  C9       1.0000 0.25293  0.86700  0.91980  Biso   1.000  C
  C10      1.0000 0.74707  0.86700  0.58020  Biso   1.000  C
  C11      1.0000 0.75293  0.36700  0.91980  Biso   1.000  C
  C12      1.0000 0.24707  0.36700  0.58020  Biso   1.000  C
  C13      1.0000 0.74707  0.13300  0.08020  Biso   1.000  C
  C14      1.0000 0.25293  0.13300  0.41980  Biso   1.000  C
  C15      1.0000 0.24707  0.63300  0.08020  Biso   1.000  C
  C16      1.0000 0.75293  0.63300  0.41980  Biso   1.000  C
  H9       1.0000 0.26838  0.83440  0.87790  Biso   1.000  H
  H10      1.0000 0.73162  0.83440  0.62210  Biso   1.000  H
  H11      1.0000 0.76838  0.33440  0.87790  Biso   1.000  H
  H12      1.0000 0.23162  0.33440  0.62210  Biso   1.000  H
  H13      1.0000 0.73162  0.16560  0.12210  Biso   1.000  H
  H14      1.0000 0.26838  0.16560  0.37790  Biso   1.000  H
  H15      1.0000 0.23162  0.66560  0.12210  Biso   1.000  H
  H16      1.0000 0.76838  0.66560  0.37790  Biso   1.000  H
  C17      1.0000 0.24357  0.80730  0.99200  Biso   1.000  C
  C18      1.0000 0.75643  0.80730  0.50800  Biso   1.000  C
  C19      1.0000 0.74357  0.30730  0.99200  Biso   1.000  C
  C20      1.0000 0.25643  0.30730  0.50800  Biso   1.000  C
  C21      1.0000 0.75643  0.19270  0.00800  Biso   1.000  C
  C22      1.0000 0.24357  0.19270  0.49200  Biso   1.000  C
  C23      1.0000 0.25643  0.69270  0.00800  Biso   1.000  C
  C24      1.0000 0.74357  0.69270  0.49200  Biso   1.000  C
  C25      1.0000 0.27914  0.63870  0.95000  Biso   1.000  C
  C26      1.0000 0.72086  0.63870  0.55000  Biso   1.000  C
  C27      1.0000 0.77914  0.13870  0.95000  Biso   1.000  C
  C28      1.0000 0.22086  0.13870  0.55000  Biso   1.000  C
  C29      1.0000 0.72086  0.36130  0.05000  Biso   1.000  C
  C30      1.0000 0.27914  0.36130  0.45000  Biso   1.000  C
  C31      1.0000 0.22086  0.86130  0.05000  Biso   1.000  C
  C32      1.0000 0.77914  0.86130  0.45000  Biso   1.000  C
  H17      1.0000 0.28677  0.67550  0.89910  Biso   1.000  H
  H18      1.0000 0.71323  0.67550  0.60090  Biso   1.000  H
  H19      1.0000 0.78677  0.17550  0.89910  Biso   1.000  H
  H20      1.0000 0.21323  0.17550  0.60090  Biso   1.000  H
  H21      1.0000 0.71323  0.32450  0.10090  Biso   1.000  H
  H22      1.0000 0.28677  0.32450  0.39910  Biso   1.000  H
  H23      1.0000 0.21323  0.82450  0.10090  Biso   1.000  H
  H24      1.0000 0.78677  0.82450  0.39910  Biso   1.000  H
  C33      1.0000 0.29062  0.53170  0.96620  Biso   1.000  C
  C34      1.0000 0.70938  0.53170  0.53380  Biso   1.000  C
  C35      1.0000 0.79062  0.03170  0.96620  Biso   1.000  C
  C36      1.0000 0.20938  0.03170  0.53380  Biso   1.000  C
  C37      1.0000 0.70938  0.46830  0.03380  Biso   1.000  C
  C38      1.0000 0.29062  0.46830  0.46620  Biso   1.000  C
  C39      1.0000 0.20938  0.96830  0.03380  Biso   1.000  C
  C40      1.0000 0.79062  0.96830  0.46620  Biso   1.000  C
  H25      1.0000 0.30600  0.49700  0.92520  Biso   1.000  H
  H26      1.0000 0.69400  0.49700  0.57480  Biso   1.000  H
  H27      1.0000 0.80600  0.99700  0.92520  Biso   1.000  H
  H28      1.0000 0.19400  0.99700  0.57480  Biso   1.000  H
  H29      1.0000 0.69400  0.50300  0.07480  Biso   1.000  H
  H30      1.0000 0.30600  0.50300  0.42520  Biso   1.000  H
  H31      1.0000 0.19400  0.00300  0.07480  Biso   1.000  H
  H32      1.0000 0.80600  0.00300  0.42520  Biso   1.000  H
  C41      1.0000 0.40950  0.20240  0.10840  Biso   1.000  C
  C42      1.0000 0.59050  0.20240  0.39160  Biso   1.000  C
  C43      1.0000 0.90950  0.70240  0.10840  Biso   1.000  C
  C44      1.0000 0.09050  0.70240  0.39160  Biso   1.000  C
  C45      1.0000 0.59050  0.79760  0.89160  Biso   1.000  C
  C46      1.0000 0.40950  0.79760  0.60840  Biso   1.000  C
  C47      1.0000 0.09050  0.29760  0.89160  Biso   1.000  C
  C48      1.0000 0.90950  0.29760  0.60840  Biso   1.000  C
  C49      1.0000 0.41132  0.24850  0.02270  Biso   1.000  C
  C50      1.0000 0.58868  0.24850  0.47730  Biso   1.000  C
  C51      1.0000 0.91132  0.74850  0.02270  Biso   1.000  C
  C52      1.0000 0.08868  0.74850  0.47730  Biso   1.000  C
  C53      1.0000 0.58868  0.75150  0.97730  Biso   1.000  C
  C54      1.0000 0.41132  0.75150  0.52270  Biso   1.000  C
  C55      1.0000 0.08868  0.25150  0.97730  Biso   1.000  C
  C56      1.0000 0.91132  0.25150  0.52270  Biso   1.000  C
  H33      1.0000 0.38897  0.30260  0.99270  Biso   1.000  H
  H34      1.0000 0.61103  0.30260  0.50730  Biso   1.000  H
  H35      1.0000 0.88897  0.80260  0.99270  Biso   1.000  H
  H36      1.0000 0.11103  0.80260  0.50730  Biso   1.000  H
  H37      1.0000 0.61103  0.69740  0.00730  Biso   1.000  H
  H38      1.0000 0.38897  0.69740  0.49270  Biso   1.000  H
  H39      1.0000 0.11103  0.19740  0.00730  Biso   1.000  H
  H40      1.0000 0.88897  0.19740  0.49270  Biso   1.000  H
  C57      1.0000 0.44550  0.21600  0.98060  Biso   1.000  C
  C58      1.0000 0.55450  0.21600  0.51940  Biso   1.000  C
  C59      1.0000 0.94550  0.71600  0.98060  Biso   1.000  C
  C60      1.0000 0.05450  0.71600  0.51940  Biso   1.000  C
  C61      1.0000 0.55450  0.78400  0.01940  Biso   1.000  C
  C62      1.0000 0.44550  0.78400  0.48060  Biso   1.000  C
  C63      1.0000 0.05450  0.28400  0.01940  Biso   1.000  C
  C64      1.0000 0.94550  0.28400  0.48060  Biso   1.000  C
  H41      1.0000 0.44690  0.24850  0.92210  Biso   1.000  H
  H42      1.0000 0.55310  0.24850  0.57790  Biso   1.000  H
  H43      1.0000 0.94690  0.74850  0.92210  Biso   1.000  H
  H44      1.0000 0.05310  0.74850  0.57790  Biso   1.000  H
  H45      1.0000 0.55310  0.75150  0.07790  Biso   1.000  H
  H46      1.0000 0.44690  0.75150  0.42210  Biso   1.000  H
  H47      1.0000 0.05310  0.25150  0.07790  Biso   1.000  H
  H48      1.0000 0.94690  0.25150  0.42210  Biso   1.000  H
  C65      1.0000 0.47777  0.13670  0.02290  Biso   1.000  C
  C66      1.0000 0.52223  0.13670  0.47710  Biso   1.000  C
  C67      1.0000 0.97777  0.63670  0.02290  Biso   1.000  C
  C68      1.0000 0.02223  0.63670  0.47710  Biso   1.000  C
  C69      1.0000 0.52223  0.86330  0.97710  Biso   1.000  C
  C70      1.0000 0.47777  0.86330  0.52290  Biso   1.000  C
  C71      1.0000 0.02223  0.36330  0.97710  Biso   1.000  C
  C72      1.0000 0.97777  0.36330  0.52290  Biso   1.000  C
  H49      1.0000 0.50166  0.11550  0.99440  Biso   1.000  H
  H50      1.0000 0.49834  0.11550  0.50560  Biso   1.000  H
  H51      1.0000 0.00166  0.61550  0.99440  Biso   1.000  H
  H52      1.0000 0.99834  0.61550  0.50560  Biso   1.000  H
  H53      1.0000 0.49834  0.88450  0.00560  Biso   1.000  H
  H54      1.0000 0.50166  0.88450  0.49440  Biso   1.000  H
  H55      1.0000 0.99834  0.38450  0.00560  Biso   1.000  H
  H56      1.0000 0.00166  0.38450  0.49440  Biso   1.000  H
  C73      1.0000 0.47520  0.08880  0.10620  Biso   1.000  C
  C74      1.0000 0.52480  0.08880  0.39380  Biso   1.000  C
  C75      1.0000 0.97520  0.58880  0.10620  Biso   1.000  C
  C76      1.0000 0.02480  0.58880  0.39380  Biso   1.000  C
  C77      1.0000 0.52480  0.91120  0.89380  Biso   1.000  C
  C78      1.0000 0.47520  0.91120  0.60620  Biso   1.000  C
  C79      1.0000 0.02480  0.41120  0.89380  Biso   1.000  C
  C80      1.0000 0.97520  0.41120  0.60620  Biso   1.000  C
  H57      1.0000 0.49695  0.03310  0.13470  Biso   1.000  H
  H58      1.0000 0.50305  0.03310  0.36530  Biso   1.000  H
  H59      1.0000 0.99695  0.53310  0.13470  Biso   1.000  H
  H60      1.0000 0.00305  0.53310  0.36530  Biso   1.000  H
  H61      1.0000 0.50305  0.96690  0.86530  Biso   1.000  H
  H62      1.0000 0.49695  0.96690  0.63470  Biso   1.000  H
  H63      1.0000 0.00305  0.46690  0.86530  Biso   1.000  H
  H64      1.0000 0.99695  0.46690  0.63470  Biso   1.000  H
  C81      1.0000 0.44113  0.12100  0.14910  Biso   1.000  C
  C82      1.0000 0.55887  0.12100  0.35090  Biso   1.000  C
  C83      1.0000 0.94113  0.62100  0.14910  Biso   1.000  C
  C84      1.0000 0.05887  0.62100  0.35090  Biso   1.000  C
  C85      1.0000 0.55887  0.87900  0.85090  Biso   1.000  C
  C86      1.0000 0.44113  0.87900  0.64910  Biso   1.000  C
  C87      1.0000 0.05887  0.37900  0.85090  Biso   1.000  C
  C88      1.0000 0.94113  0.37900  0.64910  Biso   1.000  C
  H65      1.0000 0.43946  0.08700  0.20670  Biso   1.000  H
  H66      1.0000 0.56054  0.08700  0.29330  Biso   1.000  H
  H67      1.0000 0.93946  0.58700  0.20670  Biso   1.000  H
  H68      1.0000 0.06054  0.58700  0.29330  Biso   1.000  H
  H69      1.0000 0.56054  0.91300  0.79330  Biso   1.000  H
  H70      1.0000 0.43946  0.91300  0.70670  Biso   1.000  H
  H71      1.0000 0.06054  0.41300  0.79330  Biso   1.000  H
  H72      1.0000 0.93946  0.41300  0.70670  Biso   1.000  H
  C89      1.0000 0.35735  0.14110  0.23820  Biso   1.000  C
  C90      1.0000 0.64265  0.14110  0.26180  Biso   1.000  C
  C91      1.0000 0.85735  0.64110  0.23820  Biso   1.000  C
  C92      1.0000 0.14265  0.64110  0.26180  Biso   1.000  C
  C93      1.0000 0.64265  0.85890  0.76180  Biso   1.000  C
  C94      1.0000 0.35735  0.85890  0.73820  Biso   1.000  C
  C95      1.0000 0.14265  0.35890  0.76180  Biso   1.000  C
  C96      1.0000 0.85735  0.35890  0.73820  Biso   1.000  C
  C97      1.0000 0.38138  0.13320  0.33690  Biso   1.000  C
  C98      1.0000 0.61862  0.13320  0.16310  Biso   1.000  C
  C99      1.0000 0.88138  0.63320  0.33690  Biso   1.000  C
  C100     1.0000 0.11862  0.63320  0.16310  Biso   1.000  C
  C101     1.0000 0.61862  0.86680  0.66310  Biso   1.000  C
  C102     1.0000 0.38138  0.86680  0.83690  Biso   1.000  C
  C103     1.0000 0.11862  0.36680  0.66310  Biso   1.000  C
  C104     1.0000 0.88138  0.36680  0.83690  Biso   1.000  C
  H73      1.0000 0.40165  0.18990  0.36890  Biso   1.000  H
  H74      1.0000 0.59835  0.18990  0.13110  Biso   1.000  H
  H75      1.0000 0.90165  0.68990  0.36890  Biso   1.000  H
  H76      1.0000 0.09835  0.68990  0.13110  Biso   1.000  H
  H77      1.0000 0.59835  0.81010  0.63110  Biso   1.000  H
  H78      1.0000 0.40165  0.81010  0.86890  Biso   1.000  H
  H79      1.0000 0.09835  0.31010  0.63110  Biso   1.000  H
  H80      1.0000 0.90165  0.31010  0.86890  Biso   1.000  H
  C105     1.0000 0.37587  0.04350  0.38840  Biso   1.000  C
  C106     1.0000 0.62413  0.04350  0.11160  Biso   1.000  C
  C107     1.0000 0.87587  0.54350  0.38840  Biso   1.000  C
  C108     1.0000 0.12413  0.54350  0.11160  Biso   1.000  C
  C109     1.0000 0.62413  0.95650  0.61160  Biso   1.000  C
  C110     1.0000 0.37587  0.95650  0.88840  Biso   1.000  C
  C111     1.0000 0.12413  0.45650  0.61160  Biso   1.000  C
  C112     1.0000 0.87587  0.45650  0.88840  Biso   1.000  C
  H81      1.0000 0.39259  0.03850  0.45550  Biso   1.000  H
  H82      1.0000 0.60741  0.03850  0.04450  Biso   1.000  H
  H83      1.0000 0.89259  0.53850  0.45550  Biso   1.000  H
  H84      1.0000 0.10741  0.53850  0.04450  Biso   1.000  H
  H85      1.0000 0.60741  0.96150  0.54450  Biso   1.000  H
  H86      1.0000 0.39259  0.96150  0.95550  Biso   1.000  H
  H87      1.0000 0.10741  0.46150  0.54450  Biso   1.000  H
  H88      1.0000 0.89259  0.46150  0.95550  Biso   1.000  H
  C113     1.0000 0.34646  0.96160  0.34330  Biso   1.000  C
  C114     1.0000 0.65354  0.96160  0.15670  Biso   1.000  C
  C115     1.0000 0.84646  0.46160  0.34330  Biso   1.000  C
  C116     1.0000 0.15354  0.46160  0.15670  Biso   1.000  C
  C117     1.0000 0.65354  0.03840  0.65670  Biso   1.000  C
  C118     1.0000 0.34646  0.03840  0.84330  Biso   1.000  C
  C119     1.0000 0.15354  0.53840  0.65670  Biso   1.000  C
  C120     1.0000 0.84646  0.53840  0.84330  Biso   1.000  C
  H89      1.0000 0.34264  0.90030  0.37920  Biso   1.000  H
  H90      1.0000 0.65736  0.90030  0.12080  Biso   1.000  H
  H91      1.0000 0.84264  0.40030  0.37920  Biso   1.000  H
  H92      1.0000 0.15736  0.40030  0.12080  Biso   1.000  H
  H93      1.0000 0.65736  0.09970  0.62080  Biso   1.000  H
  H94      1.0000 0.34264  0.09970  0.87920  Biso   1.000  H
  H95      1.0000 0.15736  0.59970  0.62080  Biso   1.000  H
  H96      1.0000 0.84264  0.59970  0.87920  Biso   1.000  H
  C121     1.0000 0.32249  0.96820  0.24610  Biso   1.000  C
  C122     1.0000 0.67751  0.96820  0.25390  Biso   1.000  C
  C123     1.0000 0.82249  0.46820  0.24610  Biso   1.000  C
  C124     1.0000 0.17751  0.46820  0.25390  Biso   1.000  C
  C125     1.0000 0.67751  0.03180  0.75390  Biso   1.000  C
  C126     1.0000 0.32249  0.03180  0.74610  Biso   1.000  C
  C127     1.0000 0.17751  0.53180  0.75390  Biso   1.000  C
  C128     1.0000 0.82249  0.53180  0.74610  Biso   1.000  C
  H97      1.0000 0.30244  0.91090  0.21460  Biso   1.000  H
  H98      1.0000 0.69756  0.91090  0.28540  Biso   1.000  H
  H99      1.0000 0.80244  0.41090  0.21460  Biso   1.000  H
  H100     1.0000 0.19756  0.41090  0.28540  Biso   1.000  H
  H101     1.0000 0.69756  0.08910  0.78540  Biso   1.000  H
  H102     1.0000 0.30244  0.08910  0.71460  Biso   1.000  H
  H103     1.0000 0.19756  0.58910  0.78540  Biso   1.000  H
  H104     1.0000 0.80244  0.58910  0.71460  Biso   1.000  H
  C129     1.0000 0.32753  0.05820  0.19400  Biso   1.000  C
  C130     1.0000 0.67247  0.05820  0.30600  Biso   1.000  C
  C131     1.0000 0.82753  0.55820  0.19400  Biso   1.000  C
  C132     1.0000 0.17247  0.55820  0.30600  Biso   1.000  C
  C133     1.0000 0.67247  0.94180  0.80600  Biso   1.000  C
  C134     1.0000 0.32753  0.94180  0.69400  Biso   1.000  C
  C135     1.0000 0.17247  0.44180  0.80600  Biso   1.000  C
  C136     1.0000 0.82753  0.44180  0.69400  Biso   1.000  C
  H105     1.0000 0.31027  0.06300  0.12710  Biso   1.000  H
  H106     1.0000 0.68973  0.06300  0.37290  Biso   1.000  H
  H107     1.0000 0.81027  0.56300  0.12710  Biso   1.000  H
  H108     1.0000 0.18973  0.56300  0.37290  Biso   1.000  H
  H109     1.0000 0.68973  0.93700  0.87290  Biso   1.000  H
  H110     1.0000 0.31027  0.93700  0.62710  Biso   1.000  H
  H111     1.0000 0.18973  0.43700  0.87290  Biso   1.000  H
  H112     1.0000 0.81027  0.43700  0.62710  Biso   1.000  H
  C137     1.0000 0.39801  0.35060  0.25120  Biso   1.000  C
  C138     1.0000 0.60199  0.35060  0.24880  Biso   1.000  C
  C139     1.0000 0.89801  0.85060  0.25120  Biso   1.000  C
  C140     1.0000 0.10199  0.85060  0.24880  Biso   1.000  C
  C141     1.0000 0.60199  0.64940  0.74880  Biso   1.000  C
  C142     1.0000 0.39801  0.64940  0.75120  Biso   1.000  C
  C143     1.0000 0.10199  0.14940  0.74880  Biso   1.000  C
  C144     1.0000 0.89801  0.14940  0.75120  Biso   1.000  C
  C145     1.0000 0.37226  0.42920  0.28250  Biso   1.000  C
  C146     1.0000 0.62774  0.42920  0.21750  Biso   1.000  C
  C147     1.0000 0.87226  0.92920  0.28250  Biso   1.000  C
  C148     1.0000 0.12774  0.92920  0.21750  Biso   1.000  C
  C149     1.0000 0.62774  0.57080  0.71750  Biso   1.000  C
  C150     1.0000 0.37226  0.57080  0.78250  Biso   1.000  C
  C151     1.0000 0.12774  0.07080  0.71750  Biso   1.000  C
  C152     1.0000 0.87226  0.07080  0.78250  Biso   1.000  C
  H113     1.0000 0.33836  0.43120  0.25710  Biso   1.000  H
  H114     1.0000 0.66164  0.43120  0.24290  Biso   1.000  H
  H115     1.0000 0.83836  0.93120  0.25710  Biso   1.000  H
  H116     1.0000 0.16164  0.93120  0.24290  Biso   1.000  H
  H117     1.0000 0.66164  0.56880  0.74290  Biso   1.000  H
  H118     1.0000 0.33836  0.56880  0.75710  Biso   1.000  H
  H119     1.0000 0.16164  0.06880  0.74290  Biso   1.000  H
  H120     1.0000 0.83836  0.06880  0.75710  Biso   1.000  H
  C153     1.0000 0.39570  0.50420  0.35040  Biso   1.000  C
  C154     1.0000 0.60430  0.50420  0.14960  Biso   1.000  C
  C155     1.0000 0.89570  0.00420  0.35040  Biso   1.000  C
  C156     1.0000 0.10430  0.00420  0.14960  Biso   1.000  C
  C157     1.0000 0.60430  0.49580  0.64960  Biso   1.000  C
  C158     1.0000 0.39570  0.49580  0.85040  Biso   1.000  C
  C159     1.0000 0.10430  0.99580  0.64960  Biso   1.000  C
  C160     1.0000 0.89570  0.99580  0.85040  Biso   1.000  C
  H121     1.0000 0.37774  0.55690  0.37180  Biso   1.000  H
  H122     1.0000 0.62226  0.55690  0.12820  Biso   1.000  H
  H123     1.0000 0.87774  0.05690  0.37180  Biso   1.000  H
  H124     1.0000 0.12226  0.05690  0.12820  Biso   1.000  H
  H125     1.0000 0.62226  0.44310  0.62820  Biso   1.000  H
  H126     1.0000 0.37774  0.44310  0.87180  Biso   1.000  H
  H127     1.0000 0.12226  0.94310  0.62820  Biso   1.000  H
  H128     1.0000 0.87774  0.94310  0.87180  Biso   1.000  H
  C161     1.0000 0.44478  0.50340  0.38700  Biso   1.000  C
  C162     1.0000 0.55522  0.50340  0.11300  Biso   1.000  C
  C163     1.0000 0.94478  0.00340  0.38700  Biso   1.000  C
  C164     1.0000 0.05522  0.00340  0.11300  Biso   1.000  C
  C165     1.0000 0.55522  0.49660  0.61300  Biso   1.000  C
  C166     1.0000 0.44478  0.49660  0.88700  Biso   1.000  C
  C167     1.0000 0.05522  0.99660  0.61300  Biso   1.000  C
  C168     1.0000 0.94478  0.99660  0.88700  Biso   1.000  C
  H129     1.0000 0.46078  0.55510  0.43370  Biso   1.000  H
  H130     1.0000 0.53922  0.55510  0.06630  Biso   1.000  H
  H131     1.0000 0.96078  0.05510  0.43370  Biso   1.000  H
  H132     1.0000 0.03922  0.05510  0.06630  Biso   1.000  H
  H133     1.0000 0.53922  0.44490  0.56630  Biso   1.000  H
  H134     1.0000 0.46078  0.44490  0.93370  Biso   1.000  H
  H135     1.0000 0.03922  0.94490  0.56630  Biso   1.000  H
  H136     1.0000 0.96078  0.94490  0.93370  Biso   1.000  H
  C169     1.0000 0.47051  0.42690  0.35540  Biso   1.000  C
  C170     1.0000 0.52949  0.42690  0.14460  Biso   1.000  C
  C171     1.0000 0.97051  0.92690  0.35540  Biso   1.000  C
  C172     1.0000 0.02949  0.92690  0.14460  Biso   1.000  C
  C173     1.0000 0.52949  0.57310  0.64460  Biso   1.000  C
  C174     1.0000 0.47051  0.57310  0.85540  Biso   1.000  C
  C175     1.0000 0.02949  0.07310  0.64460  Biso   1.000  C
  C176     1.0000 0.97051  0.07310  0.85540  Biso   1.000  C
  H137     1.0000 0.50447  0.42680  0.37940  Biso   1.000  H
  H138     1.0000 0.49553  0.42680  0.12060  Biso   1.000  H
  H139     1.0000 0.00447  0.92680  0.37940  Biso   1.000  H
  H140     1.0000 0.99553  0.92680  0.12060  Biso   1.000  H
  H141     1.0000 0.49553  0.57320  0.62060  Biso   1.000  H
  H142     1.0000 0.50447  0.57320  0.87940  Biso   1.000  H
  H143     1.0000 0.99553  0.07320  0.62060  Biso   1.000  H
  H144     1.0000 0.00447  0.07320  0.87940  Biso   1.000  H
  C177     1.0000 0.44735  0.35030  0.28920  Biso   1.000  C
  C178     1.0000 0.55265  0.35030  0.21080  Biso   1.000  C
  C179     1.0000 0.94735  0.85030  0.28920  Biso   1.000  C
  C180     1.0000 0.05265  0.85030  0.21080  Biso   1.000  C
  C181     1.0000 0.55265  0.64970  0.71080  Biso   1.000  C
  C182     1.0000 0.44735  0.64970  0.78920  Biso   1.000  C
  C183     1.0000 0.05265  0.14970  0.71080  Biso   1.000  C
  C184     1.0000 0.94735  0.14970  0.78920  Biso   1.000  C
  H145     1.0000 0.46550  0.29680  0.26940  Biso   1.000  H
  H146     1.0000 0.53450  0.29680  0.23060  Biso   1.000  H
  H147     1.0000 0.96550  0.79680  0.26940  Biso   1.000  H
  H148     1.0000 0.03450  0.79680  0.23060  Biso   1.000  H
  H149     1.0000 0.53450  0.70320  0.73060  Biso   1.000  H
  H150     1.0000 0.46550  0.70320  0.76940  Biso   1.000  H
  H151     1.0000 0.03450  0.20320  0.73060  Biso   1.000  H
  H152     1.0000 0.96550  0.20320  0.76940  Biso   1.000  H
  O25      1.0000 0.54730  0.20790  0.88000  Biso   1.000  O
  O26      1.0000 0.45270  0.20790  0.62000  Biso   1.000  O
  O27      1.0000 0.04730  0.70790  0.88000  Biso   1.000  O
  O28      1.0000 0.95270  0.70790  0.62000  Biso   1.000  O
  O29      1.0000 0.45270  0.79210  0.12000  Biso   1.000  O
  O30      1.0000 0.54730  0.79210  0.38000  Biso   1.000  O
  O31      1.0000 0.95270  0.29210  0.12000  Biso   1.000  O
  O32      1.0000 0.04730  0.29210  0.38000  Biso   1.000  O
  C185     1.0000 0.56730  0.30190  0.93230  Biso   1.000  C
  C186     1.0000 0.43270  0.30190  0.56770  Biso   1.000  C
  C187     1.0000 0.06730  0.80190  0.93230  Biso   1.000  C
  C188     1.0000 0.93270  0.80190  0.56770  Biso   1.000  C
  C189     1.0000 0.43270  0.69810  0.06770  Biso   1.000  C
  C190     1.0000 0.56730  0.69810  0.43230  Biso   1.000  C
  C191     1.0000 0.93270  0.19810  0.06770  Biso   1.000  C
  C192     1.0000 0.06730  0.19810  0.43230  Biso   1.000  C
  H153     1.0000 0.59430  0.28440  0.99030  Biso   1.000  H
  H154     1.0000 0.40570  0.28440  0.50970  Biso   1.000  H
  H155     1.0000 0.09430  0.78440  0.99030  Biso   1.000  H
  H156     1.0000 0.90570  0.78440  0.50970  Biso   1.000  H
  H157     1.0000 0.40570  0.71560  0.00970  Biso   1.000  H
  H158     1.0000 0.59430  0.71560  0.49030  Biso   1.000  H
  H159     1.0000 0.90570  0.21560  0.00970  Biso   1.000  H
  H160     1.0000 0.09430  0.21560  0.49030  Biso   1.000  H
  H161     1.0000 0.54300  0.34330  0.95220  Biso   1.000  H
  H162     1.0000 0.45700  0.34330  0.54780  Biso   1.000  H
  H163     1.0000 0.04300  0.84330  0.95220  Biso   1.000  H
  H164     1.0000 0.95700  0.84330  0.54780  Biso   1.000  H
  H165     1.0000 0.45700  0.65670  0.04780  Biso   1.000  H
  H166     1.0000 0.54300  0.65670  0.45220  Biso   1.000  H
  H167     1.0000 0.95700  0.15670  0.04780  Biso   1.000  H
  H168     1.0000 0.04300  0.15670  0.45220  Biso   1.000  H
  C193     1.0000 0.58410  0.36150  0.85840  Biso   1.000  C
  C194     1.0000 0.41590  0.36150  0.64160  Biso   1.000  C
  C195     1.0000 0.08410  0.86150  0.85840  Biso   1.000  C
  C196     1.0000 0.91590  0.86150  0.64160  Biso   1.000  C
  C197     1.0000 0.41590  0.63850  0.14160  Biso   1.000  C
  C198     1.0000 0.58410  0.63850  0.35840  Biso   1.000  C
  C199     1.0000 0.91590  0.13850  0.14160  Biso   1.000  C
  C200     1.0000 0.08410  0.13850  0.35840  Biso   1.000  C
  H169     1.0000 0.60800  0.41710  0.88870  Biso   1.000  H
  H170     1.0000 0.39200  0.41710  0.61130  Biso   1.000  H
  H171     1.0000 0.10800  0.91710  0.88870  Biso   1.000  H
  H172     1.0000 0.89200  0.91710  0.61130  Biso   1.000  H
  H173     1.0000 0.39200  0.58290  0.11130  Biso   1.000  H
  H174     1.0000 0.60800  0.58290  0.38870  Biso   1.000  H
  H175     1.0000 0.89200  0.08290  0.11130  Biso   1.000  H
  H176     1.0000 0.10800  0.08290  0.38870  Biso   1.000  H
  H177     1.0000 0.55700  0.39490  0.80840  Biso   1.000  H
  H178     1.0000 0.44300  0.39490  0.69160  Biso   1.000  H
  H179     1.0000 0.05700  0.89490  0.80840  Biso   1.000  H
  H180     1.0000 0.94300  0.89490  0.69160  Biso   1.000  H
  H181     1.0000 0.44300  0.60510  0.19160  Biso   1.000  H
  H182     1.0000 0.55700  0.60510  0.30840  Biso   1.000  H
  H183     1.0000 0.94300  0.10510  0.19160  Biso   1.000  H
  H184     1.0000 0.05700  0.10510  0.30840  Biso   1.000  H
  C201     1.0000 0.60610  0.27110  0.81730  Biso   1.000  C
  C202     1.0000 0.39390  0.27110  0.68270  Biso   1.000  C
  C203     1.0000 0.10610  0.77110  0.81730  Biso   1.000  C
  C204     1.0000 0.89390  0.77110  0.68270  Biso   1.000  C
  C205     1.0000 0.39390  0.72890  0.18270  Biso   1.000  C
  C206     1.0000 0.60610  0.72890  0.31730  Biso   1.000  C
  C207     1.0000 0.89390  0.22890  0.18270  Biso   1.000  C
  C208     1.0000 0.10610  0.22890  0.31730  Biso   1.000  C
  H185     1.0000 0.60840  0.28910  0.75220  Biso   1.000  H
  H186     1.0000 0.39160  0.28910  0.74780  Biso   1.000  H
  H187     1.0000 0.10840  0.78910  0.75220  Biso   1.000  H
  H188     1.0000 0.89160  0.78910  0.74780  Biso   1.000  H
  H189     1.0000 0.39160  0.71090  0.24780  Biso   1.000  H
  H190     1.0000 0.60840  0.71090  0.25220  Biso   1.000  H
  H191     1.0000 0.89160  0.21090  0.24780  Biso   1.000  H
  H192     1.0000 0.10840  0.21090  0.25220  Biso   1.000  H
  H193     1.0000 0.63840  0.25290  0.86040  Biso   1.000  H
  H194     1.0000 0.36160  0.25290  0.63960  Biso   1.000  H
  H195     1.0000 0.13840  0.75290  0.86040  Biso   1.000  H
  H196     1.0000 0.86160  0.75290  0.63960  Biso   1.000  H
  H197     1.0000 0.36160  0.74710  0.13960  Biso   1.000  H
  H198     1.0000 0.63840  0.74710  0.36040  Biso   1.000  H
  H199     1.0000 0.86160  0.24710  0.13960  Biso   1.000  H
  H200     1.0000 0.13840  0.24710  0.36040  Biso   1.000  H
  C209     1.0000 0.57160  0.18230  0.81280  Biso   1.000  C
  C210     1.0000 0.42840  0.18230  0.68720  Biso   1.000  C
  C211     1.0000 0.07160  0.68230  0.81280  Biso   1.000  C
  C212     1.0000 0.92840  0.68230  0.68720  Biso   1.000  C
  C213     1.0000 0.42840  0.81770  0.18720  Biso   1.000  C
  C214     1.0000 0.57160  0.81770  0.31280  Biso   1.000  C
  C215     1.0000 0.92840  0.31770  0.18720  Biso   1.000  C
  C216     1.0000 0.07160  0.31770  0.31280  Biso   1.000  C
  H201     1.0000 0.54890  0.17640  0.74680  Biso   1.000  H
  H202     1.0000 0.45110  0.17640  0.75320  Biso   1.000  H
  H203     1.0000 0.04890  0.67640  0.74680  Biso   1.000  H
  H204     1.0000 0.95110  0.67640  0.75320  Biso   1.000  H
  H205     1.0000 0.45110  0.82360  0.25320  Biso   1.000  H
  H206     1.0000 0.54890  0.82360  0.24680  Biso   1.000  H
  H207     1.0000 0.95110  0.32360  0.25320  Biso   1.000  H
  H208     1.0000 0.04890  0.32360  0.24680  Biso   1.000  H
  H209     1.0000 0.58880  0.11330  0.82980  Biso   1.000  H
  H210     1.0000 0.41120  0.11330  0.67020  Biso   1.000  H
  H211     1.0000 0.08880  0.61330  0.82980  Biso   1.000  H
  H212     1.0000 0.91120  0.61330  0.67020  Biso   1.000  H
  H213     1.0000 0.41120  0.88670  0.17020  Biso   1.000  H
  H214     1.0000 0.58880  0.88670  0.32980  Biso   1.000  H
  H215     1.0000 0.91120  0.38670  0.17020  Biso   1.000  H
  H216     1.0000 0.08880  0.38670  0.32980  Biso   1.000  H
  O33      1.0000 0.55900  0.19000  0.89860  Biso   1.000  O
  O34      1.0000 0.44100  0.19000  0.60140  Biso   1.000  O
  O35      1.0000 0.05900  0.69000  0.89860  Biso   1.000  O
  O36      1.0000 0.94100  0.69000  0.60140  Biso   1.000  O
  O37      1.0000 0.44100  0.81000  0.10140  Biso   1.000  O
  O38      1.0000 0.55900  0.81000  0.39860  Biso   1.000  O
  O39      1.0000 0.94100  0.31000  0.10140  Biso   1.000  O
  O40      1.0000 0.05900  0.31000  0.39860  Biso   1.000  O
  C217     1.0000 0.54980  0.30520  0.89470  Biso   1.000  C
  C218     1.0000 0.45020  0.30520  0.60530  Biso   1.000  C
  C219     1.0000 0.04980  0.80520  0.89470  Biso   1.000  C
  C220     1.0000 0.95020  0.80520  0.60530  Biso   1.000  C
  C221     1.0000 0.45020  0.69480  0.10530  Biso   1.000  C
  C222     1.0000 0.54980  0.69480  0.39470  Biso   1.000  C
  C223     1.0000 0.95020  0.19480  0.10530  Biso   1.000  C
  C224     1.0000 0.04980  0.19480  0.39470  Biso   1.000  C
  H217     1.0000 0.52200  0.32420  0.83870  Biso   1.000  H
  H218     1.0000 0.47800  0.32420  0.66130  Biso   1.000  H
  H219     1.0000 0.02200  0.82420  0.83870  Biso   1.000  H
  H220     1.0000 0.97800  0.82420  0.66130  Biso   1.000  H
  H221     1.0000 0.47800  0.67580  0.16130  Biso   1.000  H
  H222     1.0000 0.52200  0.67580  0.33870  Biso   1.000  H
  H223     1.0000 0.97800  0.17580  0.16130  Biso   1.000  H
  H224     1.0000 0.02200  0.17580  0.33870  Biso   1.000  H
  H225     1.0000 0.54400  0.33100  0.95490  Biso   1.000  H
  H226     1.0000 0.45600  0.33100  0.54510  Biso   1.000  H
  H227     1.0000 0.04400  0.83100  0.95490  Biso   1.000  H
  H228     1.0000 0.95600  0.83100  0.54510  Biso   1.000  H
  H229     1.0000 0.45600  0.66900  0.04510  Biso   1.000  H
  H230     1.0000 0.54400  0.66900  0.45490  Biso   1.000  H
  H231     1.0000 0.95600  0.16900  0.04510  Biso   1.000  H
  H232     1.0000 0.04400  0.16900  0.45490  Biso   1.000  H
  C225     1.0000 0.59330  0.34750  0.88430  Biso   1.000  C
  C226     1.0000 0.40670  0.34750  0.61570  Biso   1.000  C
  C227     1.0000 0.09330  0.84750  0.88430  Biso   1.000  C
  C228     1.0000 0.90670  0.84750  0.61570  Biso   1.000  C
  C229     1.0000 0.40670  0.65250  0.11570  Biso   1.000  C
  C230     1.0000 0.59330  0.65250  0.38430  Biso   1.000  C
  C231     1.0000 0.90670  0.15250  0.11570  Biso   1.000  C
  C232     1.0000 0.09330  0.15250  0.38430  Biso   1.000  C
  H233     1.0000 0.61540  0.36790  0.94810  Biso   1.000  H
  H234     1.0000 0.38460  0.36790  0.55190  Biso   1.000  H
  H235     1.0000 0.11540  0.86790  0.94810  Biso   1.000  H
  H236     1.0000 0.88460  0.86790  0.55190  Biso   1.000  H
  H237     1.0000 0.38460  0.63210  0.05190  Biso   1.000  H
  H238     1.0000 0.61540  0.63210  0.44810  Biso   1.000  H
  H239     1.0000 0.88460  0.13210  0.05190  Biso   1.000  H
  H240     1.0000 0.11540  0.13210  0.44810  Biso   1.000  H
  H241     1.0000 0.58670  0.41170  0.84210  Biso   1.000  H
  H242     1.0000 0.41330  0.41170  0.65790  Biso   1.000  H
  H243     1.0000 0.08670  0.91170  0.84210  Biso   1.000  H
  H244     1.0000 0.91330  0.91170  0.65790  Biso   1.000  H
  H245     1.0000 0.41330  0.58830  0.15790  Biso   1.000  H
  H246     1.0000 0.58670  0.58830  0.34210  Biso   1.000  H
  H247     1.0000 0.91330  0.08830  0.15790  Biso   1.000  H
  H248     1.0000 0.08670  0.08830  0.34210  Biso   1.000  H
  C233     1.0000 0.61440  0.26100  0.83990  Biso   1.000  C
  C234     1.0000 0.38560  0.26100  0.66010  Biso   1.000  C
  C235     1.0000 0.11440  0.76100  0.83990  Biso   1.000  C
  C236     1.0000 0.88560  0.76100  0.66010  Biso   1.000  C
  C237     1.0000 0.38560  0.73900  0.16010  Biso   1.000  C
  C238     1.0000 0.61440  0.73900  0.33990  Biso   1.000  C
  C239     1.0000 0.88560  0.23900  0.16010  Biso   1.000  C
  C240     1.0000 0.11440  0.23900  0.33990  Biso   1.000  C
  H249     1.0000 0.61310  0.28020  0.77280  Biso   1.000  H
  H250     1.0000 0.38690  0.28020  0.72720  Biso   1.000  H
  H251     1.0000 0.11310  0.78020  0.77280  Biso   1.000  H
  H252     1.0000 0.88690  0.78020  0.72720  Biso   1.000  H
  H253     1.0000 0.38690  0.71980  0.22720  Biso   1.000  H
  H254     1.0000 0.61310  0.71980  0.27280  Biso   1.000  H
  H255     1.0000 0.88690  0.21980  0.22720  Biso   1.000  H
  H256     1.0000 0.11310  0.21980  0.27280  Biso   1.000  H
  H257     1.0000 0.64820  0.24870  0.87790  Biso   1.000  H
  H258     1.0000 0.35180  0.24870  0.62210  Biso   1.000  H
  H259     1.0000 0.14820  0.74870  0.87790  Biso   1.000  H
  H260     1.0000 0.85180  0.74870  0.62210  Biso   1.000  H
  H261     1.0000 0.35180  0.75130  0.12210  Biso   1.000  H
  H262     1.0000 0.64820  0.75130  0.37790  Biso   1.000  H
  H263     1.0000 0.85180  0.25130  0.12210  Biso   1.000  H
  H264     1.0000 0.14820  0.25130  0.37790  Biso   1.000  H
  C241     1.0000 0.58740  0.17100  0.84040  Biso   1.000  C
  C242     1.0000 0.41260  0.17100  0.65960  Biso   1.000  C
  C243     1.0000 0.08740  0.67100  0.84040  Biso   1.000  C
  C244     1.0000 0.91260  0.67100  0.65960  Biso   1.000  C
  C245     1.0000 0.41260  0.82900  0.15960  Biso   1.000  C
  C246     1.0000 0.58740  0.82900  0.34040  Biso   1.000  C
  C247     1.0000 0.91260  0.32900  0.15960  Biso   1.000  C
  C248     1.0000 0.08740  0.32900  0.34040  Biso   1.000  C
  H265     1.0000 0.56730  0.15430  0.77380  Biso   1.000  H
  H266     1.0000 0.43270  0.15430  0.72620  Biso   1.000  H
  H267     1.0000 0.06730  0.65430  0.77380  Biso   1.000  H
  H268     1.0000 0.93270  0.65430  0.72620  Biso   1.000  H
  H269     1.0000 0.43270  0.84570  0.22620  Biso   1.000  H
  H270     1.0000 0.56730  0.84570  0.27380  Biso   1.000  H
  H271     1.0000 0.93270  0.34570  0.22620  Biso   1.000  H
  H272     1.0000 0.06730  0.34570  0.27380  Biso   1.000  H
  H273     1.0000 0.60870  0.10900  0.86530  Biso   1.000  H
  H274     1.0000 0.39130  0.10900  0.63470  Biso   1.000  H
  H275     1.0000 0.10870  0.60900  0.86530  Biso   1.000  H
  H276     1.0000 0.89130  0.60900  0.63470  Biso   1.000  H
  H277     1.0000 0.39130  0.89100  0.13470  Biso   1.000  H
  H278     1.0000 0.60870  0.89100  0.36530  Biso   1.000  H
  H279     1.0000 0.89130  0.39100  0.13470  Biso   1.000  H
  H280     1.0000 0.10870  0.39100  0.36530  Biso   1.000  H
