data_image0
_cell_length_a       9.5811
_cell_length_b       6.2918
_cell_length_c       7.0913
_cell_angle_alpha    90
_cell_angle_beta     94.194
_cell_angle_gamma    90

_symmetry_space_group_name_H-M    "P 1"
_symmetry_int_tables_number       1

loop_
  _symmetry_equiv_pos_as_xyz
  'x, y, z'

loop_
  _atom_site_label
  _atom_site_occupancy
  _atom_site_fract_x
  _atom_site_fract_y
  _atom_site_fract_z
  _atom_site_thermal_displace_type
  _atom_site_B_iso_or_equiv
  _atom_site_type_symbol
  Cu1      1.0000 0.47869  0.19324  0.59169  Biso   1.000  Cu
  Cu2      1.0000 0.52131  0.69324  0.90831  Biso   1.000  Cu
  Cu3      1.0000 0.52131  0.80676  0.40831  Biso   1.000  Cu
  Cu4      1.0000 0.47869  0.30676  0.09169  Biso   1.000  Cu
  S1       1.0000 0.61724  0.15794  0.88551  Biso   1.000  S
  S2       1.0000 0.38276  0.65794  0.61449  Biso   1.000  S
  S3       1.0000 0.38276  0.84206  0.11449  Biso   1.000  S
  S4       1.0000 0.61724  0.34206  0.38551  Biso   1.000  S
  N1       1.0000 0.86310  0.34580  0.80260  Biso   1.000  N
  N2       1.0000 0.13690  0.84580  0.69740  Biso   1.000  N
  N3       1.0000 0.13690  0.65420  0.19740  Biso   1.000  N
  N4       1.0000 0.86310  0.15420  0.30260  Biso   1.000  N
  H1       1.0000 0.90340  0.22650  0.78310  Biso   1.000  H
  H2       1.0000 0.09660  0.72650  0.71690  Biso   1.000  H
  H3       1.0000 0.09660  0.77350  0.21690  Biso   1.000  H
  H4       1.0000 0.90340  0.27350  0.28310  Biso   1.000  H
  N5       1.0000 0.70580  0.57260  0.87520  Biso   1.000  N
  N6       1.0000 0.29420  0.07260  0.62480  Biso   1.000  N
  N7       1.0000 0.29420  0.42740  0.12480  Biso   1.000  N
  N8       1.0000 0.70580  0.92740  0.37520  Biso   1.000  N
  C1       1.0000 0.73240  0.36560  0.85690  Biso   1.000  C
  C2       1.0000 0.26760  0.86560  0.64310  Biso   1.000  C
  C3       1.0000 0.26760  0.63440  0.14310  Biso   1.000  C
  C4       1.0000 0.73240  0.13440  0.35690  Biso   1.000  C
  N9       1.0000 0.92350  0.53990  0.78240  Biso   1.000  N
  N10      1.0000 0.07650  0.03990  0.71760  Biso   1.000  N
  N11      1.0000 0.07650  0.46010  0.21760  Biso   1.000  N
  N12      1.0000 0.92350  0.96010  0.28240  Biso   1.000  N
  C5       1.0000 0.82520  0.66920  0.82800  Biso   1.000  C
  C6       1.0000 0.17480  0.16920  0.67200  Biso   1.000  C
  C7       1.0000 0.17480  0.33080  0.17200  Biso   1.000  C
  C8       1.0000 0.82520  0.83080  0.32800  Biso   1.000  C
  H5       1.0000 0.83600  0.81610  0.82830  Biso   1.000  H
  H6       1.0000 0.16400  0.31610  0.67170  Biso   1.000  H
  H7       1.0000 0.16400  0.18390  0.17170  Biso   1.000  H
  H8       1.0000 0.83600  0.68390  0.32830  Biso   1.000  H
