data_image0
_cell_length_a       8.337
_cell_length_b       16.649
_cell_length_c       25.806
_cell_angle_alpha    90
_cell_angle_beta     90
_cell_angle_gamma    90

_symmetry_space_group_name_H-M    "P 1"
_symmetry_int_tables_number       1

loop_
  _symmetry_equiv_pos_as_xyz
  'x, y, z'

loop_
  _atom_site_label
  _atom_site_occupancy
  _atom_site_fract_x
  _atom_site_fract_y
  _atom_site_fract_z
  _atom_site_thermal_displace_type
  _atom_site_B_iso_or_equiv
  _atom_site_type_symbol
  Cu1      1.0000 0.50000  0.91997  0.56713  Biso   1.000  Cu
  Cu2      1.0000 0.50000  0.58003  0.06713  Biso   1.000  Cu
  Cu3      1.0000 0.50000  0.41997  0.93287  Biso   1.000  Cu
  Cu4      1.0000 0.50000  0.08003  0.43287  Biso   1.000  Cu
  Cu5      1.0000 0.00000  0.41997  0.56713  Biso   1.000  Cu
  Cu6      1.0000 0.00000  0.08003  0.06713  Biso   1.000  Cu
  Cu7      1.0000 0.00000  0.91997  0.93287  Biso   1.000  Cu
  Cu8      1.0000 0.00000  0.58003  0.43287  Biso   1.000  Cu
  Cu9      1.0000 0.50000  0.11947  0.56467  Biso   1.000  Cu
  Cu10     1.0000 0.50000  0.38053  0.06467  Biso   1.000  Cu
  Cu11     1.0000 0.50000  0.61947  0.93533  Biso   1.000  Cu
  Cu12     1.0000 0.50000  0.88053  0.43533  Biso   1.000  Cu
  Cu13     1.0000 0.00000  0.61947  0.56467  Biso   1.000  Cu
  Cu14     1.0000 0.00000  0.88053  0.06467  Biso   1.000  Cu
  Cu15     1.0000 0.00000  0.11947  0.93533  Biso   1.000  Cu
  Cu16     1.0000 0.00000  0.38053  0.43533  Biso   1.000  Cu
  Cu17     1.0000 0.50000  0.07042  0.95207  Biso   1.000  Cu
  Cu18     1.0000 0.50000  0.42958  0.45207  Biso   1.000  Cu
  Cu19     1.0000 0.50000  0.57042  0.54793  Biso   1.000  Cu
  Cu20     1.0000 0.50000  0.92958  0.04793  Biso   1.000  Cu
  Cu21     1.0000 0.00000  0.57042  0.95207  Biso   1.000  Cu
  Cu22     1.0000 0.00000  0.92958  0.45207  Biso   1.000  Cu
  Cu23     1.0000 0.00000  0.07042  0.54793  Biso   1.000  Cu
  Cu24     1.0000 0.00000  0.42958  0.04793  Biso   1.000  Cu
  I1       1.0000 0.75921  0.00000  0.00000  Biso   1.000  I
  I2       1.0000 0.24079  0.50000  0.50000  Biso   1.000  I
  I3       1.0000 0.25921  0.50000  0.00000  Biso   1.000  I
  I4       1.0000 0.74079  0.00000  0.50000  Biso   1.000  I
  I5       1.0000 0.24079  0.00000  0.00000  Biso   1.000  I
  I6       1.0000 0.75921  0.50000  0.50000  Biso   1.000  I
  I7       1.0000 0.74079  0.50000  0.00000  Biso   1.000  I
  I8       1.0000 0.25921  0.00000  0.50000  Biso   1.000  I
  N1       1.0000 0.50000  0.98080  0.62940  Biso   1.000  N
  N2       1.0000 0.50000  0.51920  0.12940  Biso   1.000  N
  N3       1.0000 0.50000  0.48080  0.87060  Biso   1.000  N
  N4       1.0000 0.50000  0.01920  0.37060  Biso   1.000  N
  N5       1.0000 0.00000  0.48080  0.62940  Biso   1.000  N
  N6       1.0000 0.00000  0.01920  0.12940  Biso   1.000  N
  N7       1.0000 0.00000  0.98080  0.87060  Biso   1.000  N
  N8       1.0000 0.00000  0.51920  0.37060  Biso   1.000  N
  N9       1.0000 0.50000  0.06120  0.62740  Biso   1.000  N
  N10      1.0000 0.50000  0.43880  0.12740  Biso   1.000  N
  N11      1.0000 0.50000  0.56120  0.87260  Biso   1.000  N
  N12      1.0000 0.50000  0.93880  0.37260  Biso   1.000  N
  N13      1.0000 0.00000  0.56120  0.62740  Biso   1.000  N
  N14      1.0000 0.00000  0.93880  0.12740  Biso   1.000  N
  N15      1.0000 0.00000  0.06120  0.87260  Biso   1.000  N
  N16      1.0000 0.00000  0.43880  0.37260  Biso   1.000  N
  N17      1.0000 0.50000  0.04320  0.87680  Biso   1.000  N
  N18      1.0000 0.50000  0.45680  0.37680  Biso   1.000  N
  N19      1.0000 0.50000  0.54320  0.62320  Biso   1.000  N
  N20      1.0000 0.50000  0.95680  0.12320  Biso   1.000  N
  N21      1.0000 0.00000  0.54320  0.87680  Biso   1.000  N
  N22      1.0000 0.00000  0.95680  0.37680  Biso   1.000  N
  N23      1.0000 0.00000  0.04320  0.62320  Biso   1.000  N
  N24      1.0000 0.00000  0.45680  0.12320  Biso   1.000  N
  N25      1.0000 0.50000  0.80050  0.48640  Biso   1.000  N
  N26      1.0000 0.50000  0.69950  0.98640  Biso   1.000  N
  N27      1.0000 0.50000  0.30050  0.01360  Biso   1.000  N
  N28      1.0000 0.50000  0.19950  0.51360  Biso   1.000  N
  N29      1.0000 0.00000  0.30050  0.48640  Biso   1.000  N
  N30      1.0000 0.00000  0.19950  0.98640  Biso   1.000  N
  N31      1.0000 0.00000  0.80050  0.01360  Biso   1.000  N
  N32      1.0000 0.00000  0.69950  0.51360  Biso   1.000  N
  N33      1.0000 0.50000  0.81440  0.53760  Biso   1.000  N
  N34      1.0000 0.50000  0.68560  0.03760  Biso   1.000  N
  N35      1.0000 0.50000  0.31440  0.96240  Biso   1.000  N
  N36      1.0000 0.50000  0.18560  0.46240  Biso   1.000  N
  N37      1.0000 0.00000  0.31440  0.53760  Biso   1.000  N
  N38      1.0000 0.00000  0.18560  0.03760  Biso   1.000  N
  N39      1.0000 0.00000  0.81440  0.96240  Biso   1.000  N
  N40      1.0000 0.00000  0.68560  0.46240  Biso   1.000  N
  N41      1.0000 0.50000  0.74840  0.56320  Biso   1.000  N
  N42      1.0000 0.50000  0.75160  0.06320  Biso   1.000  N
  N43      1.0000 0.50000  0.24840  0.93680  Biso   1.000  N
  N44      1.0000 0.50000  0.25160  0.43680  Biso   1.000  N
  N45      1.0000 0.00000  0.24840  0.56320  Biso   1.000  N
  N46      1.0000 0.00000  0.25160  0.06320  Biso   1.000  N
  N47      1.0000 0.00000  0.74840  0.93680  Biso   1.000  N
  N48      1.0000 0.00000  0.75160  0.43680  Biso   1.000  N
  N49      1.0000 0.50000  0.68610  0.52760  Biso   1.000  N
  N50      1.0000 0.50000  0.81390  0.02760  Biso   1.000  N
  N51      1.0000 0.50000  0.18610  0.97240  Biso   1.000  N
  N52      1.0000 0.50000  0.31390  0.47240  Biso   1.000  N
  N53      1.0000 0.00000  0.18610  0.52760  Biso   1.000  N
  N54      1.0000 0.00000  0.31390  0.02760  Biso   1.000  N
  N55      1.0000 0.00000  0.68610  0.97240  Biso   1.000  N
  N56      1.0000 0.00000  0.81390  0.47240  Biso   1.000  N
  C1       1.0000 0.32370  0.84600  0.68800  Biso   1.000  C
  C2       1.0000 0.67630  0.65400  0.18800  Biso   1.000  C
  C3       1.0000 0.67630  0.34600  0.81200  Biso   1.000  C
  C4       1.0000 0.32370  0.15400  0.31200  Biso   1.000  C
  C5       1.0000 0.82370  0.34600  0.68800  Biso   1.000  C
  C6       1.0000 0.17630  0.15400  0.18800  Biso   1.000  C
  C7       1.0000 0.17630  0.84600  0.81200  Biso   1.000  C
  C8       1.0000 0.82370  0.65400  0.31200  Biso   1.000  C
  C9       1.0000 0.67630  0.15400  0.31200  Biso   1.000  C
  C10      1.0000 0.32370  0.34600  0.81200  Biso   1.000  C
  C11      1.0000 0.32370  0.65400  0.18800  Biso   1.000  C
  C12      1.0000 0.67630  0.84600  0.68800  Biso   1.000  C
  C13      1.0000 0.17630  0.65400  0.31200  Biso   1.000  C
  C14      1.0000 0.82370  0.84600  0.81200  Biso   1.000  C
  C15      1.0000 0.82370  0.15400  0.18800  Biso   1.000  C
  C16      1.0000 0.17630  0.34600  0.68800  Biso   1.000  C
  H1       1.0000 0.30880  0.79000  0.69520  Biso   1.000  H
  H2       1.0000 0.69120  0.71000  0.19520  Biso   1.000  H
  H3       1.0000 0.69120  0.29000  0.80480  Biso   1.000  H
  H4       1.0000 0.30880  0.21000  0.30480  Biso   1.000  H
  H5       1.0000 0.80880  0.29000  0.69520  Biso   1.000  H
  H6       1.0000 0.19120  0.21000  0.19520  Biso   1.000  H
  H7       1.0000 0.19120  0.79000  0.80480  Biso   1.000  H
  H8       1.0000 0.80880  0.71000  0.30480  Biso   1.000  H
  H9       1.0000 0.69120  0.21000  0.30480  Biso   1.000  H
  H10      1.0000 0.30880  0.29000  0.80480  Biso   1.000  H
  H11      1.0000 0.30880  0.71000  0.19520  Biso   1.000  H
  H12      1.0000 0.69120  0.79000  0.69520  Biso   1.000  H
  H13      1.0000 0.19120  0.71000  0.30480  Biso   1.000  H
  H14      1.0000 0.80880  0.79000  0.80480  Biso   1.000  H
  H15      1.0000 0.80880  0.21000  0.19520  Biso   1.000  H
  H16      1.0000 0.19120  0.29000  0.69520  Biso   1.000  H
  H17      1.0000 0.28300  0.85810  0.65410  Biso   1.000  H
  H18      1.0000 0.71700  0.64190  0.15410  Biso   1.000  H
  H19      1.0000 0.71700  0.35810  0.84590  Biso   1.000  H
  H20      1.0000 0.28300  0.14190  0.34590  Biso   1.000  H
  H21      1.0000 0.78300  0.35810  0.65410  Biso   1.000  H
  H22      1.0000 0.21700  0.14190  0.15410  Biso   1.000  H
  H23      1.0000 0.21700  0.85810  0.84590  Biso   1.000  H
  H24      1.0000 0.78300  0.64190  0.34590  Biso   1.000  H
  H25      1.0000 0.71700  0.14190  0.34590  Biso   1.000  H
  H26      1.0000 0.28300  0.35810  0.84590  Biso   1.000  H
  H27      1.0000 0.28300  0.64190  0.15410  Biso   1.000  H
  H28      1.0000 0.71700  0.85810  0.65410  Biso   1.000  H
  H29      1.0000 0.21700  0.64190  0.34590  Biso   1.000  H
  H30      1.0000 0.78300  0.85810  0.84590  Biso   1.000  H
  H31      1.0000 0.78300  0.14190  0.15410  Biso   1.000  H
  H32      1.0000 0.21700  0.35810  0.65410  Biso   1.000  H
  H33      1.0000 0.26700  0.87740  0.71330  Biso   1.000  H
  H34      1.0000 0.73300  0.62260  0.21330  Biso   1.000  H
  H35      1.0000 0.73300  0.37740  0.78670  Biso   1.000  H
  H36      1.0000 0.26700  0.12260  0.28670  Biso   1.000  H
  H37      1.0000 0.76700  0.37740  0.71330  Biso   1.000  H
  H38      1.0000 0.23300  0.12260  0.21330  Biso   1.000  H
  H39      1.0000 0.23300  0.87740  0.78670  Biso   1.000  H
  H40      1.0000 0.76700  0.62260  0.28670  Biso   1.000  H
  H41      1.0000 0.73300  0.12260  0.28670  Biso   1.000  H
  H42      1.0000 0.26700  0.37740  0.78670  Biso   1.000  H
  H43      1.0000 0.26700  0.62260  0.21330  Biso   1.000  H
  H44      1.0000 0.73300  0.87740  0.71330  Biso   1.000  H
  H45      1.0000 0.23300  0.62260  0.28670  Biso   1.000  H
  H46      1.0000 0.76700  0.87740  0.78670  Biso   1.000  H
  H47      1.0000 0.76700  0.12260  0.21330  Biso   1.000  H
  H48      1.0000 0.23300  0.37740  0.71330  Biso   1.000  H
  C17      1.0000 0.50000  0.86610  0.69030  Biso   1.000  C
  C18      1.0000 0.50000  0.63390  0.19030  Biso   1.000  C
  C19      1.0000 0.50000  0.36610  0.80970  Biso   1.000  C
  C20      1.0000 0.50000  0.13390  0.30970  Biso   1.000  C
  C21      1.0000 0.00000  0.36610  0.69030  Biso   1.000  C
  C22      1.0000 0.00000  0.13390  0.19030  Biso   1.000  C
  C23      1.0000 0.00000  0.86610  0.80970  Biso   1.000  C
  C24      1.0000 0.00000  0.63390  0.30970  Biso   1.000  C
  H49      1.0000 0.46030  0.85700  0.72470  Biso   1.000  H
  H50      1.0000 0.53970  0.64300  0.22470  Biso   1.000  H
  H51      1.0000 0.53970  0.35700  0.77530  Biso   1.000  H
  H52      1.0000 0.46030  0.14300  0.27530  Biso   1.000  H
  H53      1.0000 0.96030  0.35700  0.72470  Biso   1.000  H
  H54      1.0000 0.03970  0.14300  0.22470  Biso   1.000  H
  H55      1.0000 0.03970  0.85700  0.77530  Biso   1.000  H
  H56      1.0000 0.96030  0.64300  0.27530  Biso   1.000  H
  H57      1.0000 0.53970  0.14300  0.27530  Biso   1.000  H
  H58      1.0000 0.46030  0.35700  0.77530  Biso   1.000  H
  H59      1.0000 0.46030  0.64300  0.22470  Biso   1.000  H
  H60      1.0000 0.53970  0.85700  0.72470  Biso   1.000  H
  H61      1.0000 0.03970  0.64300  0.27530  Biso   1.000  H
  H62      1.0000 0.96030  0.85700  0.77530  Biso   1.000  H
  H63      1.0000 0.96030  0.14300  0.22470  Biso   1.000  H
  H64      1.0000 0.03970  0.35700  0.72470  Biso   1.000  H
  C25      1.0000 0.50000  0.95920  0.67800  Biso   1.000  C
  C26      1.0000 0.50000  0.54080  0.17800  Biso   1.000  C
  C27      1.0000 0.50000  0.45920  0.82200  Biso   1.000  C
  C28      1.0000 0.50000  0.04080  0.32200  Biso   1.000  C
  C29      1.0000 0.00000  0.45920  0.67800  Biso   1.000  C
  C30      1.0000 0.00000  0.04080  0.17800  Biso   1.000  C
  C31      1.0000 0.00000  0.95920  0.82200  Biso   1.000  C
  C32      1.0000 0.00000  0.54080  0.32200  Biso   1.000  C
  C33      1.0000 0.50000  0.02460  0.71110  Biso   1.000  C
  C34      1.0000 0.50000  0.47540  0.21110  Biso   1.000  C
  C35      1.0000 0.50000  0.52460  0.78890  Biso   1.000  C
  C36      1.0000 0.50000  0.97540  0.28890  Biso   1.000  C
  C37      1.0000 0.00000  0.52460  0.71110  Biso   1.000  C
  C38      1.0000 0.00000  0.97540  0.21110  Biso   1.000  C
  C39      1.0000 0.00000  0.02460  0.78890  Biso   1.000  C
  C40      1.0000 0.00000  0.47540  0.28890  Biso   1.000  C
  C41      1.0000 0.50000  0.09020  0.67680  Biso   1.000  C
  C42      1.0000 0.50000  0.40980  0.17680  Biso   1.000  C
  C43      1.0000 0.50000  0.59020  0.82320  Biso   1.000  C
  C44      1.0000 0.50000  0.90980  0.32320  Biso   1.000  C
  C45      1.0000 0.00000  0.59020  0.67680  Biso   1.000  C
  C46      1.0000 0.00000  0.90980  0.17680  Biso   1.000  C
  C47      1.0000 0.00000  0.09020  0.82320  Biso   1.000  C
  C48      1.0000 0.00000  0.40980  0.32320  Biso   1.000  C
  C49      1.0000 0.50000  0.18240  0.68450  Biso   1.000  C
  C50      1.0000 0.50000  0.31760  0.18450  Biso   1.000  C
  C51      1.0000 0.50000  0.68240  0.81550  Biso   1.000  C
  C52      1.0000 0.50000  0.81760  0.31550  Biso   1.000  C
  C53      1.0000 0.00000  0.68240  0.68450  Biso   1.000  C
  C54      1.0000 0.00000  0.81760  0.18450  Biso   1.000  C
  C55      1.0000 0.00000  0.18240  0.81550  Biso   1.000  C
  C56      1.0000 0.00000  0.31760  0.31550  Biso   1.000  C
  H65      1.0000 0.53600  0.19580  0.71880  Biso   1.000  H
  H66      1.0000 0.46400  0.30420  0.21880  Biso   1.000  H
  H67      1.0000 0.46400  0.69580  0.78120  Biso   1.000  H
  H68      1.0000 0.53600  0.80420  0.28120  Biso   1.000  H
  H69      1.0000 0.03600  0.69580  0.71880  Biso   1.000  H
  H70      1.0000 0.96400  0.80420  0.21880  Biso   1.000  H
  H71      1.0000 0.96400  0.19580  0.78120  Biso   1.000  H
  H72      1.0000 0.03600  0.30420  0.28120  Biso   1.000  H
  H73      1.0000 0.46400  0.80420  0.28120  Biso   1.000  H
  H74      1.0000 0.53600  0.69580  0.78120  Biso   1.000  H
  H75      1.0000 0.53600  0.30420  0.21880  Biso   1.000  H
  H76      1.0000 0.46400  0.19580  0.71880  Biso   1.000  H
  H77      1.0000 0.96400  0.30420  0.28120  Biso   1.000  H
  H78      1.0000 0.03600  0.19580  0.78120  Biso   1.000  H
  H79      1.0000 0.03600  0.80420  0.21880  Biso   1.000  H
  H80      1.0000 0.96400  0.69580  0.71880  Biso   1.000  H
  C57      1.0000 0.67300  0.20700  0.67810  Biso   1.000  C
  C58      1.0000 0.32700  0.29300  0.17810  Biso   1.000  C
  C59      1.0000 0.32700  0.70700  0.82190  Biso   1.000  C
  C60      1.0000 0.67300  0.79300  0.32190  Biso   1.000  C
  C61      1.0000 0.17300  0.70700  0.67810  Biso   1.000  C
  C62      1.0000 0.82700  0.79300  0.17810  Biso   1.000  C
  C63      1.0000 0.82700  0.20700  0.82190  Biso   1.000  C
  C64      1.0000 0.17300  0.29300  0.32190  Biso   1.000  C
  C65      1.0000 0.32700  0.79300  0.32190  Biso   1.000  C
  C66      1.0000 0.67300  0.70700  0.82190  Biso   1.000  C
  C67      1.0000 0.67300  0.29300  0.17810  Biso   1.000  C
  C68      1.0000 0.32700  0.20700  0.67810  Biso   1.000  C
  C69      1.0000 0.82700  0.29300  0.32190  Biso   1.000  C
  C70      1.0000 0.17300  0.20700  0.82190  Biso   1.000  C
  C71      1.0000 0.17300  0.79300  0.17810  Biso   1.000  C
  C72      1.0000 0.82700  0.70700  0.67810  Biso   1.000  C
  H81      1.0000 0.68300  0.26370  0.68310  Biso   1.000  H
  H82      1.0000 0.31700  0.23630  0.18310  Biso   1.000  H
  H83      1.0000 0.31700  0.76370  0.81690  Biso   1.000  H
  H84      1.0000 0.68300  0.73630  0.31690  Biso   1.000  H
  H85      1.0000 0.18300  0.76370  0.68310  Biso   1.000  H
  H86      1.0000 0.81700  0.73630  0.18310  Biso   1.000  H
  H87      1.0000 0.81700  0.26370  0.81690  Biso   1.000  H
  H88      1.0000 0.18300  0.23630  0.31690  Biso   1.000  H
  H89      1.0000 0.31700  0.73630  0.31690  Biso   1.000  H
  H90      1.0000 0.68300  0.76370  0.81690  Biso   1.000  H
  H91      1.0000 0.68300  0.23630  0.18310  Biso   1.000  H
  H92      1.0000 0.31700  0.26370  0.68310  Biso   1.000  H
  H93      1.0000 0.81700  0.23630  0.31690  Biso   1.000  H
  H94      1.0000 0.18300  0.26370  0.81690  Biso   1.000  H
  H95      1.0000 0.18300  0.73630  0.18310  Biso   1.000  H
  H96      1.0000 0.81700  0.76370  0.68310  Biso   1.000  H
  H97      1.0000 0.70870  0.19310  0.64380  Biso   1.000  H
  H98      1.0000 0.29130  0.30690  0.14380  Biso   1.000  H
  H99      1.0000 0.29130  0.69310  0.85620  Biso   1.000  H
  H100     1.0000 0.70870  0.80690  0.35620  Biso   1.000  H
  H101     1.0000 0.20870  0.69310  0.64380  Biso   1.000  H
  H102     1.0000 0.79130  0.80690  0.14380  Biso   1.000  H
  H103     1.0000 0.79130  0.19310  0.85620  Biso   1.000  H
  H104     1.0000 0.20870  0.30690  0.35620  Biso   1.000  H
  H105     1.0000 0.29130  0.80690  0.35620  Biso   1.000  H
  H106     1.0000 0.70870  0.69310  0.85620  Biso   1.000  H
  H107     1.0000 0.70870  0.30690  0.14380  Biso   1.000  H
  H108     1.0000 0.29130  0.19310  0.64380  Biso   1.000  H
  H109     1.0000 0.79130  0.30690  0.35620  Biso   1.000  H
  H110     1.0000 0.20870  0.19310  0.85620  Biso   1.000  H
  H111     1.0000 0.20870  0.80690  0.14380  Biso   1.000  H
  H112     1.0000 0.79130  0.69310  0.64380  Biso   1.000  H
  H113     1.0000 0.73770  0.17920  0.70320  Biso   1.000  H
  H114     1.0000 0.26230  0.32080  0.20320  Biso   1.000  H
  H115     1.0000 0.26230  0.67920  0.79680  Biso   1.000  H
  H116     1.0000 0.73770  0.82080  0.29680  Biso   1.000  H
  H117     1.0000 0.23770  0.67920  0.70320  Biso   1.000  H
  H118     1.0000 0.76230  0.82080  0.20320  Biso   1.000  H
  H119     1.0000 0.76230  0.17920  0.79680  Biso   1.000  H
  H120     1.0000 0.23770  0.32080  0.29680  Biso   1.000  H
  H121     1.0000 0.26230  0.82080  0.29680  Biso   1.000  H
  H122     1.0000 0.73770  0.67920  0.79680  Biso   1.000  H
  H123     1.0000 0.73770  0.32080  0.20320  Biso   1.000  H
  H124     1.0000 0.26230  0.17920  0.70320  Biso   1.000  H
  H125     1.0000 0.76230  0.32080  0.29680  Biso   1.000  H
  H126     1.0000 0.23770  0.17920  0.79680  Biso   1.000  H
  H127     1.0000 0.23770  0.82080  0.20320  Biso   1.000  H
  H128     1.0000 0.76230  0.67920  0.70320  Biso   1.000  H
  C73      1.0000 0.50000  0.02910  0.76770  Biso   1.000  C
  C74      1.0000 0.50000  0.47090  0.26770  Biso   1.000  C
  C75      1.0000 0.50000  0.52910  0.73230  Biso   1.000  C
  C76      1.0000 0.50000  0.97090  0.23230  Biso   1.000  C
  C77      1.0000 0.00000  0.52910  0.76770  Biso   1.000  C
  C78      1.0000 0.00000  0.97090  0.26770  Biso   1.000  C
  C79      1.0000 0.00000  0.02910  0.73230  Biso   1.000  C
  C80      1.0000 0.00000  0.47090  0.23230  Biso   1.000  C
  C81      1.0000 0.40500  0.98290  0.79800  Biso   1.000  C
  C82      1.0000 0.59500  0.51710  0.29800  Biso   1.000  C
  C83      1.0000 0.59500  0.48290  0.70200  Biso   1.000  C
  C84      1.0000 0.40500  0.01710  0.20200  Biso   1.000  C
  C85      1.0000 0.90500  0.48290  0.79800  Biso   1.000  C
  C86      1.0000 0.09500  0.01710  0.29800  Biso   1.000  C
  C87      1.0000 0.09500  0.98290  0.70200  Biso   1.000  C
  C88      1.0000 0.90500  0.51710  0.20200  Biso   1.000  C
  C89      1.0000 0.59500  0.01710  0.20200  Biso   1.000  C
  C90      1.0000 0.40500  0.48290  0.70200  Biso   1.000  C
  C91      1.0000 0.40500  0.51710  0.29800  Biso   1.000  C
  C92      1.0000 0.59500  0.98290  0.79800  Biso   1.000  C
  C93      1.0000 0.09500  0.51710  0.20200  Biso   1.000  C
  C94      1.0000 0.90500  0.98290  0.70200  Biso   1.000  C
  C95      1.0000 0.90500  0.01710  0.29800  Biso   1.000  C
  C96      1.0000 0.09500  0.48290  0.79800  Biso   1.000  C
  H129     1.0000 0.33990  0.94190  0.78230  Biso   1.000  H
  H130     1.0000 0.66010  0.55810  0.28230  Biso   1.000  H
  H131     1.0000 0.66010  0.44190  0.71770  Biso   1.000  H
  H132     1.0000 0.33990  0.05810  0.21770  Biso   1.000  H
  H133     1.0000 0.83990  0.44190  0.78230  Biso   1.000  H
  H134     1.0000 0.16010  0.05810  0.28230  Biso   1.000  H
  H135     1.0000 0.16010  0.94190  0.71770  Biso   1.000  H
  H136     1.0000 0.83990  0.55810  0.21770  Biso   1.000  H
  H137     1.0000 0.66010  0.05810  0.21770  Biso   1.000  H
  H138     1.0000 0.33990  0.44190  0.71770  Biso   1.000  H
  H139     1.0000 0.33990  0.55810  0.28230  Biso   1.000  H
  H140     1.0000 0.66010  0.94190  0.78230  Biso   1.000  H
  H141     1.0000 0.16010  0.55810  0.21770  Biso   1.000  H
  H142     1.0000 0.83990  0.94190  0.71770  Biso   1.000  H
  H143     1.0000 0.83990  0.05810  0.28230  Biso   1.000  H
  H144     1.0000 0.16010  0.44190  0.78230  Biso   1.000  H
  C97      1.0000 0.39900  0.99200  0.85110  Biso   1.000  C
  C98      1.0000 0.60100  0.50800  0.35110  Biso   1.000  C
  C99      1.0000 0.60100  0.49200  0.64890  Biso   1.000  C
  C100     1.0000 0.39900  0.00800  0.14890  Biso   1.000  C
  C101     1.0000 0.89900  0.49200  0.85110  Biso   1.000  C
  C102     1.0000 0.10100  0.00800  0.35110  Biso   1.000  C
  C103     1.0000 0.10100  0.99200  0.64890  Biso   1.000  C
  C104     1.0000 0.89900  0.50800  0.14890  Biso   1.000  C
  C105     1.0000 0.60100  0.00800  0.14890  Biso   1.000  C
  C106     1.0000 0.39900  0.49200  0.64890  Biso   1.000  C
  C107     1.0000 0.39900  0.50800  0.35110  Biso   1.000  C
  C108     1.0000 0.60100  0.99200  0.85110  Biso   1.000  C
  C109     1.0000 0.10100  0.50800  0.14890  Biso   1.000  C
  C110     1.0000 0.89900  0.99200  0.64890  Biso   1.000  C
  C111     1.0000 0.89900  0.00800  0.35110  Biso   1.000  C
  C112     1.0000 0.10100  0.49200  0.85110  Biso   1.000  C
  H145     1.0000 0.32290  0.96150  0.87080  Biso   1.000  H
  H146     1.0000 0.67710  0.53850  0.37080  Biso   1.000  H
  H147     1.0000 0.67710  0.46150  0.62920  Biso   1.000  H
  H148     1.0000 0.32290  0.03850  0.12920  Biso   1.000  H
  H149     1.0000 0.82290  0.46150  0.87080  Biso   1.000  H
  H150     1.0000 0.17710  0.03850  0.37080  Biso   1.000  H
  H151     1.0000 0.17710  0.96150  0.62920  Biso   1.000  H
  H152     1.0000 0.82290  0.53850  0.12920  Biso   1.000  H
  H153     1.0000 0.67710  0.03850  0.12920  Biso   1.000  H
  H154     1.0000 0.32290  0.46150  0.62920  Biso   1.000  H
  H155     1.0000 0.32290  0.53850  0.37080  Biso   1.000  H
  H156     1.0000 0.67710  0.96150  0.87080  Biso   1.000  H
  H157     1.0000 0.17710  0.53850  0.12920  Biso   1.000  H
  H158     1.0000 0.82290  0.96150  0.62920  Biso   1.000  H
  H159     1.0000 0.82290  0.03850  0.37080  Biso   1.000  H
  H160     1.0000 0.17710  0.46150  0.87080  Biso   1.000  H
  C113     1.0000 0.40400  0.08580  0.84830  Biso   1.000  C
  C114     1.0000 0.59600  0.41420  0.34830  Biso   1.000  C
  C115     1.0000 0.59600  0.58580  0.65170  Biso   1.000  C
  C116     1.0000 0.40400  0.91420  0.15170  Biso   1.000  C
  C117     1.0000 0.90400  0.58580  0.84830  Biso   1.000  C
  C118     1.0000 0.09600  0.91420  0.34830  Biso   1.000  C
  C119     1.0000 0.09600  0.08580  0.65170  Biso   1.000  C
  C120     1.0000 0.90400  0.41420  0.15170  Biso   1.000  C
  C121     1.0000 0.59600  0.91420  0.15170  Biso   1.000  C
  C122     1.0000 0.40400  0.58580  0.65170  Biso   1.000  C
  C123     1.0000 0.40400  0.41420  0.34830  Biso   1.000  C
  C124     1.0000 0.59600  0.08580  0.84830  Biso   1.000  C
  C125     1.0000 0.09600  0.41420  0.15170  Biso   1.000  C
  C126     1.0000 0.90400  0.08580  0.65170  Biso   1.000  C
  C127     1.0000 0.90400  0.91420  0.34830  Biso   1.000  C
  C128     1.0000 0.09600  0.58580  0.84830  Biso   1.000  C
  H161     1.0000 0.66790  0.12140  0.86610  Biso   1.000  H
  H162     1.0000 0.33210  0.37860  0.36610  Biso   1.000  H
  H163     1.0000 0.33210  0.62140  0.63390  Biso   1.000  H
  H164     1.0000 0.66790  0.87860  0.13390  Biso   1.000  H
  H165     1.0000 0.16790  0.62140  0.86610  Biso   1.000  H
  H166     1.0000 0.83210  0.87860  0.36610  Biso   1.000  H
  H167     1.0000 0.83210  0.12140  0.63390  Biso   1.000  H
  H168     1.0000 0.16790  0.37860  0.13390  Biso   1.000  H
  H169     1.0000 0.33210  0.87860  0.13390  Biso   1.000  H
  H170     1.0000 0.66790  0.62140  0.63390  Biso   1.000  H
  H171     1.0000 0.66790  0.37860  0.36610  Biso   1.000  H
  H172     1.0000 0.33210  0.12140  0.86610  Biso   1.000  H
  H173     1.0000 0.83210  0.37860  0.13390  Biso   1.000  H
  H174     1.0000 0.16790  0.12140  0.63390  Biso   1.000  H
  H175     1.0000 0.16790  0.87860  0.36610  Biso   1.000  H
  H176     1.0000 0.83210  0.62140  0.86610  Biso   1.000  H
  C129     1.0000 0.60800  0.08200  0.79470  Biso   1.000  C
  C130     1.0000 0.39200  0.41800  0.29470  Biso   1.000  C
  C131     1.0000 0.39200  0.58200  0.70530  Biso   1.000  C
  C132     1.0000 0.60800  0.91800  0.20530  Biso   1.000  C
  C133     1.0000 0.10800  0.58200  0.79470  Biso   1.000  C
  C134     1.0000 0.89200  0.91800  0.29470  Biso   1.000  C
  C135     1.0000 0.89200  0.08200  0.70530  Biso   1.000  C
  C136     1.0000 0.10800  0.41800  0.20530  Biso   1.000  C
  C137     1.0000 0.39200  0.91800  0.20530  Biso   1.000  C
  C138     1.0000 0.60800  0.58200  0.70530  Biso   1.000  C
  C139     1.0000 0.60800  0.41800  0.29470  Biso   1.000  C
  C140     1.0000 0.39200  0.08200  0.79470  Biso   1.000  C
  C141     1.0000 0.89200  0.41800  0.20530  Biso   1.000  C
  C142     1.0000 0.10800  0.08200  0.70530  Biso   1.000  C
  C143     1.0000 0.10800  0.91800  0.29470  Biso   1.000  C
  C144     1.0000 0.89200  0.58200  0.79470  Biso   1.000  C
  H177     1.0000 0.68650  0.11290  0.77630  Biso   1.000  H
  H178     1.0000 0.31350  0.38710  0.27630  Biso   1.000  H
  H179     1.0000 0.31350  0.61290  0.72370  Biso   1.000  H
  H180     1.0000 0.68650  0.88710  0.22370  Biso   1.000  H
  H181     1.0000 0.18650  0.61290  0.77630  Biso   1.000  H
  H182     1.0000 0.81350  0.88710  0.27630  Biso   1.000  H
  H183     1.0000 0.81350  0.11290  0.72370  Biso   1.000  H
  H184     1.0000 0.18650  0.38710  0.22370  Biso   1.000  H
  H185     1.0000 0.31350  0.88710  0.22370  Biso   1.000  H
  H186     1.0000 0.68650  0.61290  0.72370  Biso   1.000  H
  H187     1.0000 0.68650  0.38710  0.27630  Biso   1.000  H
  H188     1.0000 0.31350  0.11290  0.77630  Biso   1.000  H
  H189     1.0000 0.81350  0.38710  0.22370  Biso   1.000  H
  H190     1.0000 0.18650  0.11290  0.72370  Biso   1.000  H
  H191     1.0000 0.18650  0.88710  0.27630  Biso   1.000  H
  H192     1.0000 0.81350  0.61290  0.77630  Biso   1.000  H
  C145     1.0000 0.50000  0.66750  0.43410  Biso   1.000  C
  C146     1.0000 0.50000  0.83250  0.93410  Biso   1.000  C
  C147     1.0000 0.50000  0.16750  0.06590  Biso   1.000  C
  C148     1.0000 0.50000  0.33250  0.56590  Biso   1.000  C
  C149     1.0000 0.00000  0.16750  0.43410  Biso   1.000  C
  C150     1.0000 0.00000  0.33250  0.93410  Biso   1.000  C
  C151     1.0000 0.00000  0.66750  0.06590  Biso   1.000  C
  C152     1.0000 0.00000  0.83250  0.56590  Biso   1.000  C
  H193     1.0000 0.50000  0.61250  0.44530  Biso   1.000  H
  H194     1.0000 0.50000  0.88750  0.94530  Biso   1.000  H
  H195     1.0000 0.50000  0.11250  0.05470  Biso   1.000  H
  H196     1.0000 0.50000  0.38750  0.55470  Biso   1.000  H
  H197     1.0000 0.00000  0.11250  0.44530  Biso   1.000  H
  H198     1.0000 0.00000  0.38750  0.94530  Biso   1.000  H
  H199     1.0000 0.00000  0.61250  0.05470  Biso   1.000  H
  H200     1.0000 0.00000  0.88750  0.55470  Biso   1.000  H
  H201     1.0000 0.40600  0.67780  0.41370  Biso   1.000  H
  H202     1.0000 0.59400  0.82220  0.91370  Biso   1.000  H
  H203     1.0000 0.59400  0.17780  0.08630  Biso   1.000  H
  H204     1.0000 0.40600  0.32220  0.58630  Biso   1.000  H
  H205     1.0000 0.90600  0.17780  0.41370  Biso   1.000  H
  H206     1.0000 0.09400  0.32220  0.91370  Biso   1.000  H
  H207     1.0000 0.09400  0.67780  0.08630  Biso   1.000  H
  H208     1.0000 0.90600  0.82220  0.58630  Biso   1.000  H
  H209     1.0000 0.59400  0.32220  0.58630  Biso   1.000  H
  H210     1.0000 0.40600  0.17780  0.08630  Biso   1.000  H
  H211     1.0000 0.40600  0.82220  0.91370  Biso   1.000  H
  H212     1.0000 0.59400  0.67780  0.41370  Biso   1.000  H
  H213     1.0000 0.09400  0.82220  0.58630  Biso   1.000  H
  H214     1.0000 0.90600  0.67780  0.08630  Biso   1.000  H
  H215     1.0000 0.90600  0.32220  0.91370  Biso   1.000  H
  H216     1.0000 0.09400  0.17780  0.41370  Biso   1.000  H
  C153     1.0000 0.50000  0.71990  0.48100  Biso   1.000  C
  C154     1.0000 0.50000  0.78010  0.98100  Biso   1.000  C
  C155     1.0000 0.50000  0.21990  0.01900  Biso   1.000  C
  C156     1.0000 0.50000  0.28010  0.51900  Biso   1.000  C
  C157     1.0000 0.00000  0.21990  0.48100  Biso   1.000  C
  C158     1.0000 0.00000  0.28010  0.98100  Biso   1.000  C
  C159     1.0000 0.00000  0.71990  0.01900  Biso   1.000  C
  C160     1.0000 0.00000  0.78010  0.51900  Biso   1.000  C
