data_image0
_cell_length_a       16.062
_cell_length_b       15.231
_cell_length_c       9.2881
_cell_angle_alpha    90
_cell_angle_beta     115.258
_cell_angle_gamma    90

_symmetry_space_group_name_H-M    "P 1"
_symmetry_int_tables_number       1

loop_
  _symmetry_equiv_pos_as_xyz
  'x, y, z'

loop_
  _atom_site_label
  _atom_site_occupancy
  _atom_site_fract_x
  _atom_site_fract_y
  _atom_site_fract_z
  _atom_site_thermal_displace_type
  _atom_site_B_iso_or_equiv
  _atom_site_type_symbol
  C1       1.0000 0.06290  0.15090  0.06810  Biso   1.000  C
  C2       1.0000 0.93710  0.15090  0.43190  Biso   1.000  C
  C3       1.0000 0.56290  0.65090  0.06810  Biso   1.000  C
  C4       1.0000 0.43710  0.65090  0.43190  Biso   1.000  C
  C5       1.0000 0.93710  0.84910  0.93190  Biso   1.000  C
  C6       1.0000 0.06290  0.84910  0.56810  Biso   1.000  C
  C7       1.0000 0.43710  0.34910  0.93190  Biso   1.000  C
  C8       1.0000 0.56290  0.34910  0.56810  Biso   1.000  C
  C9       1.0000 0.08490  0.23820  0.15130  Biso   1.000  C
  C10      1.0000 0.91510  0.23820  0.34870  Biso   1.000  C
  C11      1.0000 0.58490  0.73820  0.15130  Biso   1.000  C
  C12      1.0000 0.41510  0.73820  0.34870  Biso   1.000  C
  C13      1.0000 0.91510  0.76180  0.84870  Biso   1.000  C
  C14      1.0000 0.08490  0.76180  0.65130  Biso   1.000  C
  C15      1.0000 0.41510  0.26180  0.84870  Biso   1.000  C
  C16      1.0000 0.58490  0.26180  0.65130  Biso   1.000  C
  C17      1.0000 0.07820  0.31330  0.06180  Biso   1.000  C
  C18      1.0000 0.92180  0.31330  0.43820  Biso   1.000  C
  C19      1.0000 0.57820  0.81330  0.06180  Biso   1.000  C
  C20      1.0000 0.42180  0.81330  0.43820  Biso   1.000  C
  C21      1.0000 0.92180  0.68670  0.93820  Biso   1.000  C
  C22      1.0000 0.07820  0.68670  0.56180  Biso   1.000  C
  C23      1.0000 0.42180  0.18670  0.93820  Biso   1.000  C
  C24      1.0000 0.57820  0.18670  0.56180  Biso   1.000  C
  H1       1.0000 0.06050  0.30880  0.95270  Biso   1.000  H
  H2       1.0000 0.93950  0.30880  0.54730  Biso   1.000  H
  H3       1.0000 0.56050  0.80880  0.95270  Biso   1.000  H
  H4       1.0000 0.43950  0.80880  0.54730  Biso   1.000  H
  H5       1.0000 0.93950  0.69120  0.04730  Biso   1.000  H
  H6       1.0000 0.06050  0.69120  0.45270  Biso   1.000  H
  H7       1.0000 0.43950  0.19120  0.04730  Biso   1.000  H
  H8       1.0000 0.56050  0.19120  0.45270  Biso   1.000  H
  C25      1.0000 0.09810  0.39480  0.13480  Biso   1.000  C
  C26      1.0000 0.90190  0.39480  0.36520  Biso   1.000  C
  C27      1.0000 0.59810  0.89480  0.13480  Biso   1.000  C
  C28      1.0000 0.40190  0.89480  0.36520  Biso   1.000  C
  C29      1.0000 0.90190  0.60520  0.86520  Biso   1.000  C
  C30      1.0000 0.09810  0.60520  0.63480  Biso   1.000  C
  C31      1.0000 0.40190  0.10520  0.86520  Biso   1.000  C
  C32      1.0000 0.59810  0.10520  0.63480  Biso   1.000  C
  H9       1.0000 0.09210  0.44510  0.07440  Biso   1.000  H
  H10      1.0000 0.90790  0.44510  0.42560  Biso   1.000  H
  H11      1.0000 0.59210  0.94510  0.07440  Biso   1.000  H
  H12      1.0000 0.40790  0.94510  0.42560  Biso   1.000  H
  H13      1.0000 0.90790  0.55490  0.92560  Biso   1.000  H
  H14      1.0000 0.09210  0.55490  0.57440  Biso   1.000  H
  H15      1.0000 0.40790  0.05490  0.92560  Biso   1.000  H
  H16      1.0000 0.59210  0.05490  0.57440  Biso   1.000  H
  C33      1.0000 0.12670  0.40140  0.29730  Biso   1.000  C
  C34      1.0000 0.87330  0.40140  0.20270  Biso   1.000  C
  C35      1.0000 0.62670  0.90140  0.29730  Biso   1.000  C
  C36      1.0000 0.37330  0.90140  0.20270  Biso   1.000  C
  C37      1.0000 0.87330  0.59860  0.70270  Biso   1.000  C
  C38      1.0000 0.12670  0.59860  0.79730  Biso   1.000  C
  C39      1.0000 0.37330  0.09860  0.70270  Biso   1.000  C
  C40      1.0000 0.62670  0.09860  0.79730  Biso   1.000  C
  H17      1.0000 0.14030  0.45630  0.34590  Biso   1.000  H
  H18      1.0000 0.85970  0.45630  0.15410  Biso   1.000  H
  H19      1.0000 0.64030  0.95630  0.34590  Biso   1.000  H
  H20      1.0000 0.35970  0.95630  0.15410  Biso   1.000  H
  H21      1.0000 0.85970  0.54370  0.65410  Biso   1.000  H
  H22      1.0000 0.14030  0.54370  0.84590  Biso   1.000  H
  H23      1.0000 0.35970  0.04370  0.65410  Biso   1.000  H
  H24      1.0000 0.64030  0.04370  0.84590  Biso   1.000  H
  C41      1.0000 0.13550  0.32670  0.38890  Biso   1.000  C
  C42      1.0000 0.86450  0.32670  0.11110  Biso   1.000  C
  C43      1.0000 0.63550  0.82670  0.38890  Biso   1.000  C
  C44      1.0000 0.36450  0.82670  0.11110  Biso   1.000  C
  C45      1.0000 0.86450  0.67330  0.61110  Biso   1.000  C
  C46      1.0000 0.13550  0.67330  0.88890  Biso   1.000  C
  C47      1.0000 0.36450  0.17330  0.61110  Biso   1.000  C
  C48      1.0000 0.63550  0.17330  0.88890  Biso   1.000  C
  C49      1.0000 0.16970  0.33570  0.56280  Biso   1.000  C
  C50      1.0000 0.83030  0.33570  0.93720  Biso   1.000  C
  C51      1.0000 0.66970  0.83570  0.56280  Biso   1.000  C
  C52      1.0000 0.33030  0.83570  0.93720  Biso   1.000  C
  C53      1.0000 0.83030  0.66430  0.43720  Biso   1.000  C
  C54      1.0000 0.16970  0.66430  0.06280  Biso   1.000  C
  C55      1.0000 0.33030  0.16430  0.43720  Biso   1.000  C
  C56      1.0000 0.66970  0.16430  0.06280  Biso   1.000  C
  C57      1.0000 0.11300  0.24540  0.31460  Biso   1.000  C
  C58      1.0000 0.88700  0.24540  0.18540  Biso   1.000  C
  C59      1.0000 0.61300  0.74540  0.31460  Biso   1.000  C
  C60      1.0000 0.38700  0.74540  0.18540  Biso   1.000  C
  C61      1.0000 0.88700  0.75460  0.68540  Biso   1.000  C
  C62      1.0000 0.11300  0.75460  0.81460  Biso   1.000  C
  C63      1.0000 0.38700  0.25460  0.68540  Biso   1.000  C
  C64      1.0000 0.61300  0.25460  0.81460  Biso   1.000  C
  H25      1.0000 0.11680  0.19530  0.37450  Biso   1.000  H
  H26      1.0000 0.88320  0.19530  0.12550  Biso   1.000  H
  H27      1.0000 0.61680  0.69530  0.37450  Biso   1.000  H
  H28      1.0000 0.38320  0.69530  0.12550  Biso   1.000  H
  H29      1.0000 0.88320  0.80470  0.62550  Biso   1.000  H
  H30      1.0000 0.11680  0.80470  0.87450  Biso   1.000  H
  H31      1.0000 0.38320  0.30470  0.62550  Biso   1.000  H
  H32      1.0000 0.61680  0.30470  0.87450  Biso   1.000  H
  Cu1      1.0000 0.25000  0.25000  0.00000  Biso   1.000  Cu
  Cu2      1.0000 0.75000  0.25000  0.50000  Biso   1.000  Cu
  Cu3      1.0000 0.75000  0.75000  0.00000  Biso   1.000  Cu
  Cu4      1.0000 0.25000  0.75000  0.50000  Biso   1.000  Cu
  H33      1.0000 0.81700  0.97500  0.97800  Biso   1.000  H
  H34      1.0000 0.18300  0.97500  0.52200  Biso   1.000  H
  H35      1.0000 0.31700  0.47500  0.97800  Biso   1.000  H
  H36      1.0000 0.68300  0.47500  0.52200  Biso   1.000  H
  H37      1.0000 0.18300  0.02500  0.02200  Biso   1.000  H
  H38      1.0000 0.81700  0.02500  0.47800  Biso   1.000  H
  H39      1.0000 0.68300  0.52500  0.02200  Biso   1.000  H
  H40      1.0000 0.31700  0.52500  0.47800  Biso   1.000  H
  H41      1.0000 0.14000  0.93100  0.13600  Biso   1.000  H
  H42      1.0000 0.86000  0.93100  0.36400  Biso   1.000  H
  H43      1.0000 0.64000  0.43100  0.13600  Biso   1.000  H
  H44      1.0000 0.36000  0.43100  0.36400  Biso   1.000  H
  H45      1.0000 0.86000  0.06900  0.86400  Biso   1.000  H
  H46      1.0000 0.14000  0.06900  0.63600  Biso   1.000  H
  H47      1.0000 0.36000  0.56900  0.86400  Biso   1.000  H
  H48      1.0000 0.64000  0.56900  0.63600  Biso   1.000  H
  H49      1.0000 0.81200  0.03300  0.08300  Biso   1.000  H
  H50      1.0000 0.18800  0.03300  0.41700  Biso   1.000  H
  H51      1.0000 0.31200  0.53300  0.08300  Biso   1.000  H
  H52      1.0000 0.68800  0.53300  0.41700  Biso   1.000  H
  H53      1.0000 0.18800  0.96700  0.91700  Biso   1.000  H
  H54      1.0000 0.81200  0.96700  0.58300  Biso   1.000  H
  H55      1.0000 0.68800  0.46700  0.91700  Biso   1.000  H
  H56      1.0000 0.31200  0.46700  0.58300  Biso   1.000  H
  H57      1.0000 0.13700  0.85130  0.19900  Biso   1.000  H
  H58      1.0000 0.86300  0.85130  0.30100  Biso   1.000  H
  H59      1.0000 0.63700  0.35130  0.19900  Biso   1.000  H
  H60      1.0000 0.36300  0.35130  0.30100  Biso   1.000  H
  H61      1.0000 0.86300  0.14870  0.80100  Biso   1.000  H
  H62      1.0000 0.13700  0.14870  0.69900  Biso   1.000  H
  H63      1.0000 0.36300  0.64870  0.80100  Biso   1.000  H
  H64      1.0000 0.63700  0.64870  0.69900  Biso   1.000  H
  N1       1.0000 0.16480  0.27450  0.66140  Biso   1.000  N
  N2       1.0000 0.83520  0.27450  0.83860  Biso   1.000  N
  N3       1.0000 0.66480  0.77450  0.66140  Biso   1.000  N
  N4       1.0000 0.33520  0.77450  0.83860  Biso   1.000  N
  N5       1.0000 0.83520  0.72550  0.33860  Biso   1.000  N
  N6       1.0000 0.16480  0.72550  0.16140  Biso   1.000  N
  N7       1.0000 0.33520  0.22550  0.33860  Biso   1.000  N
  N8       1.0000 0.66480  0.22550  0.16140  Biso   1.000  N
  N9       1.0000 0.20760  0.31060  0.80690  Biso   1.000  N
  N10      1.0000 0.79240  0.31060  0.69310  Biso   1.000  N
  N11      1.0000 0.70760  0.81060  0.80690  Biso   1.000  N
  N12      1.0000 0.29240  0.81060  0.69310  Biso   1.000  N
  N13      1.0000 0.79240  0.68940  0.19310  Biso   1.000  N
  N14      1.0000 0.20760  0.68940  0.30690  Biso   1.000  N
  N15      1.0000 0.29240  0.18940  0.19310  Biso   1.000  N
  N16      1.0000 0.70760  0.18940  0.30690  Biso   1.000  N
  N17      1.0000 0.23710  0.39030  0.79570  Biso   1.000  N
  N18      1.0000 0.76290  0.39030  0.70430  Biso   1.000  N
  N19      1.0000 0.73710  0.89030  0.79570  Biso   1.000  N
  N20      1.0000 0.26290  0.89030  0.70430  Biso   1.000  N
  N21      1.0000 0.76290  0.60970  0.20430  Biso   1.000  N
  N22      1.0000 0.23710  0.60970  0.29570  Biso   1.000  N
  N23      1.0000 0.26290  0.10970  0.20430  Biso   1.000  N
  N24      1.0000 0.73710  0.10970  0.29570  Biso   1.000  N
  N25      1.0000 0.21420  0.40740  0.64260  Biso   1.000  N
  N26      1.0000 0.78580  0.40740  0.85740  Biso   1.000  N
  N27      1.0000 0.71420  0.90740  0.64260  Biso   1.000  N
  N28      1.0000 0.28580  0.90740  0.85740  Biso   1.000  N
  N29      1.0000 0.78580  0.59260  0.35740  Biso   1.000  N
  N30      1.0000 0.21420  0.59260  0.14260  Biso   1.000  N
  N31      1.0000 0.28580  0.09260  0.35740  Biso   1.000  N
  N32      1.0000 0.71420  0.09260  0.14260  Biso   1.000  N
  O1       1.0000 0.04650  0.08570  0.13450  Biso   1.000  O
  O2       1.0000 0.95350  0.08570  0.36550  Biso   1.000  O
  O3       1.0000 0.54650  0.58570  0.13450  Biso   1.000  O
  O4       1.0000 0.45350  0.58570  0.36550  Biso   1.000  O
  O5       1.0000 0.95350  0.91430  0.86550  Biso   1.000  O
  O6       1.0000 0.04650  0.91430  0.63450  Biso   1.000  O
  O7       1.0000 0.45350  0.41430  0.86550  Biso   1.000  O
  O8       1.0000 0.54650  0.41430  0.63450  Biso   1.000  O
  O9       1.0000 0.06180  0.14850  0.93190  Biso   1.000  O
  O10      1.0000 0.93820  0.14850  0.56810  Biso   1.000  O
  O11      1.0000 0.56180  0.64850  0.93190  Biso   1.000  O
  O12      1.0000 0.43820  0.64850  0.56810  Biso   1.000  O
  O13      1.0000 0.93820  0.85150  0.06810  Biso   1.000  O
  O14      1.0000 0.06180  0.85150  0.43190  Biso   1.000  O
  O15      1.0000 0.43820  0.35150  0.06810  Biso   1.000  O
  O16      1.0000 0.56180  0.35150  0.43190  Biso   1.000  O
  O17      1.0000 0.84300  0.01460  0.03880  Biso   1.000  O
  O18      1.0000 0.15700  0.01460  0.46120  Biso   1.000  O
  O19      1.0000 0.34300  0.51460  0.03880  Biso   1.000  O
  O20      1.0000 0.65700  0.51460  0.46120  Biso   1.000  O
  O21      1.0000 0.15700  0.98540  0.96120  Biso   1.000  O
  O22      1.0000 0.84300  0.98540  0.53880  Biso   1.000  O
  O23      1.0000 0.65700  0.48540  0.96120  Biso   1.000  O
  O24      1.0000 0.34300  0.48540  0.53880  Biso   1.000  O
  O25      1.0000 0.12630  0.90370  0.19950  Biso   1.000  O
  O26      1.0000 0.87370  0.90370  0.30050  Biso   1.000  O
  O27      1.0000 0.62630  0.40370  0.19950  Biso   1.000  O
  O28      1.0000 0.37370  0.40370  0.30050  Biso   1.000  O
  O29      1.0000 0.87370  0.09630  0.80050  Biso   1.000  O
  O30      1.0000 0.12630  0.09630  0.69950  Biso   1.000  O
  O31      1.0000 0.37370  0.59630  0.80050  Biso   1.000  O
  O32      1.0000 0.62630  0.59630  0.69950  Biso   1.000  O
  Sm1      1.0000 0.00000  0.96892  0.25000  Biso   1.000  Sm
  Sm2      1.0000 0.50000  0.46892  0.25000  Biso   1.000  Sm
  Sm3      1.0000 0.00000  0.03108  0.75000  Biso   1.000  Sm
  Sm4      1.0000 0.50000  0.53108  0.75000  Biso   1.000  Sm
