data_image0
_cell_length_a       16.1054
_cell_length_b       15.3296
_cell_length_c       9.3013
_cell_angle_alpha    90
_cell_angle_beta     115.131
_cell_angle_gamma    90

_symmetry_space_group_name_H-M    "P 1"
_symmetry_int_tables_number       1

loop_
  _symmetry_equiv_pos_as_xyz
  'x, y, z'

loop_
  _atom_site_label
  _atom_site_occupancy
  _atom_site_fract_x
  _atom_site_fract_y
  _atom_site_fract_z
  _atom_site_thermal_displace_type
  _atom_site_B_iso_or_equiv
  _atom_site_type_symbol
  C1       1.0000 0.43580  0.34710  0.43320  Biso   1.000  C
  C2       1.0000 0.56420  0.34710  0.06680  Biso   1.000  C
  C3       1.0000 0.93580  0.84710  0.43320  Biso   1.000  C
  C4       1.0000 0.06420  0.84710  0.06680  Biso   1.000  C
  C5       1.0000 0.56420  0.65290  0.56680  Biso   1.000  C
  C6       1.0000 0.43580  0.65290  0.93320  Biso   1.000  C
  C7       1.0000 0.06420  0.15290  0.56680  Biso   1.000  C
  C8       1.0000 0.93580  0.15290  0.93320  Biso   1.000  C
  C9       1.0000 0.41430  0.26080  0.34810  Biso   1.000  C
  C10      1.0000 0.58570  0.26080  0.15190  Biso   1.000  C
  C11      1.0000 0.91430  0.76080  0.34810  Biso   1.000  C
  C12      1.0000 0.08570  0.76080  0.15190  Biso   1.000  C
  C13      1.0000 0.58570  0.73920  0.65190  Biso   1.000  C
  C14      1.0000 0.41430  0.73920  0.84810  Biso   1.000  C
  C15      1.0000 0.08570  0.23920  0.65190  Biso   1.000  C
  C16      1.0000 0.91430  0.23920  0.84810  Biso   1.000  C
  C17      1.0000 0.42170  0.18560  0.43810  Biso   1.000  C
  C18      1.0000 0.57830  0.18560  0.06190  Biso   1.000  C
  C19      1.0000 0.92170  0.68560  0.43810  Biso   1.000  C
  C20      1.0000 0.07830  0.68560  0.06190  Biso   1.000  C
  C21      1.0000 0.57830  0.81440  0.56190  Biso   1.000  C
  C22      1.0000 0.42170  0.81440  0.93810  Biso   1.000  C
  C23      1.0000 0.07830  0.31440  0.56190  Biso   1.000  C
  C24      1.0000 0.92170  0.31440  0.93810  Biso   1.000  C
  C25      1.0000 0.40250  0.10530  0.36460  Biso   1.000  C
  C26      1.0000 0.59750  0.10530  0.13540  Biso   1.000  C
  C27      1.0000 0.90250  0.60530  0.36460  Biso   1.000  C
  C28      1.0000 0.09750  0.60530  0.13540  Biso   1.000  C
  C29      1.0000 0.59750  0.89470  0.63540  Biso   1.000  C
  C30      1.0000 0.40250  0.89470  0.86460  Biso   1.000  C
  C31      1.0000 0.09750  0.39470  0.63540  Biso   1.000  C
  C32      1.0000 0.90250  0.39470  0.86460  Biso   1.000  C
  C33      1.0000 0.37380  0.09870  0.20180  Biso   1.000  C
  C34      1.0000 0.62620  0.09870  0.29820  Biso   1.000  C
  C35      1.0000 0.87380  0.59870  0.20180  Biso   1.000  C
  C36      1.0000 0.12620  0.59870  0.29820  Biso   1.000  C
  C37      1.0000 0.62620  0.90130  0.79820  Biso   1.000  C
  C38      1.0000 0.37380  0.90130  0.70180  Biso   1.000  C
  C39      1.0000 0.12620  0.40130  0.79820  Biso   1.000  C
  C40      1.0000 0.87380  0.40130  0.70180  Biso   1.000  C
  C41      1.0000 0.36520  0.17290  0.11100  Biso   1.000  C
  C42      1.0000 0.63480  0.17290  0.38900  Biso   1.000  C
  C43      1.0000 0.86520  0.67290  0.11100  Biso   1.000  C
  C44      1.0000 0.13480  0.67290  0.38900  Biso   1.000  C
  C45      1.0000 0.63480  0.82710  0.88900  Biso   1.000  C
  C46      1.0000 0.36520  0.82710  0.61100  Biso   1.000  C
  C47      1.0000 0.13480  0.32710  0.88900  Biso   1.000  C
  C48      1.0000 0.86520  0.32710  0.61100  Biso   1.000  C
  C49      1.0000 0.33120  0.16440  0.93710  Biso   1.000  C
  C50      1.0000 0.66880  0.16440  0.56290  Biso   1.000  C
  C51      1.0000 0.83120  0.66440  0.93710  Biso   1.000  C
  C52      1.0000 0.16880  0.66440  0.56290  Biso   1.000  C
  C53      1.0000 0.66880  0.83560  0.06290  Biso   1.000  C
  C54      1.0000 0.33120  0.83560  0.43710  Biso   1.000  C
  C55      1.0000 0.16880  0.33560  0.06290  Biso   1.000  C
  C56      1.0000 0.83120  0.33560  0.43710  Biso   1.000  C
  C57      1.0000 0.38730  0.25420  0.18600  Biso   1.000  C
  C58      1.0000 0.61270  0.25420  0.31400  Biso   1.000  C
  C59      1.0000 0.88730  0.75420  0.18600  Biso   1.000  C
  C60      1.0000 0.11270  0.75420  0.31400  Biso   1.000  C
  C61      1.0000 0.61270  0.74580  0.81400  Biso   1.000  C
  C62      1.0000 0.38730  0.74580  0.68600  Biso   1.000  C
  C63      1.0000 0.11270  0.24580  0.81400  Biso   1.000  C
  C64      1.0000 0.88730  0.24580  0.68600  Biso   1.000  C
  Cu1      1.0000 0.25000  0.25000  0.50000  Biso   1.000  Cu
  Cu2      1.0000 0.75000  0.25000  0.00000  Biso   1.000  Cu
  Cu3      1.0000 0.75000  0.75000  0.50000  Biso   1.000  Cu
  Cu4      1.0000 0.25000  0.75000  0.00000  Biso   1.000  Cu
  H1       1.0000 0.38100  0.30500  0.12600  Biso   1.000  H
  H2       1.0000 0.61900  0.30500  0.37400  Biso   1.000  H
  H3       1.0000 0.88100  0.80500  0.12600  Biso   1.000  H
  H4       1.0000 0.11900  0.80500  0.37400  Biso   1.000  H
  H5       1.0000 0.61900  0.69500  0.87400  Biso   1.000  H
  H6       1.0000 0.38100  0.69500  0.62600  Biso   1.000  H
  H7       1.0000 0.11900  0.19500  0.87400  Biso   1.000  H
  H8       1.0000 0.88100  0.19500  0.62600  Biso   1.000  H
  H9       1.0000 0.44200  0.19200  0.55000  Biso   1.000  H
  H10      1.0000 0.55800  0.19200  0.95000  Biso   1.000  H
  H11      1.0000 0.94200  0.69200  0.55000  Biso   1.000  H
  H12      1.0000 0.05800  0.69200  0.95000  Biso   1.000  H
  H13      1.0000 0.55800  0.80800  0.45000  Biso   1.000  H
  H14      1.0000 0.44200  0.80800  0.05000  Biso   1.000  H
  H15      1.0000 0.05800  0.30800  0.45000  Biso   1.000  H
  H16      1.0000 0.94200  0.30800  0.05000  Biso   1.000  H
  H17      1.0000 0.41000  0.06200  0.42200  Biso   1.000  H
  H18      1.0000 0.59000  0.06200  0.07800  Biso   1.000  H
  H19      1.0000 0.91000  0.56200  0.42200  Biso   1.000  H
  H20      1.0000 0.09000  0.56200  0.07800  Biso   1.000  H
  H21      1.0000 0.59000  0.93800  0.57800  Biso   1.000  H
  H22      1.0000 0.41000  0.93800  0.92200  Biso   1.000  H
  H23      1.0000 0.09000  0.43800  0.57800  Biso   1.000  H
  H24      1.0000 0.91000  0.43800  0.92200  Biso   1.000  H
  H25      1.0000 0.36400  0.04700  0.15500  Biso   1.000  H
  H26      1.0000 0.63600  0.04700  0.34500  Biso   1.000  H
  H27      1.0000 0.86400  0.54700  0.15500  Biso   1.000  H
  H28      1.0000 0.13600  0.54700  0.34500  Biso   1.000  H
  H29      1.0000 0.63600  0.95300  0.84500  Biso   1.000  H
  H30      1.0000 0.36400  0.95300  0.65500  Biso   1.000  H
  H31      1.0000 0.13600  0.45300  0.84500  Biso   1.000  H
  H32      1.0000 0.86400  0.45300  0.65500  Biso   1.000  H
  H33      1.0000 0.31100  0.53300  0.58500  Biso   1.000  H
  H34      1.0000 0.68900  0.53300  0.91500  Biso   1.000  H
  H35      1.0000 0.81100  0.03300  0.58500  Biso   1.000  H
  H36      1.0000 0.18900  0.03300  0.91500  Biso   1.000  H
  H37      1.0000 0.68900  0.46700  0.41500  Biso   1.000  H
  H38      1.0000 0.31100  0.46700  0.08500  Biso   1.000  H
  H39      1.0000 0.18900  0.96700  0.41500  Biso   1.000  H
  H40      1.0000 0.81100  0.96700  0.08500  Biso   1.000  H
  H41      1.0000 0.64800  0.42400  0.64200  Biso   1.000  H
  H42      1.0000 0.35200  0.42400  0.85800  Biso   1.000  H
  H43      1.0000 0.14800  0.92400  0.64200  Biso   1.000  H
  H44      1.0000 0.85200  0.92400  0.85800  Biso   1.000  H
  H45      1.0000 0.35200  0.57600  0.35800  Biso   1.000  H
  H46      1.0000 0.64800  0.57600  0.14200  Biso   1.000  H
  H47      1.0000 0.85200  0.07600  0.35800  Biso   1.000  H
  H48      1.0000 0.14800  0.07600  0.14200  Biso   1.000  H
  H49      1.0000 0.32000  0.48200  0.49000  Biso   1.000  H
  H50      1.0000 0.68000  0.48200  0.01000  Biso   1.000  H
  H51      1.0000 0.82000  0.98200  0.49000  Biso   1.000  H
  H52      1.0000 0.18000  0.98200  0.01000  Biso   1.000  H
  H53      1.0000 0.68000  0.51800  0.51000  Biso   1.000  H
  H54      1.0000 0.32000  0.51800  0.99000  Biso   1.000  H
  H55      1.0000 0.18000  0.01800  0.51000  Biso   1.000  H
  H56      1.0000 0.82000  0.01800  0.99000  Biso   1.000  H
  H57      1.0000 0.63400  0.35400  0.68700  Biso   1.000  H
  H58      1.0000 0.36600  0.35400  0.81300  Biso   1.000  H
  H59      1.0000 0.13400  0.85400  0.68700  Biso   1.000  H
  H60      1.0000 0.86600  0.85400  0.81300  Biso   1.000  H
  H61      1.0000 0.36600  0.64600  0.31300  Biso   1.000  H
  H62      1.0000 0.63400  0.64600  0.18700  Biso   1.000  H
  H63      1.0000 0.86600  0.14600  0.31300  Biso   1.000  H
  H64      1.0000 0.13400  0.14600  0.18700  Biso   1.000  H
  N1       1.0000 0.28780  0.09300  0.85760  Biso   1.000  N
  N2       1.0000 0.71220  0.09300  0.64240  Biso   1.000  N
  N3       1.0000 0.78780  0.59300  0.85760  Biso   1.000  N
  N4       1.0000 0.21220  0.59300  0.64240  Biso   1.000  N
  N5       1.0000 0.71220  0.90700  0.14240  Biso   1.000  N
  N6       1.0000 0.28780  0.90700  0.35760  Biso   1.000  N
  N7       1.0000 0.21220  0.40700  0.14240  Biso   1.000  N
  N8       1.0000 0.78780  0.40700  0.35760  Biso   1.000  N
  N9       1.0000 0.26430  0.11020  0.70490  Biso   1.000  N
  N10      1.0000 0.73570  0.11020  0.79510  Biso   1.000  N
  N11      1.0000 0.76430  0.61020  0.70490  Biso   1.000  N
  N12      1.0000 0.23570  0.61020  0.79510  Biso   1.000  N
  N13      1.0000 0.73570  0.88980  0.29510  Biso   1.000  N
  N14      1.0000 0.26430  0.88980  0.20490  Biso   1.000  N
  N15      1.0000 0.23570  0.38980  0.29510  Biso   1.000  N
  N16      1.0000 0.76430  0.38980  0.20490  Biso   1.000  N
  N17      1.0000 0.29290  0.18960  0.69330  Biso   1.000  N
  N18      1.0000 0.70710  0.18960  0.80670  Biso   1.000  N
  N19      1.0000 0.79290  0.68960  0.69330  Biso   1.000  N
  N20      1.0000 0.20710  0.68960  0.80670  Biso   1.000  N
  N21      1.0000 0.70710  0.81040  0.30670  Biso   1.000  N
  N22      1.0000 0.29290  0.81040  0.19330  Biso   1.000  N
  N23      1.0000 0.20710  0.31040  0.30670  Biso   1.000  N
  N24      1.0000 0.79290  0.31040  0.19330  Biso   1.000  N
  N25      1.0000 0.33490  0.22570  0.83890  Biso   1.000  N
  N26      1.0000 0.66510  0.22570  0.66110  Biso   1.000  N
  N27      1.0000 0.83490  0.72570  0.83890  Biso   1.000  N
  N28      1.0000 0.16510  0.72570  0.66110  Biso   1.000  N
  N29      1.0000 0.66510  0.77430  0.16110  Biso   1.000  N
  N30      1.0000 0.33490  0.77430  0.33890  Biso   1.000  N
  N31      1.0000 0.16510  0.27430  0.16110  Biso   1.000  N
  N32      1.0000 0.83490  0.27430  0.33890  Biso   1.000  N
  O1       1.0000 0.43620  0.34900  0.56760  Biso   1.000  O
  O2       1.0000 0.56380  0.34900  0.93240  Biso   1.000  O
  O3       1.0000 0.93620  0.84900  0.56760  Biso   1.000  O
  O4       1.0000 0.06380  0.84900  0.93240  Biso   1.000  O
  O5       1.0000 0.56380  0.65100  0.43240  Biso   1.000  O
  O6       1.0000 0.43620  0.65100  0.06760  Biso   1.000  O
  O7       1.0000 0.06380  0.15100  0.43240  Biso   1.000  O
  O8       1.0000 0.93620  0.15100  0.06760  Biso   1.000  O
  O9       1.0000 0.45180  0.41280  0.36630  Biso   1.000  O
  O10      1.0000 0.54820  0.41280  0.13370  Biso   1.000  O
  O11      1.0000 0.95180  0.91280  0.36630  Biso   1.000  O
  O12      1.0000 0.04820  0.91280  0.13370  Biso   1.000  O
  O13      1.0000 0.54820  0.58720  0.63370  Biso   1.000  O
  O14      1.0000 0.45180  0.58720  0.86630  Biso   1.000  O
  O15      1.0000 0.04820  0.08720  0.63370  Biso   1.000  O
  O16      1.0000 0.95180  0.08720  0.86630  Biso   1.000  O
  O17      1.0000 0.33950  0.51390  0.53760  Biso   1.000  O
  O18      1.0000 0.66050  0.51390  0.96240  Biso   1.000  O
  O19      1.0000 0.83950  0.01390  0.53760  Biso   1.000  O
  O20      1.0000 0.16050  0.01390  0.96240  Biso   1.000  O
  O21      1.0000 0.66050  0.48610  0.46240  Biso   1.000  O
  O22      1.0000 0.33950  0.48610  0.03760  Biso   1.000  O
  O23      1.0000 0.16050  0.98610  0.46240  Biso   1.000  O
  O24      1.0000 0.83950  0.98610  0.03760  Biso   1.000  O
  O25      1.0000 0.62630  0.40260  0.69490  Biso   1.000  O
  O26      1.0000 0.37370  0.40260  0.80510  Biso   1.000  O
  O27      1.0000 0.12630  0.90260  0.69490  Biso   1.000  O
  O28      1.0000 0.87370  0.90260  0.80510  Biso   1.000  O
  O29      1.0000 0.37370  0.59740  0.30510  Biso   1.000  O
  O30      1.0000 0.62630  0.59740  0.19490  Biso   1.000  O
  O31      1.0000 0.87370  0.09740  0.30510  Biso   1.000  O
  O32      1.0000 0.12630  0.09740  0.19490  Biso   1.000  O
  Pr1      1.0000 0.50000  0.46893  0.75000  Biso   1.000  Pr
  Pr2      1.0000 0.00000  0.96893  0.75000  Biso   1.000  Pr
  Pr3      1.0000 0.50000  0.53107  0.25000  Biso   1.000  Pr
  Pr4      1.0000 0.00000  0.03107  0.25000  Biso   1.000  Pr
