data_image0
_cell_length_a       16.059
_cell_length_b       15.269
_cell_length_c       9.275
_cell_angle_alpha    90
_cell_angle_beta     115.13
_cell_angle_gamma    90

_symmetry_space_group_name_H-M    "P 1"
_symmetry_int_tables_number       1

loop_
  _symmetry_equiv_pos_as_xyz
  'x, y, z'

loop_
  _atom_site_label
  _atom_site_occupancy
  _atom_site_fract_x
  _atom_site_fract_y
  _atom_site_fract_z
  _atom_site_thermal_displace_type
  _atom_site_B_iso_or_equiv
  _atom_site_type_symbol
  C1       1.0000 0.16950  0.16470  0.56240  Biso   1.000  C
  C2       1.0000 0.83050  0.16470  0.93760  Biso   1.000  C
  C3       1.0000 0.66950  0.66470  0.56240  Biso   1.000  C
  C4       1.0000 0.33050  0.66470  0.93760  Biso   1.000  C
  C5       1.0000 0.83050  0.83530  0.43760  Biso   1.000  C
  C6       1.0000 0.16950  0.83530  0.06240  Biso   1.000  C
  C7       1.0000 0.33050  0.33530  0.43760  Biso   1.000  C
  C8       1.0000 0.66950  0.33530  0.06240  Biso   1.000  C
  C9       1.0000 0.13510  0.17330  0.38850  Biso   1.000  C
  C10      1.0000 0.86490  0.17330  0.11150  Biso   1.000  C
  C11      1.0000 0.63510  0.67330  0.38850  Biso   1.000  C
  C12      1.0000 0.36490  0.67330  0.11150  Biso   1.000  C
  C13      1.0000 0.86490  0.82670  0.61150  Biso   1.000  C
  C14      1.0000 0.13510  0.82670  0.88850  Biso   1.000  C
  C15      1.0000 0.36490  0.32670  0.61150  Biso   1.000  C
  C16      1.0000 0.63510  0.32670  0.88850  Biso   1.000  C
  C17      1.0000 0.12610  0.09870  0.29820  Biso   1.000  C
  C18      1.0000 0.87390  0.09870  0.20180  Biso   1.000  C
  C19      1.0000 0.62610  0.59870  0.29820  Biso   1.000  C
  C20      1.0000 0.37390  0.59870  0.20180  Biso   1.000  C
  C21      1.0000 0.87390  0.90130  0.70180  Biso   1.000  C
  C22      1.0000 0.12610  0.90130  0.79820  Biso   1.000  C
  C23      1.0000 0.37390  0.40130  0.70180  Biso   1.000  C
  C24      1.0000 0.62610  0.40130  0.79820  Biso   1.000  C
  C25      1.0000 0.09820  0.10470  0.13490  Biso   1.000  C
  C26      1.0000 0.90180  0.10470  0.36510  Biso   1.000  C
  C27      1.0000 0.59820  0.60470  0.13490  Biso   1.000  C
  C28      1.0000 0.40180  0.60470  0.36510  Biso   1.000  C
  C29      1.0000 0.90180  0.89530  0.86510  Biso   1.000  C
  C30      1.0000 0.09820  0.89530  0.63490  Biso   1.000  C
  C31      1.0000 0.40180  0.39530  0.86510  Biso   1.000  C
  C32      1.0000 0.59820  0.39530  0.63490  Biso   1.000  C
  C33      1.0000 0.07830  0.18620  0.06190  Biso   1.000  C
  C34      1.0000 0.92170  0.18620  0.43810  Biso   1.000  C
  C35      1.0000 0.57830  0.68620  0.06190  Biso   1.000  C
  C36      1.0000 0.42170  0.68620  0.43810  Biso   1.000  C
  C37      1.0000 0.92170  0.81380  0.93810  Biso   1.000  C
  C38      1.0000 0.07830  0.81380  0.56190  Biso   1.000  C
  C39      1.0000 0.42170  0.31380  0.93810  Biso   1.000  C
  C40      1.0000 0.57830  0.31380  0.56190  Biso   1.000  C
  C41      1.0000 0.08530  0.26100  0.15150  Biso   1.000  C
  C42      1.0000 0.91470  0.26100  0.34850  Biso   1.000  C
  C43      1.0000 0.58530  0.76100  0.15150  Biso   1.000  C
  C44      1.0000 0.41470  0.76100  0.34850  Biso   1.000  C
  C45      1.0000 0.91470  0.73900  0.84850  Biso   1.000  C
  C46      1.0000 0.08530  0.73900  0.65150  Biso   1.000  C
  C47      1.0000 0.41470  0.23900  0.84850  Biso   1.000  C
  C48      1.0000 0.58530  0.23900  0.65150  Biso   1.000  C
  C49      1.0000 0.11270  0.25430  0.31450  Biso   1.000  C
  C50      1.0000 0.88730  0.25430  0.18550  Biso   1.000  C
  C51      1.0000 0.61270  0.75430  0.31450  Biso   1.000  C
  C52      1.0000 0.38730  0.75430  0.18550  Biso   1.000  C
  C53      1.0000 0.88730  0.74570  0.68550  Biso   1.000  C
  C54      1.0000 0.11270  0.74570  0.81450  Biso   1.000  C
  C55      1.0000 0.38730  0.24570  0.68550  Biso   1.000  C
  C56      1.0000 0.61270  0.24570  0.81450  Biso   1.000  C
  C57      1.0000 0.06360  0.34800  0.06750  Biso   1.000  C
  C58      1.0000 0.93640  0.34800  0.43250  Biso   1.000  C
  C59      1.0000 0.56360  0.84800  0.06750  Biso   1.000  C
  C60      1.0000 0.43640  0.84800  0.43250  Biso   1.000  C
  C61      1.0000 0.93640  0.65200  0.93250  Biso   1.000  C
  C62      1.0000 0.06360  0.65200  0.56750  Biso   1.000  C
  C63      1.0000 0.43640  0.15200  0.93250  Biso   1.000  C
  C64      1.0000 0.56360  0.15200  0.56750  Biso   1.000  C
  Cu1      1.0000 0.25000  0.25000  0.00000  Biso   1.000  Cu
  Cu2      1.0000 0.75000  0.25000  0.50000  Biso   1.000  Cu
  Cu3      1.0000 0.75000  0.75000  0.00000  Biso   1.000  Cu
  Cu4      1.0000 0.25000  0.75000  0.50000  Biso   1.000  Cu
  H1       1.0000 0.05700  0.18600  0.94600  Biso   1.000  H
  H2       1.0000 0.94300  0.18600  0.55400  Biso   1.000  H
  H3       1.0000 0.55700  0.68600  0.94600  Biso   1.000  H
  H4       1.0000 0.44300  0.68600  0.55400  Biso   1.000  H
  H5       1.0000 0.94300  0.81400  0.05400  Biso   1.000  H
  H6       1.0000 0.05700  0.81400  0.44600  Biso   1.000  H
  H7       1.0000 0.44300  0.31400  0.05400  Biso   1.000  H
  H8       1.0000 0.55700  0.31400  0.44600  Biso   1.000  H
  H9       1.0000 0.09300  0.05300  0.07400  Biso   1.000  H
  H10      1.0000 0.90700  0.05300  0.42600  Biso   1.000  H
  H11      1.0000 0.59300  0.55300  0.07400  Biso   1.000  H
  H12      1.0000 0.40700  0.55300  0.42600  Biso   1.000  H
  H13      1.0000 0.90700  0.94700  0.92600  Biso   1.000  H
  H14      1.0000 0.09300  0.94700  0.57400  Biso   1.000  H
  H15      1.0000 0.40700  0.44700  0.92600  Biso   1.000  H
  H16      1.0000 0.59300  0.44700  0.57400  Biso   1.000  H
  H17      1.0000 0.14200  0.05100  0.34700  Biso   1.000  H
  H18      1.0000 0.85800  0.05100  0.15300  Biso   1.000  H
  H19      1.0000 0.64200  0.55100  0.34700  Biso   1.000  H
  H20      1.0000 0.35800  0.55100  0.15300  Biso   1.000  H
  H21      1.0000 0.85800  0.94900  0.65300  Biso   1.000  H
  H22      1.0000 0.14200  0.94900  0.84700  Biso   1.000  H
  H23      1.0000 0.35800  0.44900  0.65300  Biso   1.000  H
  H24      1.0000 0.64200  0.44900  0.84700  Biso   1.000  H
  H25      1.0000 0.12000  0.30300  0.37500  Biso   1.000  H
  H26      1.0000 0.88000  0.30300  0.12500  Biso   1.000  H
  H27      1.0000 0.62000  0.80300  0.37500  Biso   1.000  H
  H28      1.0000 0.38000  0.80300  0.12500  Biso   1.000  H
  H29      1.0000 0.88000  0.69700  0.62500  Biso   1.000  H
  H30      1.0000 0.12000  0.69700  0.87500  Biso   1.000  H
  H31      1.0000 0.38000  0.19700  0.62500  Biso   1.000  H
  H32      1.0000 0.62000  0.19700  0.87500  Biso   1.000  H
  N1       1.0000 0.16520  0.22570  0.66160  Biso   1.000  N
  N2       1.0000 0.83480  0.22570  0.83840  Biso   1.000  N
  N3       1.0000 0.66520  0.72570  0.66160  Biso   1.000  N
  N4       1.0000 0.33480  0.72570  0.83840  Biso   1.000  N
  N5       1.0000 0.83480  0.77430  0.33840  Biso   1.000  N
  N6       1.0000 0.16520  0.77430  0.16160  Biso   1.000  N
  N7       1.0000 0.33480  0.27430  0.33840  Biso   1.000  N
  N8       1.0000 0.66520  0.27430  0.16160  Biso   1.000  N
  N9       1.0000 0.20750  0.18930  0.80630  Biso   1.000  N
  N10      1.0000 0.79250  0.18930  0.69370  Biso   1.000  N
  N11      1.0000 0.70750  0.68930  0.80630  Biso   1.000  N
  N12      1.0000 0.29250  0.68930  0.69370  Biso   1.000  N
  N13      1.0000 0.79250  0.81070  0.19370  Biso   1.000  N
  N14      1.0000 0.20750  0.81070  0.30630  Biso   1.000  N
  N15      1.0000 0.29250  0.31070  0.19370  Biso   1.000  N
  N16      1.0000 0.70750  0.31070  0.30630  Biso   1.000  N
  N17      1.0000 0.23580  0.10980  0.79520  Biso   1.000  N
  N18      1.0000 0.76420  0.10980  0.70480  Biso   1.000  N
  N19      1.0000 0.73580  0.60980  0.79520  Biso   1.000  N
  N20      1.0000 0.26420  0.60980  0.70480  Biso   1.000  N
  N21      1.0000 0.76420  0.89020  0.20480  Biso   1.000  N
  N22      1.0000 0.23580  0.89020  0.29520  Biso   1.000  N
  N23      1.0000 0.26420  0.39020  0.20480  Biso   1.000  N
  N24      1.0000 0.73580  0.39020  0.29520  Biso   1.000  N
  N25      1.0000 0.21270  0.09270  0.64190  Biso   1.000  N
  N26      1.0000 0.78730  0.09270  0.85810  Biso   1.000  N
  N27      1.0000 0.71270  0.59270  0.64190  Biso   1.000  N
  N28      1.0000 0.28730  0.59270  0.85810  Biso   1.000  N
  N29      1.0000 0.78730  0.90730  0.35810  Biso   1.000  N
  N30      1.0000 0.21270  0.90730  0.14190  Biso   1.000  N
  N31      1.0000 0.28730  0.40730  0.35810  Biso   1.000  N
  N32      1.0000 0.71270  0.40730  0.14190  Biso   1.000  N
  Nd1      1.0000 0.00000  0.46880  0.75000  Biso   1.000  Nd
  Nd2      1.0000 0.50000  0.96880  0.75000  Biso   1.000  Nd
  Nd3      1.0000 0.00000  0.53120  0.25000  Biso   1.000  Nd
  Nd4      1.0000 0.50000  0.03120  0.25000  Biso   1.000  Nd
  O1       1.0000 0.06350  0.34990  0.93250  Biso   1.000  O
  O2       1.0000 0.93650  0.34990  0.56750  Biso   1.000  O
  O3       1.0000 0.56350  0.84990  0.93250  Biso   1.000  O
  O4       1.0000 0.43650  0.84990  0.56750  Biso   1.000  O
  O5       1.0000 0.93650  0.65010  0.06750  Biso   1.000  O
  O6       1.0000 0.06350  0.65010  0.43250  Biso   1.000  O
  O7       1.0000 0.43650  0.15010  0.06750  Biso   1.000  O
  O8       1.0000 0.56350  0.15010  0.43250  Biso   1.000  O
  O9       1.0000 0.04781  0.41337  0.13470  Biso   1.000  O
  O10      1.0000 0.95219  0.41337  0.36530  Biso   1.000  O
  O11      1.0000 0.54781  0.91337  0.13470  Biso   1.000  O
  O12      1.0000 0.45219  0.91337  0.36530  Biso   1.000  O
  O13      1.0000 0.95219  0.58663  0.86530  Biso   1.000  O
  O14      1.0000 0.04781  0.58663  0.63470  Biso   1.000  O
  O15      1.0000 0.45219  0.08663  0.86530  Biso   1.000  O
  O16      1.0000 0.54781  0.08663  0.63470  Biso   1.000  O
  O17      1.0000 0.84047  0.51397  0.53730  Biso   1.000  O
  O18      1.0000 0.15953  0.51397  0.96270  Biso   1.000  O
  O19      1.0000 0.34047  0.01397  0.53730  Biso   1.000  O
  O20      1.0000 0.65953  0.01397  0.96270  Biso   1.000  O
  O21      1.0000 0.15953  0.48603  0.46270  Biso   1.000  O
  O22      1.0000 0.84047  0.48603  0.03730  Biso   1.000  O
  O23      1.0000 0.65953  0.98603  0.46270  Biso   1.000  O
  O24      1.0000 0.34047  0.98603  0.03730  Biso   1.000  O
  H33      1.0000 0.81010  0.47610  0.47510  Biso   1.000  H
  H34      1.0000 0.18990  0.47610  0.02490  Biso   1.000  H
  H35      1.0000 0.31010  0.97610  0.47510  Biso   1.000  H
  H36      1.0000 0.68990  0.97610  0.02490  Biso   1.000  H
  H37      1.0000 0.18990  0.52390  0.52490  Biso   1.000  H
  H38      1.0000 0.81010  0.52390  0.97510  Biso   1.000  H
  H39      1.0000 0.68990  0.02390  0.52490  Biso   1.000  H
  H40      1.0000 0.31010  0.02390  0.97510  Biso   1.000  H
  H41      1.0000 0.81440  0.53300  0.58960  Biso   1.000  H
  H42      1.0000 0.18560  0.53300  0.91040  Biso   1.000  H
  H43      1.0000 0.31440  0.03300  0.58960  Biso   1.000  H
  H44      1.0000 0.68560  0.03300  0.91040  Biso   1.000  H
  H45      1.0000 0.18560  0.46700  0.41040  Biso   1.000  H
  H46      1.0000 0.81440  0.46700  0.08960  Biso   1.000  H
  H47      1.0000 0.68560  0.96700  0.41040  Biso   1.000  H
  H48      1.0000 0.31440  0.96700  0.08960  Biso   1.000  H
  O25      1.0000 0.87372  0.40277  0.80350  Biso   1.000  O
  O26      1.0000 0.12628  0.40277  0.69650  Biso   1.000  O
  O27      1.0000 0.37372  0.90277  0.80350  Biso   1.000  O
  O28      1.0000 0.62628  0.90277  0.69650  Biso   1.000  O
  O29      1.0000 0.12628  0.59723  0.19650  Biso   1.000  O
  O30      1.0000 0.87372  0.59723  0.30350  Biso   1.000  O
  O31      1.0000 0.62628  0.09723  0.19650  Biso   1.000  O
  O32      1.0000 0.37372  0.09723  0.30350  Biso   1.000  O
  H49      1.0000 0.86050  0.42800  0.86920  Biso   1.000  H
  H50      1.0000 0.13950  0.42800  0.63080  Biso   1.000  H
  H51      1.0000 0.36050  0.92800  0.86920  Biso   1.000  H
  H52      1.0000 0.63950  0.92800  0.63080  Biso   1.000  H
  H53      1.0000 0.13950  0.57200  0.13080  Biso   1.000  H
  H54      1.0000 0.86050  0.57200  0.36920  Biso   1.000  H
  H55      1.0000 0.63950  0.07200  0.13080  Biso   1.000  H
  H56      1.0000 0.36050  0.07200  0.36920  Biso   1.000  H
  H57      1.0000 0.86260  0.35010  0.80260  Biso   1.000  H
  H58      1.0000 0.13740  0.35010  0.69740  Biso   1.000  H
  H59      1.0000 0.36260  0.85010  0.80260  Biso   1.000  H
  H60      1.0000 0.63740  0.85010  0.69740  Biso   1.000  H
  H61      1.0000 0.13740  0.64990  0.19740  Biso   1.000  H
  H62      1.0000 0.86260  0.64990  0.30260  Biso   1.000  H
  H63      1.0000 0.63740  0.14990  0.19740  Biso   1.000  H
  H64      1.0000 0.36260  0.14990  0.30260  Biso   1.000  H
