data_image0
_cell_length_a       16.0231
_cell_length_b       15.1138
_cell_length_c       9.2701
_cell_angle_alpha    90
_cell_angle_beta     115.484
_cell_angle_gamma    90

_symmetry_space_group_name_H-M    "P 1"
_symmetry_int_tables_number       1

loop_
  _symmetry_equiv_pos_as_xyz
  'x, y, z'

loop_
  _atom_site_label
  _atom_site_occupancy
  _atom_site_fract_x
  _atom_site_fract_y
  _atom_site_fract_z
  _atom_site_thermal_displace_type
  _atom_site_B_iso_or_equiv
  _atom_site_type_symbol
  C1       1.0000 0.17040  0.33560  0.56310  Biso   1.000  C
  C2       1.0000 0.82960  0.33560  0.93690  Biso   1.000  C
  C3       1.0000 0.67040  0.83560  0.56310  Biso   1.000  C
  C4       1.0000 0.32960  0.83560  0.93690  Biso   1.000  C
  C5       1.0000 0.82960  0.66440  0.43690  Biso   1.000  C
  C6       1.0000 0.17040  0.66440  0.06310  Biso   1.000  C
  C7       1.0000 0.32960  0.16440  0.43690  Biso   1.000  C
  C8       1.0000 0.67040  0.16440  0.06310  Biso   1.000  C
  C9       1.0000 0.13570  0.32670  0.38840  Biso   1.000  C
  C10      1.0000 0.86430  0.32670  0.11160  Biso   1.000  C
  C11      1.0000 0.63570  0.82670  0.38840  Biso   1.000  C
  C12      1.0000 0.36430  0.82670  0.11160  Biso   1.000  C
  C13      1.0000 0.86430  0.67330  0.61160  Biso   1.000  C
  C14      1.0000 0.13570  0.67330  0.88840  Biso   1.000  C
  C15      1.0000 0.36430  0.17330  0.61160  Biso   1.000  C
  C16      1.0000 0.63570  0.17330  0.88840  Biso   1.000  C
  C17      1.0000 0.12800  0.40150  0.29620  Biso   1.000  C
  C18      1.0000 0.87200  0.40150  0.20380  Biso   1.000  C
  C19      1.0000 0.62800  0.90150  0.29620  Biso   1.000  C
  C20      1.0000 0.37200  0.90150  0.20380  Biso   1.000  C
  C21      1.0000 0.87200  0.59850  0.70380  Biso   1.000  C
  C22      1.0000 0.12800  0.59850  0.79620  Biso   1.000  C
  C23      1.0000 0.37200  0.09850  0.70380  Biso   1.000  C
  C24      1.0000 0.62800  0.09850  0.79620  Biso   1.000  C
  H1       1.0000 0.14260  0.45670  0.34490  Biso   1.000  H
  H2       1.0000 0.85740  0.45670  0.15510  Biso   1.000  H
  H3       1.0000 0.64260  0.95670  0.34490  Biso   1.000  H
  H4       1.0000 0.35740  0.95670  0.15510  Biso   1.000  H
  H5       1.0000 0.85740  0.54330  0.65510  Biso   1.000  H
  H6       1.0000 0.14260  0.54330  0.84490  Biso   1.000  H
  H7       1.0000 0.35740  0.04330  0.65510  Biso   1.000  H
  H8       1.0000 0.64260  0.04330  0.84490  Biso   1.000  H
  C25      1.0000 0.09890  0.39450  0.13280  Biso   1.000  C
  C26      1.0000 0.90110  0.39450  0.36720  Biso   1.000  C
  C27      1.0000 0.59890  0.89450  0.13280  Biso   1.000  C
  C28      1.0000 0.40110  0.89450  0.36720  Biso   1.000  C
  C29      1.0000 0.90110  0.60550  0.86720  Biso   1.000  C
  C30      1.0000 0.09890  0.60550  0.63280  Biso   1.000  C
  C31      1.0000 0.40110  0.10550  0.86720  Biso   1.000  C
  C32      1.0000 0.59890  0.10550  0.63280  Biso   1.000  C
  H9       1.0000 0.09340  0.44500  0.07200  Biso   1.000  H
  H10      1.0000 0.90660  0.44500  0.42800  Biso   1.000  H
  H11      1.0000 0.59340  0.94500  0.07200  Biso   1.000  H
  H12      1.0000 0.40660  0.94500  0.42800  Biso   1.000  H
  H13      1.0000 0.90660  0.55500  0.92800  Biso   1.000  H
  H14      1.0000 0.09340  0.55500  0.57200  Biso   1.000  H
  H15      1.0000 0.40660  0.05500  0.92800  Biso   1.000  H
  H16      1.0000 0.59340  0.05500  0.57200  Biso   1.000  H
  C33      1.0000 0.07810  0.31240  0.05990  Biso   1.000  C
  C34      1.0000 0.92190  0.31240  0.44010  Biso   1.000  C
  C35      1.0000 0.57810  0.81240  0.05990  Biso   1.000  C
  C36      1.0000 0.42190  0.81240  0.44010  Biso   1.000  C
  C37      1.0000 0.92190  0.68760  0.94010  Biso   1.000  C
  C38      1.0000 0.07810  0.68760  0.55990  Biso   1.000  C
  C39      1.0000 0.42190  0.18760  0.94010  Biso   1.000  C
  C40      1.0000 0.57810  0.18760  0.55990  Biso   1.000  C
  H17      1.0000 0.06010  0.30750  0.95050  Biso   1.000  H
  H18      1.0000 0.93990  0.30750  0.54950  Biso   1.000  H
  H19      1.0000 0.56010  0.80750  0.95050  Biso   1.000  H
  H20      1.0000 0.43990  0.80750  0.54950  Biso   1.000  H
  H21      1.0000 0.93990  0.69250  0.04950  Biso   1.000  H
  H22      1.0000 0.06010  0.69250  0.45050  Biso   1.000  H
  H23      1.0000 0.43990  0.19250  0.04950  Biso   1.000  H
  H24      1.0000 0.56010  0.19250  0.45050  Biso   1.000  H
  C41      1.0000 0.08400  0.23670  0.15080  Biso   1.000  C
  C42      1.0000 0.91600  0.23670  0.34920  Biso   1.000  C
  C43      1.0000 0.58400  0.73670  0.15080  Biso   1.000  C
  C44      1.0000 0.41600  0.73670  0.34920  Biso   1.000  C
  C45      1.0000 0.91600  0.76330  0.84920  Biso   1.000  C
  C46      1.0000 0.08400  0.76330  0.65080  Biso   1.000  C
  C47      1.0000 0.41600  0.26330  0.84920  Biso   1.000  C
  C48      1.0000 0.58400  0.26330  0.65080  Biso   1.000  C
  C49      1.0000 0.11230  0.24430  0.31430  Biso   1.000  C
  C50      1.0000 0.88770  0.24430  0.18570  Biso   1.000  C
  C51      1.0000 0.61230  0.74430  0.31430  Biso   1.000  C
  C52      1.0000 0.38770  0.74430  0.18570  Biso   1.000  C
  C53      1.0000 0.88770  0.75570  0.68570  Biso   1.000  C
  C54      1.0000 0.11230  0.75570  0.81430  Biso   1.000  C
  C55      1.0000 0.38770  0.25570  0.68570  Biso   1.000  C
  C56      1.0000 0.61230  0.25570  0.81430  Biso   1.000  C
  H25      1.0000 0.11560  0.19420  0.37470  Biso   1.000  H
  H26      1.0000 0.88440  0.19420  0.12530  Biso   1.000  H
  H27      1.0000 0.61560  0.69420  0.37470  Biso   1.000  H
  H28      1.0000 0.38440  0.69420  0.12530  Biso   1.000  H
  H29      1.0000 0.88440  0.80580  0.62530  Biso   1.000  H
  H30      1.0000 0.11560  0.80580  0.87470  Biso   1.000  H
  H31      1.0000 0.38440  0.30580  0.62530  Biso   1.000  H
  H32      1.0000 0.61560  0.30580  0.87470  Biso   1.000  H
  C57      1.0000 0.06110  0.14880  0.06810  Biso   1.000  C
  C58      1.0000 0.93890  0.14880  0.43190  Biso   1.000  C
  C59      1.0000 0.56110  0.64880  0.06810  Biso   1.000  C
  C60      1.0000 0.43890  0.64880  0.43190  Biso   1.000  C
  C61      1.0000 0.93890  0.85120  0.93190  Biso   1.000  C
  C62      1.0000 0.06110  0.85120  0.56810  Biso   1.000  C
  C63      1.0000 0.43890  0.35120  0.93190  Biso   1.000  C
  C64      1.0000 0.56110  0.35120  0.56810  Biso   1.000  C
  Cu1      1.0000 0.25000  0.25000  0.00000  Biso   1.000  Cu
  Cu2      1.0000 0.75000  0.25000  0.50000  Biso   1.000  Cu
  Cu3      1.0000 0.75000  0.75000  0.00000  Biso   1.000  Cu
  Cu4      1.0000 0.25000  0.75000  0.50000  Biso   1.000  Cu
  Ho1      1.0000 0.00000  0.96908  0.25000  Biso   1.000  Ho
  Ho2      1.0000 0.50000  0.46908  0.25000  Biso   1.000  Ho
  Ho3      1.0000 0.00000  0.03092  0.75000  Biso   1.000  Ho
  Ho4      1.0000 0.50000  0.53092  0.75000  Biso   1.000  Ho
  N1       1.0000 0.16440  0.27450  0.66110  Biso   1.000  N
  N2       1.0000 0.83560  0.27450  0.83890  Biso   1.000  N
  N3       1.0000 0.66440  0.77450  0.66110  Biso   1.000  N
  N4       1.0000 0.33560  0.77450  0.83890  Biso   1.000  N
  N5       1.0000 0.83560  0.72550  0.33890  Biso   1.000  N
  N6       1.0000 0.16440  0.72550  0.16110  Biso   1.000  N
  N7       1.0000 0.33560  0.22550  0.33890  Biso   1.000  N
  N8       1.0000 0.66440  0.22550  0.16110  Biso   1.000  N
  N9       1.0000 0.20830  0.31130  0.80690  Biso   1.000  N
  N10      1.0000 0.79170  0.31130  0.69310  Biso   1.000  N
  N11      1.0000 0.70830  0.81130  0.80690  Biso   1.000  N
  N12      1.0000 0.29170  0.81130  0.69310  Biso   1.000  N
  N13      1.0000 0.79170  0.68870  0.19310  Biso   1.000  N
  N14      1.0000 0.20830  0.68870  0.30690  Biso   1.000  N
  N15      1.0000 0.29170  0.18870  0.19310  Biso   1.000  N
  N16      1.0000 0.70830  0.18870  0.30690  Biso   1.000  N
  N17      1.0000 0.23840  0.39080  0.79600  Biso   1.000  N
  N18      1.0000 0.76160  0.39080  0.70400  Biso   1.000  N
  N19      1.0000 0.73840  0.89080  0.79600  Biso   1.000  N
  N20      1.0000 0.26160  0.89080  0.70400  Biso   1.000  N
  N21      1.0000 0.76160  0.60920  0.20400  Biso   1.000  N
  N22      1.0000 0.23840  0.60920  0.29600  Biso   1.000  N
  N23      1.0000 0.26160  0.10920  0.20400  Biso   1.000  N
  N24      1.0000 0.73840  0.10920  0.29600  Biso   1.000  N
  N25      1.0000 0.21580  0.40770  0.64270  Biso   1.000  N
  N26      1.0000 0.78420  0.40770  0.85730  Biso   1.000  N
  N27      1.0000 0.71580  0.90770  0.64270  Biso   1.000  N
  N28      1.0000 0.28420  0.90770  0.85730  Biso   1.000  N
  N29      1.0000 0.78420  0.59230  0.35730  Biso   1.000  N
  N30      1.0000 0.21580  0.59230  0.14270  Biso   1.000  N
  N31      1.0000 0.28420  0.09230  0.35730  Biso   1.000  N
  N32      1.0000 0.71580  0.09230  0.14270  Biso   1.000  N
  O1       1.0000 0.04520  0.08342  0.13660  Biso   1.000  O
  O2       1.0000 0.95480  0.08342  0.36340  Biso   1.000  O
  O3       1.0000 0.54520  0.58342  0.13660  Biso   1.000  O
  O4       1.0000 0.45480  0.58342  0.36340  Biso   1.000  O
  O5       1.0000 0.95480  0.91658  0.86340  Biso   1.000  O
  O6       1.0000 0.04520  0.91658  0.63660  Biso   1.000  O
  O7       1.0000 0.45480  0.41658  0.86340  Biso   1.000  O
  O8       1.0000 0.54520  0.41658  0.63660  Biso   1.000  O
  O9       1.0000 0.05930  0.14530  0.93140  Biso   1.000  O
  O10      1.0000 0.94070  0.14530  0.56860  Biso   1.000  O
  O11      1.0000 0.55930  0.64530  0.93140  Biso   1.000  O
  O12      1.0000 0.44070  0.64530  0.56860  Biso   1.000  O
  O13      1.0000 0.94070  0.85470  0.06860  Biso   1.000  O
  O14      1.0000 0.05930  0.85470  0.43140  Biso   1.000  O
  O15      1.0000 0.44070  0.35470  0.06860  Biso   1.000  O
  O16      1.0000 0.55930  0.35470  0.43140  Biso   1.000  O
  O17      1.0000 0.87410  0.90520  0.29550  Biso   1.000  O
  O18      1.0000 0.12590  0.90520  0.20450  Biso   1.000  O
  O19      1.0000 0.37410  0.40520  0.29550  Biso   1.000  O
  O20      1.0000 0.62590  0.40520  0.20450  Biso   1.000  O
  O21      1.0000 0.12590  0.09480  0.70450  Biso   1.000  O
  O22      1.0000 0.87410  0.09480  0.79550  Biso   1.000  O
  O23      1.0000 0.62590  0.59480  0.70450  Biso   1.000  O
  O24      1.0000 0.37410  0.59480  0.79550  Biso   1.000  O
  H33      1.0000 0.86260  0.93160  0.36240  Biso   1.000  H
  H34      1.0000 0.13740  0.93160  0.13760  Biso   1.000  H
  H35      1.0000 0.36260  0.43160  0.36240  Biso   1.000  H
  H36      1.0000 0.63740  0.43160  0.13760  Biso   1.000  H
  H37      1.0000 0.13740  0.06840  0.63760  Biso   1.000  H
  H38      1.0000 0.86260  0.06840  0.86240  Biso   1.000  H
  H39      1.0000 0.63740  0.56840  0.63760  Biso   1.000  H
  H40      1.0000 0.36260  0.56840  0.86240  Biso   1.000  H
  H41      1.0000 0.86830  0.85170  0.30340  Biso   1.000  H
  H42      1.0000 0.13170  0.85170  0.19660  Biso   1.000  H
  H43      1.0000 0.36830  0.35170  0.30340  Biso   1.000  H
  H44      1.0000 0.63170  0.35170  0.19660  Biso   1.000  H
  H45      1.0000 0.13170  0.14830  0.69660  Biso   1.000  H
  H46      1.0000 0.86830  0.14830  0.80340  Biso   1.000  H
  H47      1.0000 0.63170  0.64830  0.69660  Biso   1.000  H
  H48      1.0000 0.36830  0.64830  0.80340  Biso   1.000  H
  O25      1.0000 0.84640  0.01592  0.03970  Biso   1.000  O
  O26      1.0000 0.15360  0.01592  0.46030  Biso   1.000  O
  O27      1.0000 0.34640  0.51592  0.03970  Biso   1.000  O
  O28      1.0000 0.65360  0.51592  0.46030  Biso   1.000  O
  O29      1.0000 0.15360  0.98408  0.96030  Biso   1.000  O
  O30      1.0000 0.84640  0.98408  0.53970  Biso   1.000  O
  O31      1.0000 0.65360  0.48408  0.96030  Biso   1.000  O
  O32      1.0000 0.34640  0.48408  0.53970  Biso   1.000  O
  H49      1.0000 0.81630  0.03400  0.08590  Biso   1.000  H
  H50      1.0000 0.18370  0.03400  0.41410  Biso   1.000  H
  H51      1.0000 0.31630  0.53400  0.08590  Biso   1.000  H
  H52      1.0000 0.68370  0.53400  0.41410  Biso   1.000  H
  H53      1.0000 0.18370  0.96600  0.91410  Biso   1.000  H
  H54      1.0000 0.81630  0.96600  0.58590  Biso   1.000  H
  H55      1.0000 0.68370  0.46600  0.91410  Biso   1.000  H
  H56      1.0000 0.31630  0.46600  0.58590  Biso   1.000  H
  H57      1.0000 0.82190  0.97270  0.98430  Biso   1.000  H
  H58      1.0000 0.17810  0.97270  0.51570  Biso   1.000  H
  H59      1.0000 0.32190  0.47270  0.98430  Biso   1.000  H
  H60      1.0000 0.67810  0.47270  0.51570  Biso   1.000  H
  H61      1.0000 0.17810  0.02730  0.01570  Biso   1.000  H
  H62      1.0000 0.82190  0.02730  0.48430  Biso   1.000  H
  H63      1.0000 0.67810  0.52730  0.01570  Biso   1.000  H
  H64      1.0000 0.32190  0.52730  0.48430  Biso   1.000  H
