data_image0
_cell_length_a       11.822
_cell_length_b       14.135
_cell_length_c       11.582
_cell_angle_alpha    90
_cell_angle_beta     121.09
_cell_angle_gamma    90

_symmetry_space_group_name_H-M    "P 1"
_symmetry_int_tables_number       1

loop_
  _symmetry_equiv_pos_as_xyz
  'x, y, z'

loop_
  _atom_site_label
  _atom_site_occupancy
  _atom_site_fract_x
  _atom_site_fract_y
  _atom_site_fract_z
  _atom_site_thermal_displace_type
  _atom_site_B_iso_or_equiv
  _atom_site_type_symbol
  Cu1      1.0000 0.43750  0.11560  0.13310  Biso   1.000  Cu
  Cu2      1.0000 0.56250  0.61560  0.36690  Biso   1.000  Cu
  Cu3      1.0000 0.56250  0.88440  0.86690  Biso   1.000  Cu
  Cu4      1.0000 0.43750  0.38440  0.63310  Biso   1.000  Cu
  N1       1.0000 0.60800  0.04900  0.22100  Biso   1.000  N
  N2       1.0000 0.39200  0.54900  0.27900  Biso   1.000  N
  N3       1.0000 0.39200  0.95100  0.77900  Biso   1.000  N
  N4       1.0000 0.60800  0.45100  0.72100  Biso   1.000  N
  C1       1.0000 0.71500  0.01400  0.26400  Biso   1.000  C
  C2       1.0000 0.28500  0.51400  0.23600  Biso   1.000  C
  C3       1.0000 0.28500  0.98600  0.73600  Biso   1.000  C
  C4       1.0000 0.71500  0.48600  0.76400  Biso   1.000  C
  N5       1.0000 0.82300  0.97600  0.29900  Biso   1.000  N
  N6       1.0000 0.17700  0.47600  0.20100  Biso   1.000  N
  N7       1.0000 0.17700  0.02400  0.70100  Biso   1.000  N
  N8       1.0000 0.82300  0.52400  0.79900  Biso   1.000  N
  C5       1.0000 0.88400  0.91800  0.40200  Biso   1.000  C
  C6       1.0000 0.11600  0.41800  0.09800  Biso   1.000  C
  C7       1.0000 0.11600  0.08200  0.59800  Biso   1.000  C
  C8       1.0000 0.88400  0.58200  0.90200  Biso   1.000  C
  N9       1.0000 0.83300  0.89800  0.48300  Biso   1.000  N
  N10      1.0000 0.16700  0.39800  0.01700  Biso   1.000  N
  N11      1.0000 0.16700  0.10200  0.51700  Biso   1.000  N
  N12      1.0000 0.83300  0.60200  0.98300  Biso   1.000  N
  N13      1.0000 0.99100  0.87700  0.42900  Biso   1.000  N
  N14      1.0000 0.00900  0.37700  0.07100  Biso   1.000  N
  N15      1.0000 0.00900  0.12300  0.57100  Biso   1.000  N
  N16      1.0000 0.99100  0.62300  0.92900  Biso   1.000  N
  N17      1.0000 0.28100  0.03800  0.05100  Biso   1.000  N
  N18      1.0000 0.71900  0.53800  0.44900  Biso   1.000  N
  N19      1.0000 0.71900  0.96200  0.94900  Biso   1.000  N
  N20      1.0000 0.28100  0.46200  0.55100  Biso   1.000  N
  C9       1.0000 0.19200  0.99100  0.98700  Biso   1.000  C
  C10      1.0000 0.80800  0.49100  0.51300  Biso   1.000  C
  C11      1.0000 0.80800  0.00900  0.01300  Biso   1.000  C
  C12      1.0000 0.19200  0.50900  0.48700  Biso   1.000  C
  C13      1.0000 0.07700  0.93000  0.90200  Biso   1.000  C
  C14      1.0000 0.92300  0.43000  0.59800  Biso   1.000  C
  C15      1.0000 0.92300  0.07000  0.09800  Biso   1.000  C
  C16      1.0000 0.07700  0.57000  0.40200  Biso   1.000  C
  N21      1.0000 0.43000  0.19200  0.97400  Biso   1.000  N
  N22      1.0000 0.57000  0.69200  0.52600  Biso   1.000  N
  N23      1.0000 0.57000  0.80800  0.02600  Biso   1.000  N
  N24      1.0000 0.43000  0.30800  0.47400  Biso   1.000  N
  C17      1.0000 0.31900  0.22500  0.87100  Biso   1.000  C
  C18      1.0000 0.68100  0.72500  0.62900  Biso   1.000  C
  C19      1.0000 0.68100  0.77500  0.12900  Biso   1.000  C
  C20      1.0000 0.31900  0.27500  0.37100  Biso   1.000  C
  C21      1.0000 0.31900  0.27700  0.76900  Biso   1.000  C
  C22      1.0000 0.68100  0.77700  0.73100  Biso   1.000  C
  C23      1.0000 0.68100  0.72300  0.23100  Biso   1.000  C
  C24      1.0000 0.31900  0.22300  0.26900  Biso   1.000  C
  N25      1.0000 0.42900  0.20300  0.27300  Biso   1.000  N
  N26      1.0000 0.57100  0.70300  0.22700  Biso   1.000  N
  N27      1.0000 0.57100  0.79700  0.72700  Biso   1.000  N
  N28      1.0000 0.42900  0.29700  0.77300  Biso   1.000  N
  C25      1.0000 0.54200  0.26500  0.87600  Biso   1.000  C
  C26      1.0000 0.45800  0.76500  0.62400  Biso   1.000  C
  C27      1.0000 0.45800  0.73500  0.12400  Biso   1.000  C
  C28      1.0000 0.54200  0.23500  0.37600  Biso   1.000  C
  C29      1.0000 0.54300  0.21300  0.98100  Biso   1.000  C
  C30      1.0000 0.45700  0.71300  0.51900  Biso   1.000  C
  C31      1.0000 0.45700  0.78700  0.01900  Biso   1.000  C
  C32      1.0000 0.54300  0.28700  0.48100  Biso   1.000  C
  N29      1.0000 0.39800  0.46000  0.01000  Biso   1.000  N
  N30      1.0000 0.60200  0.96000  0.49000  Biso   1.000  N
  N31      1.0000 0.60200  0.54000  0.99000  Biso   1.000  N
  N32      1.0000 0.39800  0.04000  0.51000  Biso   1.000  N
  C33      1.0000 0.52300  0.44900  0.10300  Biso   1.000  C
  C34      1.0000 0.47700  0.94900  0.39700  Biso   1.000  C
  C35      1.0000 0.47700  0.55100  0.89700  Biso   1.000  C
  C36      1.0000 0.52300  0.05100  0.60300  Biso   1.000  C
  C37      1.0000 0.37500  0.51700  0.90700  Biso   1.000  C
  C38      1.0000 0.62500  0.01700  0.59300  Biso   1.000  C
  C39      1.0000 0.62500  0.48300  0.09300  Biso   1.000  C
  C40      1.0000 0.37500  0.98300  0.40700  Biso   1.000  C
  B1       1.0000 0.89700  0.29200  0.28900  Biso   1.000  B
  B2       1.0000 0.10300  0.79200  0.21100  Biso   1.000  B
  B3       1.0000 0.10300  0.70800  0.71100  Biso   1.000  B
  B4       1.0000 0.89700  0.20800  0.78900  Biso   1.000  B
  F1       1.0000 0.82900  0.28600  0.15300  Biso   1.000  F
  F2       1.0000 0.17100  0.78600  0.34700  Biso   1.000  F
  F3       1.0000 0.17100  0.71400  0.84700  Biso   1.000  F
  F4       1.0000 0.82900  0.21400  0.65300  Biso   1.000  F
  F5       1.0000 0.92100  0.38500  0.30400  Biso   1.000  F
  F6       1.0000 0.07900  0.88500  0.19600  Biso   1.000  F
  F7       1.0000 0.07900  0.61500  0.69600  Biso   1.000  F
  F8       1.0000 0.92100  0.11500  0.80400  Biso   1.000  F
  F9       1.0000 0.82700  0.26200  0.33600  Biso   1.000  F
  F10      1.0000 0.17300  0.76200  0.16400  Biso   1.000  F
  F11      1.0000 0.17300  0.73800  0.66400  Biso   1.000  F
  F12      1.0000 0.82700  0.23800  0.83600  Biso   1.000  F
  F13      1.0000 0.01200  0.25200  0.33400  Biso   1.000  F
  F14      1.0000 0.98800  0.75200  0.16600  Biso   1.000  F
  F15      1.0000 0.98800  0.74800  0.66600  Biso   1.000  F
  F16      1.0000 0.01200  0.24800  0.83400  Biso   1.000  F
  H1       1.0000 0.23000  0.20000  0.84000  Biso   1.000  H
  H2       1.0000 0.77000  0.70000  0.66000  Biso   1.000  H
  H3       1.0000 0.77000  0.80000  0.16000  Biso   1.000  H
  H4       1.0000 0.23000  0.30000  0.34000  Biso   1.000  H
  H5       1.0000 0.23000  0.30000  0.68000  Biso   1.000  H
  H6       1.0000 0.77000  0.80000  0.82000  Biso   1.000  H
  H7       1.0000 0.77000  0.70000  0.32000  Biso   1.000  H
  H8       1.0000 0.23000  0.20000  0.18000  Biso   1.000  H
  H9       1.0000 0.64000  0.29000  0.92000  Biso   1.000  H
  H10      1.0000 0.36000  0.79000  0.58000  Biso   1.000  H
  H11      1.0000 0.36000  0.71000  0.08000  Biso   1.000  H
  H12      1.0000 0.64000  0.21000  0.42000  Biso   1.000  H
  H13      1.0000 0.64000  0.19000  0.07000  Biso   1.000  H
  H14      1.0000 0.36000  0.69000  0.43000  Biso   1.000  H
  H15      1.0000 0.36000  0.81000  0.93000  Biso   1.000  H
  H16      1.0000 0.64000  0.31000  0.57000  Biso   1.000  H
  H17      1.0000 0.58000  0.40000  0.19000  Biso   1.000  H
  H18      1.0000 0.42000  0.90000  0.31000  Biso   1.000  H
  H19      1.0000 0.42000  0.60000  0.81000  Biso   1.000  H
  H20      1.0000 0.58000  0.10000  0.69000  Biso   1.000  H
  H21      1.0000 0.27000  0.52000  0.83000  Biso   1.000  H
  H22      1.0000 0.73000  0.02000  0.67000  Biso   1.000  H
  H23      1.0000 0.73000  0.48000  0.17000  Biso   1.000  H
  H24      1.0000 0.27000  0.98000  0.33000  Biso   1.000  H
  H25      1.0000 0.75200  0.92700  0.46900  Biso   1.000  H
  H26      1.0000 0.24800  0.42700  0.03100  Biso   1.000  H
  H27      1.0000 0.24800  0.07300  0.53100  Biso   1.000  H
  H28      1.0000 0.75200  0.57300  0.96900  Biso   1.000  H
  H29      1.0000 0.88500  0.85300  0.56200  Biso   1.000  H
  H30      1.0000 0.11500  0.35300  0.93800  Biso   1.000  H
  H31      1.0000 0.11500  0.14700  0.43800  Biso   1.000  H
  H32      1.0000 0.88500  0.64700  0.06200  Biso   1.000  H
  H33      1.0000 0.03200  0.83100  0.51000  Biso   1.000  H
  H34      1.0000 0.96800  0.33100  0.99000  Biso   1.000  H
  H35      1.0000 0.96800  0.16900  0.49000  Biso   1.000  H
  H36      1.0000 0.03200  0.66900  0.01000  Biso   1.000  H
  H37      1.0000 0.03100  0.88500  0.37500  Biso   1.000  H
  H38      1.0000 0.96900  0.38500  0.12500  Biso   1.000  H
  H39      1.0000 0.96900  0.11500  0.62500  Biso   1.000  H
  H40      1.0000 0.03100  0.61500  0.87500  Biso   1.000  H
  H41      1.0000 0.10300  0.86300  0.92000  Biso   1.000  H
  H42      1.0000 0.89700  0.36300  0.58000  Biso   1.000  H
  H43      1.0000 0.89700  0.13700  0.08000  Biso   1.000  H
  H44      1.0000 0.10300  0.63700  0.42000  Biso   1.000  H
  H45      1.0000 0.03400  0.94700  0.80800  Biso   1.000  H
  H46      1.0000 0.96600  0.44700  0.69200  Biso   1.000  H
  H47      1.0000 0.96600  0.05300  0.19200  Biso   1.000  H
  H48      1.0000 0.03400  0.55300  0.30800  Biso   1.000  H
  H49      1.0000 0.00900  0.94200  0.93500  Biso   1.000  H
  H50      1.0000 0.99100  0.44200  0.56500  Biso   1.000  H
  H51      1.0000 0.99100  0.05800  0.06500  Biso   1.000  H
  H52      1.0000 0.00900  0.55800  0.43500  Biso   1.000  H
