data_image0
_cell_length_a       17.677
_cell_length_b       9.812
_cell_length_c       32.145
_cell_angle_alpha    90
_cell_angle_beta     103.625
_cell_angle_gamma    90

_symmetry_space_group_name_H-M    "P 1"
_symmetry_int_tables_number       1

loop_
  _symmetry_equiv_pos_as_xyz
  'x, y, z'

loop_
  _atom_site_label
  _atom_site_occupancy
  _atom_site_fract_x
  _atom_site_fract_y
  _atom_site_fract_z
  _atom_site_thermal_displace_type
  _atom_site_B_iso_or_equiv
  _atom_site_type_symbol
  Tb1      1.0000 0.00000  0.38889  0.25000  Biso   1.000  Tb
  Tb2      1.0000 0.00000  0.61111  0.75000  Biso   1.000  Tb
  Tb3      1.0000 0.00000  0.85171  0.25000  Biso   1.000  Tb
  Tb4      1.0000 0.00000  0.14829  0.75000  Biso   1.000  Tb
  Tb5      1.0000 0.98746  0.31250  0.44229  Biso   1.000  Tb
  Tb6      1.0000 0.01254  0.31250  0.05771  Biso   1.000  Tb
  Tb7      1.0000 0.01254  0.68750  0.55771  Biso   1.000  Tb
  Tb8      1.0000 0.98746  0.68750  0.94229  Biso   1.000  Tb
  Cu1      1.0000 0.49021  0.02040  0.33021  Biso   1.000  Cu
  Cu2      1.0000 0.50979  0.02040  0.16979  Biso   1.000  Cu
  Cu3      1.0000 0.50979  0.97960  0.66979  Biso   1.000  Cu
  Cu4      1.0000 0.49021  0.97960  0.83021  Biso   1.000  Cu
  Cu5      1.0000 0.53612  0.51540  0.29780  Biso   1.000  Cu
  Cu6      1.0000 0.46388  0.51540  0.20220  Biso   1.000  Cu
  Cu7      1.0000 0.46388  0.48460  0.70220  Biso   1.000  Cu
  Cu8      1.0000 0.53612  0.48460  0.79780  Biso   1.000  Cu
  Cu9      1.0000 0.45659  0.60991  0.42477  Biso   1.000  Cu
  Cu10     1.0000 0.54341  0.60991  0.07523  Biso   1.000  Cu
  Cu11     1.0000 0.54341  0.39009  0.57523  Biso   1.000  Cu
  Cu12     1.0000 0.45659  0.39009  0.92477  Biso   1.000  Cu
  Cu13     1.0000 0.49799  0.23886  0.47962  Biso   1.000  Cu
  Cu14     1.0000 0.50201  0.23886  0.02038  Biso   1.000  Cu
  Cu15     1.0000 0.50201  0.76114  0.52038  Biso   1.000  Cu
  Cu16     1.0000 0.49799  0.76114  0.97962  Biso   1.000  Cu
  Cu17     1.0000 0.45054  0.30573  0.62515  Biso   1.000  Cu
  Cu18     1.0000 0.54946  0.30573  0.87485  Biso   1.000  Cu
  Cu19     1.0000 0.54946  0.69427  0.37485  Biso   1.000  Cu
  Cu20     1.0000 0.45054  0.69427  0.12515  Biso   1.000  Cu
  Br1      1.0000 0.48008  0.74654  0.30352  Biso   1.000  Br
  Br2      1.0000 0.51992  0.74654  0.19648  Biso   1.000  Br
  Br3      1.0000 0.51992  0.25346  0.69648  Biso   1.000  Br
  Br4      1.0000 0.48008  0.25346  0.80352  Biso   1.000  Br
  Br5      1.0000 0.50000  0.31812  0.25000  Biso   1.000  Br
  Br6      1.0000 0.50000  0.68188  0.75000  Biso   1.000  Br
  Br7      1.0000 0.50614  0.42964  0.37904  Biso   1.000  Br
  Br8      1.0000 0.49386  0.42964  0.12096  Biso   1.000  Br
  Br9      1.0000 0.49386  0.57036  0.62096  Biso   1.000  Br
  Br10     1.0000 0.50614  0.57036  0.87904  Biso   1.000  Br
  Br11     1.0000 0.50000  0.50000  0.50000  Biso   1.000  Br
  Br12     1.0000 0.50000  0.50000  0.00000  Biso   1.000  Br
  Br13     1.0000 0.49715  0.14730  0.57157  Biso   1.000  Br
  Br14     1.0000 0.50285  0.14730  0.92843  Biso   1.000  Br
  Br15     1.0000 0.50285  0.85270  0.42843  Biso   1.000  Br
  Br16     1.0000 0.49715  0.85270  0.07157  Biso   1.000  Br
  O1       1.0000 0.11120  0.24750  0.26502  Biso   1.000  O
  O2       1.0000 0.88880  0.24750  0.23498  Biso   1.000  O
  O3       1.0000 0.88880  0.75250  0.73498  Biso   1.000  O
  O4       1.0000 0.11120  0.75250  0.76502  Biso   1.000  O
  O5       1.0000 0.09130  0.02240  0.26405  Biso   1.000  O
  O6       1.0000 0.90870  0.02240  0.23595  Biso   1.000  O
  O7       1.0000 0.90870  0.97760  0.73595  Biso   1.000  O
  O8       1.0000 0.09130  0.97760  0.76405  Biso   1.000  O
  O9       1.0000 0.08130  0.73100  0.30735  Biso   1.000  O
  O10      1.0000 0.91870  0.73100  0.19265  Biso   1.000  O
  O11      1.0000 0.91870  0.26900  0.69265  Biso   1.000  O
  O12      1.0000 0.08130  0.26900  0.80735  Biso   1.000  O
  O13      1.0000 0.91510  0.50380  0.19430  Biso   1.000  O
  O14      1.0000 0.08490  0.50380  0.30570  Biso   1.000  O
  O15      1.0000 0.08490  0.49620  0.80570  Biso   1.000  O
  O16      1.0000 0.91510  0.49620  0.69430  Biso   1.000  O
  O17      1.0000 0.12080  0.12080  0.36431  Biso   1.000  O
  O18      1.0000 0.87920  0.12080  0.13569  Biso   1.000  O
  O19      1.0000 0.87920  0.87920  0.63569  Biso   1.000  O
  O20      1.0000 0.12080  0.87920  0.86431  Biso   1.000  O
  O21      1.0000 0.09280  0.23410  0.41878  Biso   1.000  O
  O22      1.0000 0.90720  0.23410  0.08122  Biso   1.000  O
  O23      1.0000 0.90720  0.76590  0.58122  Biso   1.000  O
  O24      1.0000 0.09280  0.76590  0.91878  Biso   1.000  O
  O25      1.0000 0.93560  0.51740  0.45603  Biso   1.000  O
  O26      1.0000 0.06440  0.51740  0.04397  Biso   1.000  O
  O27      1.0000 0.06440  0.48260  0.54397  Biso   1.000  O
  O28      1.0000 0.93560  0.48260  0.95603  Biso   1.000  O
  O29      1.0000 0.06430  0.28200  0.51144  Biso   1.000  O
  O30      1.0000 0.93570  0.28200  0.98856  Biso   1.000  O
  O31      1.0000 0.93570  0.71800  0.48856  Biso   1.000  O
  O32      1.0000 0.06430  0.71800  0.01144  Biso   1.000  O
  O33      1.0000 0.87550  0.13220  0.33150  Biso   1.000  O
  O34      1.0000 0.12450  0.13220  0.16850  Biso   1.000  O
  O35      1.0000 0.12450  0.86780  0.66850  Biso   1.000  O
  O36      1.0000 0.87550  0.86780  0.83150  Biso   1.000  O
  O37      1.0000 0.87450  0.23500  0.39337  Biso   1.000  O
  O38      1.0000 0.12550  0.23500  0.10663  Biso   1.000  O
  O39      1.0000 0.12550  0.76500  0.60663  Biso   1.000  O
  O40      1.0000 0.87450  0.76500  0.89337  Biso   1.000  O
  O41      1.0000 0.90010  0.74630  0.27702  Biso   1.000  O
  O42      1.0000 0.09990  0.74630  0.22298  Biso   1.000  O
  O43      1.0000 0.09990  0.25370  0.72298  Biso   1.000  O
  O44      1.0000 0.90010  0.25370  0.77702  Biso   1.000  O
  O45      1.0000 0.92230  0.52250  0.28220  Biso   1.000  O
  O46      1.0000 0.07770  0.52250  0.21780  Biso   1.000  O
  O47      1.0000 0.07770  0.47750  0.71780  Biso   1.000  O
  O48      1.0000 0.92230  0.47750  0.78220  Biso   1.000  O
  O49      1.0000 0.89270  0.26780  0.48579  Biso   1.000  O
  O50      1.0000 0.10730  0.26780  0.01421  Biso   1.000  O
  O51      1.0000 0.10730  0.73220  0.51421  Biso   1.000  O
  O52      1.0000 0.89270  0.73220  0.98579  Biso   1.000  O
  O53      1.0000 0.88010  0.04670  0.49770  Biso   1.000  O
  O54      1.0000 0.11990  0.04670  0.00230  Biso   1.000  O
  O55      1.0000 0.11990  0.95330  0.50230  Biso   1.000  O
  O56      1.0000 0.88010  0.95330  0.99770  Biso   1.000  O
  O57      1.0000 0.00340  0.27530  0.18356  Biso   1.000  O
  O58      1.0000 0.99660  0.27530  0.31644  Biso   1.000  O
  O59      1.0000 0.99660  0.72470  0.81644  Biso   1.000  O
  O60      1.0000 0.00340  0.72470  0.68356  Biso   1.000  O
  H1       1.0000 0.04100  0.21920  0.18950  Biso   1.000  H
  H2       1.0000 0.95900  0.21920  0.31050  Biso   1.000  H
  H3       1.0000 0.95900  0.78080  0.81050  Biso   1.000  H
  H4       1.0000 0.04100  0.78080  0.68950  Biso   1.000  H
  H5       1.0000 0.96230  0.23860  0.16870  Biso   1.000  H
  H6       1.0000 0.03770  0.23860  0.33130  Biso   1.000  H
  H7       1.0000 0.03770  0.76140  0.83130  Biso   1.000  H
  H8       1.0000 0.96230  0.76140  0.66870  Biso   1.000  H
  O61      1.0000 0.00470  0.94540  0.17632  Biso   1.000  O
  O62      1.0000 0.99530  0.94540  0.32368  Biso   1.000  O
  O63      1.0000 0.99530  0.05460  0.82368  Biso   1.000  O
  O64      1.0000 0.00470  0.05460  0.67632  Biso   1.000  O
  H9       1.0000 0.04030  0.00560  0.17970  Biso   1.000  H
  H10      1.0000 0.95970  0.00560  0.32030  Biso   1.000  H
  H11      1.0000 0.95970  0.99440  0.82030  Biso   1.000  H
  H12      1.0000 0.04030  0.99440  0.67970  Biso   1.000  H
  H13      1.0000 0.96110  0.96210  0.15930  Biso   1.000  H
  H14      1.0000 0.03890  0.96210  0.34070  Biso   1.000  H
  H15      1.0000 0.03890  0.03790  0.84070  Biso   1.000  H
  H16      1.0000 0.96110  0.03790  0.65930  Biso   1.000  H
  O65      1.0000 0.97970  0.45850  0.38092  Biso   1.000  O
  O66      1.0000 0.02030  0.45850  0.11908  Biso   1.000  O
  O67      1.0000 0.02030  0.54150  0.61908  Biso   1.000  O
  O68      1.0000 0.97970  0.54150  0.88092  Biso   1.000  O
  H17      1.0000 0.00530  0.44020  0.36230  Biso   1.000  H
  H18      1.0000 0.99470  0.44020  0.13770  Biso   1.000  H
  H19      1.0000 0.99470  0.55980  0.63770  Biso   1.000  H
  H20      1.0000 0.00530  0.55980  0.86230  Biso   1.000  H
  H21      1.0000 0.95250  0.52580  0.36930  Biso   1.000  H
  H22      1.0000 0.04750  0.52580  0.13070  Biso   1.000  H
  H23      1.0000 0.04750  0.47420  0.63070  Biso   1.000  H
  H24      1.0000 0.95250  0.47420  0.86930  Biso   1.000  H
  O69      1.0000 0.09860  0.49690  0.45695  Biso   1.000  O
  O70      1.0000 0.90140  0.49690  0.04305  Biso   1.000  O
  O71      1.0000 0.90140  0.50310  0.54305  Biso   1.000  O
  O72      1.0000 0.09860  0.50310  0.95695  Biso   1.000  O
  H25      1.0000 0.11370  0.56360  0.44410  Biso   1.000  H
  H26      1.0000 0.88630  0.56360  0.05590  Biso   1.000  H
  H27      1.0000 0.88630  0.43640  0.55590  Biso   1.000  H
  H28      1.0000 0.11370  0.43640  0.94410  Biso   1.000  H
  H29      1.0000 0.08440  0.54650  0.47570  Biso   1.000  H
  H30      1.0000 0.91560  0.54650  0.02430  Biso   1.000  H
  H31      1.0000 0.91560  0.45350  0.52430  Biso   1.000  H
  H32      1.0000 0.08440  0.45350  0.97570  Biso   1.000  H
  O73      1.0000 0.98910  0.06630  0.44842  Biso   1.000  O
  O74      1.0000 0.01090  0.06630  0.05158  Biso   1.000  O
  O75      1.0000 0.01090  0.93370  0.55158  Biso   1.000  O
  O76      1.0000 0.98910  0.93370  0.94842  Biso   1.000  O
  H33      1.0000 0.02540  0.04160  0.46940  Biso   1.000  H
  H34      1.0000 0.97460  0.04160  0.03060  Biso   1.000  H
  H35      1.0000 0.97460  0.95840  0.53060  Biso   1.000  H
  H36      1.0000 0.02540  0.95840  0.96940  Biso   1.000  H
  H37      1.0000 0.94690  0.03700  0.45350  Biso   1.000  H
  H38      1.0000 0.05310  0.03700  0.04650  Biso   1.000  H
  H39      1.0000 0.05310  0.96300  0.54650  Biso   1.000  H
  H40      1.0000 0.94690  0.96300  0.95350  Biso   1.000  H
  O77      1.0000 0.00120  0.74260  0.39030  Biso   1.000  O
  O78      1.0000 0.99880  0.74260  0.10970  Biso   1.000  O
  O79      1.0000 0.99880  0.25740  0.60970  Biso   1.000  O
  O80      1.0000 0.00120  0.25740  0.89030  Biso   1.000  O
  H41      1.0000 0.01710  0.76200  0.36800  Biso   1.000  H
  H42      1.0000 0.98290  0.76200  0.13200  Biso   1.000  H
  H43      1.0000 0.98290  0.23800  0.63200  Biso   1.000  H
  H44      1.0000 0.01710  0.23800  0.86800  Biso   1.000  H
  H45      1.0000 0.98540  0.66330  0.38190  Biso   1.000  H
  H46      1.0000 0.01460  0.66330  0.11810  Biso   1.000  H
  H47      1.0000 0.01460  0.33670  0.61810  Biso   1.000  H
  H48      1.0000 0.98540  0.33670  0.88190  Biso   1.000  H
  N1       1.0000 0.37840  0.05080  0.31480  Biso   1.000  N
  N2       1.0000 0.62160  0.05080  0.18520  Biso   1.000  N
  N3       1.0000 0.62160  0.94920  0.68520  Biso   1.000  N
  N4       1.0000 0.37840  0.94920  0.81480  Biso   1.000  N
  N5       1.0000 0.33960  0.61180  0.40290  Biso   1.000  N
  N6       1.0000 0.66040  0.61180  0.09710  Biso   1.000  N
  N7       1.0000 0.66040  0.38820  0.59710  Biso   1.000  N
  N8       1.0000 0.33960  0.38820  0.90290  Biso   1.000  N
  N9       1.0000 0.38570  0.21260  0.45680  Biso   1.000  N
  N10      1.0000 0.61430  0.21260  0.04320  Biso   1.000  N
  N11      1.0000 0.61430  0.78740  0.54320  Biso   1.000  N
  N12      1.0000 0.38570  0.78740  0.95680  Biso   1.000  N
  N13      1.0000 0.33520  0.31660  0.60220  Biso   1.000  N
  N14      1.0000 0.66480  0.31660  0.89780  Biso   1.000  N
  N15      1.0000 0.66480  0.68340  0.39780  Biso   1.000  N
  N16      1.0000 0.33520  0.68340  0.10220  Biso   1.000  N
  N17      1.0000 0.59950  0.07060  0.34040  Biso   1.000  N
  N18      1.0000 0.40050  0.07060  0.15960  Biso   1.000  N
  N19      1.0000 0.40050  0.92940  0.65960  Biso   1.000  N
  N20      1.0000 0.59950  0.92940  0.84040  Biso   1.000  N
  N21      1.0000 0.64860  0.55140  0.29550  Biso   1.000  N
  N22      1.0000 0.35140  0.55140  0.20450  Biso   1.000  N
  N23      1.0000 0.35140  0.44860  0.70450  Biso   1.000  N
  N24      1.0000 0.64860  0.44860  0.79550  Biso   1.000  N
  N25      1.0000 0.60990  0.21710  0.48630  Biso   1.000  N
  N26      1.0000 0.39010  0.21710  0.01370  Biso   1.000  N
  N27      1.0000 0.39010  0.78290  0.51370  Biso   1.000  N
  N28      1.0000 0.60990  0.78290  0.98630  Biso   1.000  N
  C1       1.0000 0.35240  0.17930  0.30640  Biso   1.000  C
  C2       1.0000 0.64760  0.17930  0.19360  Biso   1.000  C
  C3       1.0000 0.64760  0.82070  0.69360  Biso   1.000  C
  C4       1.0000 0.35240  0.82070  0.80640  Biso   1.000  C
  H49      1.0000 0.38810  0.25040  0.31040  Biso   1.000  H
  H50      1.0000 0.61190  0.25040  0.18960  Biso   1.000  H
  H51      1.0000 0.61190  0.74960  0.68960  Biso   1.000  H
  H52      1.0000 0.38810  0.74960  0.81040  Biso   1.000  H
  C5       1.0000 0.27260  0.20900  0.29190  Biso   1.000  C
  C6       1.0000 0.72740  0.20900  0.20810  Biso   1.000  C
  C7       1.0000 0.72740  0.79100  0.70810  Biso   1.000  C
  C8       1.0000 0.27260  0.79100  0.79190  Biso   1.000  C
  H53      1.0000 0.25560  0.29850  0.28670  Biso   1.000  H
  H54      1.0000 0.74440  0.29850  0.21330  Biso   1.000  H
  H55      1.0000 0.74440  0.70150  0.71330  Biso   1.000  H
  H56      1.0000 0.25560  0.70150  0.78670  Biso   1.000  H
  C9       1.0000 0.22050  0.10320  0.28560  Biso   1.000  C
  C10      1.0000 0.77950  0.10320  0.21440  Biso   1.000  C
  C11      1.0000 0.77950  0.89680  0.71440  Biso   1.000  C
  C12      1.0000 0.22050  0.89680  0.78560  Biso   1.000  C
  C13      1.0000 0.24870  0.97210  0.29420  Biso   1.000  C
  C14      1.0000 0.75130  0.97210  0.20580  Biso   1.000  C
  C15      1.0000 0.75130  0.02790  0.70580  Biso   1.000  C
  C16      1.0000 0.24870  0.02790  0.79420  Biso   1.000  C
  H57      1.0000 0.21460  0.89860  0.28990  Biso   1.000  H
  H58      1.0000 0.78540  0.89860  0.21010  Biso   1.000  H
  H59      1.0000 0.78540  0.10140  0.71010  Biso   1.000  H
  H60      1.0000 0.21460  0.10140  0.78990  Biso   1.000  H
  C17      1.0000 0.32720  0.95080  0.30910  Biso   1.000  C
  C18      1.0000 0.67280  0.95080  0.19090  Biso   1.000  C
  C19      1.0000 0.67280  0.04920  0.69090  Biso   1.000  C
  C20      1.0000 0.32720  0.04920  0.80910  Biso   1.000  C
  H61      1.0000 0.34490  0.86230  0.31540  Biso   1.000  H
  H62      1.0000 0.65510  0.86230  0.18460  Biso   1.000  H
  H63      1.0000 0.65510  0.13770  0.68460  Biso   1.000  H
  H64      1.0000 0.34490  0.13770  0.81540  Biso   1.000  H
  C21      1.0000 0.13390  0.12590  0.27020  Biso   1.000  C
  C22      1.0000 0.86610  0.12590  0.22980  Biso   1.000  C
  C23      1.0000 0.86610  0.87410  0.72980  Biso   1.000  C
  C24      1.0000 0.13390  0.87410  0.77020  Biso   1.000  C
  C25      1.0000 0.29660  0.72680  0.39800  Biso   1.000  C
  C26      1.0000 0.70340  0.72680  0.10200  Biso   1.000  C
  C27      1.0000 0.70340  0.27320  0.60200  Biso   1.000  C
  C28      1.0000 0.29660  0.27320  0.89800  Biso   1.000  C
  H65      1.0000 0.31860  0.80500  0.41230  Biso   1.000  H
  H66      1.0000 0.68140  0.80500  0.08770  Biso   1.000  H
  H67      1.0000 0.68140  0.19500  0.58770  Biso   1.000  H
  H68      1.0000 0.31860  0.19500  0.91230  Biso   1.000  H
  C29      1.0000 0.22150  0.73400  0.37300  Biso   1.000  C
  C30      1.0000 0.77850  0.73400  0.12700  Biso   1.000  C
  C31      1.0000 0.77850  0.26600  0.62700  Biso   1.000  C
  C32      1.0000 0.22150  0.26600  0.87300  Biso   1.000  C
  H69      1.0000 0.19380  0.81540  0.37040  Biso   1.000  H
  H70      1.0000 0.80620  0.81540  0.12960  Biso   1.000  H
  H71      1.0000 0.80620  0.18460  0.62960  Biso   1.000  H
  H72      1.0000 0.19380  0.18460  0.87040  Biso   1.000  H
  C33      1.0000 0.18800  0.61740  0.35170  Biso   1.000  C
  C34      1.0000 0.81200  0.61740  0.14830  Biso   1.000  C
  C35      1.0000 0.81200  0.38260  0.64830  Biso   1.000  C
  C36      1.0000 0.18800  0.38260  0.85170  Biso   1.000  C
  C37      1.0000 0.23060  0.49830  0.35830  Biso   1.000  C
  C38      1.0000 0.76940  0.49830  0.14170  Biso   1.000  C
  C39      1.0000 0.76940  0.50170  0.64170  Biso   1.000  C
  C40      1.0000 0.23060  0.50170  0.85830  Biso   1.000  C
  H73      1.0000 0.20910  0.41740  0.34570  Biso   1.000  H
  H74      1.0000 0.79090  0.41740  0.15430  Biso   1.000  H
  H75      1.0000 0.79090  0.58260  0.65430  Biso   1.000  H
  H76      1.0000 0.20910  0.58260  0.84570  Biso   1.000  H
  C41      1.0000 0.30530  0.50000  0.38360  Biso   1.000  C
  C42      1.0000 0.69470  0.50000  0.11640  Biso   1.000  C
  C43      1.0000 0.69470  0.50000  0.61640  Biso   1.000  C
  C44      1.0000 0.30530  0.50000  0.88360  Biso   1.000  C
  H77      1.0000 0.33330  0.41890  0.38750  Biso   1.000  H
  H78      1.0000 0.66670  0.41890  0.11250  Biso   1.000  H
  H79      1.0000 0.66670  0.58110  0.61250  Biso   1.000  H
  H80      1.0000 0.33330  0.58110  0.88750  Biso   1.000  H
  C45      1.0000 0.11070  0.61920  0.31900  Biso   1.000  C
  C46      1.0000 0.88930  0.61920  0.18100  Biso   1.000  C
  C47      1.0000 0.88930  0.38080  0.68100  Biso   1.000  C
  C48      1.0000 0.11070  0.38080  0.81900  Biso   1.000  C
  C49      1.0000 0.35800  0.13970  0.42110  Biso   1.000  C
  C50      1.0000 0.64200  0.13970  0.07890  Biso   1.000  C
  C51      1.0000 0.64200  0.86030  0.57890  Biso   1.000  C
  C52      1.0000 0.35800  0.86030  0.92110  Biso   1.000  C
  H81      1.0000 0.39340  0.09600  0.40830  Biso   1.000  H
  H82      1.0000 0.60660  0.09600  0.09170  Biso   1.000  H
  H83      1.0000 0.60660  0.90400  0.59170  Biso   1.000  H
  H84      1.0000 0.39340  0.90400  0.90830  Biso   1.000  H
  C53      1.0000 0.27970  0.12670  0.40250  Biso   1.000  C
  C54      1.0000 0.72030  0.12670  0.09750  Biso   1.000  C
  C55      1.0000 0.72030  0.87330  0.59750  Biso   1.000  C
  C56      1.0000 0.27970  0.87330  0.90250  Biso   1.000  C
  H85      1.0000 0.26340  0.07480  0.37780  Biso   1.000  H
  H86      1.0000 0.73660  0.07480  0.12220  Biso   1.000  H
  H87      1.0000 0.73660  0.92520  0.62220  Biso   1.000  H
  H88      1.0000 0.26340  0.92520  0.87780  Biso   1.000  H
  C57      1.0000 0.22530  0.19060  0.42050  Biso   1.000  C
  C58      1.0000 0.77470  0.19060  0.07950  Biso   1.000  C
  C59      1.0000 0.77470  0.80940  0.57950  Biso   1.000  C
  C60      1.0000 0.22530  0.80940  0.92050  Biso   1.000  C
  C61      1.0000 0.25360  0.26700  0.45760  Biso   1.000  C
  C62      1.0000 0.74640  0.26700  0.04240  Biso   1.000  C
  C63      1.0000 0.74640  0.73300  0.54240  Biso   1.000  C
  C64      1.0000 0.25360  0.73300  0.95760  Biso   1.000  C
  H89      1.0000 0.21930  0.31230  0.47080  Biso   1.000  H
  H90      1.0000 0.78070  0.31230  0.02920  Biso   1.000  H
  H91      1.0000 0.78070  0.68770  0.52920  Biso   1.000  H
  H92      1.0000 0.21930  0.68770  0.97080  Biso   1.000  H
  C65      1.0000 0.33260  0.27480  0.47450  Biso   1.000  C
  C66      1.0000 0.66740  0.27480  0.02550  Biso   1.000  C
  C67      1.0000 0.66740  0.72520  0.52550  Biso   1.000  C
  C68      1.0000 0.33260  0.72520  0.97450  Biso   1.000  C
  H93      1.0000 0.35040  0.32540  0.49930  Biso   1.000  H
  H94      1.0000 0.64960  0.32540  0.00070  Biso   1.000  H
  H95      1.0000 0.64960  0.67460  0.50070  Biso   1.000  H
  H96      1.0000 0.35040  0.67460  0.99930  Biso   1.000  H
  C69      1.0000 0.13940  0.18070  0.39960  Biso   1.000  C
  C70      1.0000 0.86060  0.18070  0.10040  Biso   1.000  C
  C71      1.0000 0.86060  0.81930  0.60040  Biso   1.000  C
  C72      1.0000 0.13940  0.81930  0.89960  Biso   1.000  C
  C73      1.0000 0.29830  0.43490  0.60420  Biso   1.000  C
  C74      1.0000 0.70170  0.43490  0.89580  Biso   1.000  C
  C75      1.0000 0.70170  0.56510  0.39580  Biso   1.000  C
  C76      1.0000 0.29830  0.56510  0.10420  Biso   1.000  C
  H97      1.0000 0.32660  0.50770  0.61860  Biso   1.000  H
  H98      1.0000 0.67340  0.50770  0.88140  Biso   1.000  H
  H99      1.0000 0.67340  0.49230  0.38140  Biso   1.000  H
  H100     1.0000 0.32660  0.49230  0.11860  Biso   1.000  H
  C77      1.0000 0.21920  0.45330  0.58570  Biso   1.000  C
  C78      1.0000 0.78080  0.45330  0.91430  Biso   1.000  C
  C79      1.0000 0.78080  0.54670  0.41430  Biso   1.000  C
  C80      1.0000 0.21920  0.54670  0.08570  Biso   1.000  C
  H101     1.0000 0.19530  0.53630  0.58800  Biso   1.000  H
  H102     1.0000 0.80470  0.53630  0.91200  Biso   1.000  H
  H103     1.0000 0.80470  0.46370  0.41200  Biso   1.000  H
  H104     1.0000 0.19530  0.46370  0.08800  Biso   1.000  H
  C81      1.0000 0.82260  0.65330  0.43610  Biso   1.000  C
  C82      1.0000 0.17740  0.65330  0.06390  Biso   1.000  C
  C83      1.0000 0.17740  0.34670  0.56390  Biso   1.000  C
  C84      1.0000 0.82260  0.34670  0.93610  Biso   1.000  C
  C85      1.0000 0.21430  0.22390  0.56230  Biso   1.000  C
  C86      1.0000 0.78570  0.22390  0.93770  Biso   1.000  C
  C87      1.0000 0.78570  0.77610  0.43770  Biso   1.000  C
  C88      1.0000 0.21430  0.77610  0.06230  Biso   1.000  C
  H105     1.0000 0.18710  0.14980  0.54810  Biso   1.000  H
  H106     1.0000 0.81290  0.14980  0.95190  Biso   1.000  H
  H107     1.0000 0.81290  0.85020  0.45190  Biso   1.000  H
  H108     1.0000 0.18710  0.85020  0.04810  Biso   1.000  H
  C89      1.0000 0.29240  0.21240  0.58220  Biso   1.000  C
  C90      1.0000 0.70760  0.21240  0.91780  Biso   1.000  C
  C91      1.0000 0.70760  0.78760  0.41780  Biso   1.000  C
  C92      1.0000 0.29240  0.78760  0.08220  Biso   1.000  C
  H109     1.0000 0.31650  0.12840  0.58170  Biso   1.000  H
  H110     1.0000 0.68350  0.12840  0.91830  Biso   1.000  H
  H111     1.0000 0.68350  0.87160  0.41830  Biso   1.000  H
  H112     1.0000 0.31650  0.87160  0.08170  Biso   1.000  H
  C93      1.0000 0.90430  0.62790  0.46150  Biso   1.000  C
  C94      1.0000 0.09570  0.62790  0.03850  Biso   1.000  C
  C95      1.0000 0.09570  0.37210  0.53850  Biso   1.000  C
  C96      1.0000 0.90430  0.37210  0.96150  Biso   1.000  C
  C97      1.0000 0.63890  0.03930  0.31120  Biso   1.000  C
  C98      1.0000 0.36110  0.03930  0.18880  Biso   1.000  C
  C99      1.0000 0.36110  0.96070  0.68880  Biso   1.000  C
  C100     1.0000 0.63890  0.96070  0.81120  Biso   1.000  C
  H113     1.0000 0.61300  0.99550  0.28630  Biso   1.000  H
  H114     1.0000 0.38700  0.99550  0.21370  Biso   1.000  H
  H115     1.0000 0.38700  0.00450  0.71370  Biso   1.000  H
  H116     1.0000 0.61300  0.00450  0.78630  Biso   1.000  H
  C101     1.0000 0.71730  0.06970  0.31680  Biso   1.000  C
  C102     1.0000 0.28270  0.06970  0.18320  Biso   1.000  C
  C103     1.0000 0.28270  0.93030  0.68320  Biso   1.000  C
  C104     1.0000 0.71730  0.93030  0.81680  Biso   1.000  C
  H117     1.0000 0.74320  0.04500  0.29590  Biso   1.000  H
  H118     1.0000 0.25680  0.04500  0.20410  Biso   1.000  H
  H119     1.0000 0.25680  0.95500  0.70410  Biso   1.000  H
  H120     1.0000 0.74320  0.95500  0.79590  Biso   1.000  H
  C105     1.0000 0.75700  0.13630  0.35320  Biso   1.000  C
  C106     1.0000 0.24300  0.13630  0.14680  Biso   1.000  C
  C107     1.0000 0.24300  0.86370  0.64680  Biso   1.000  C
  C108     1.0000 0.75700  0.86370  0.85320  Biso   1.000  C
  C109     1.0000 0.71520  0.17140  0.38300  Biso   1.000  C
  C110     1.0000 0.28480  0.17140  0.11700  Biso   1.000  C
  C111     1.0000 0.28480  0.82860  0.61700  Biso   1.000  C
  C112     1.0000 0.71520  0.82860  0.88300  Biso   1.000  C
  H121     1.0000 0.73920  0.21720  0.40790  Biso   1.000  H
  H122     1.0000 0.26080  0.21720  0.09210  Biso   1.000  H
  H123     1.0000 0.26080  0.78280  0.59210  Biso   1.000  H
  H124     1.0000 0.73920  0.78280  0.90790  Biso   1.000  H
  C113     1.0000 0.63850  0.13770  0.37520  Biso   1.000  C
  C114     1.0000 0.36150  0.13770  0.12480  Biso   1.000  C
  C115     1.0000 0.36150  0.86230  0.62480  Biso   1.000  C
  C116     1.0000 0.63850  0.86230  0.87520  Biso   1.000  C
  H125     1.0000 0.61120  0.16290  0.39540  Biso   1.000  H
  H126     1.0000 0.38880  0.16290  0.10460  Biso   1.000  H
  H127     1.0000 0.38880  0.83710  0.60460  Biso   1.000  H
  H128     1.0000 0.61120  0.83710  0.89540  Biso   1.000  H
  C117     1.0000 0.84320  0.16960  0.36010  Biso   1.000  C
  C118     1.0000 0.15680  0.16960  0.13990  Biso   1.000  C
  C119     1.0000 0.15680  0.83040  0.63990  Biso   1.000  C
  C120     1.0000 0.84320  0.83040  0.86010  Biso   1.000  C
  C121     1.0000 0.67670  0.67810  0.29550  Biso   1.000  C
  C122     1.0000 0.32330  0.67810  0.20450  Biso   1.000  C
  C123     1.0000 0.32330  0.32190  0.70450  Biso   1.000  C
  C124     1.0000 0.67670  0.32190  0.79550  Biso   1.000  C
  H129     1.0000 0.64390  0.75040  0.29770  Biso   1.000  H
  H130     1.0000 0.35610  0.75040  0.20230  Biso   1.000  H
  H131     1.0000 0.35610  0.24960  0.70230  Biso   1.000  H
  H132     1.0000 0.64390  0.24960  0.79770  Biso   1.000  H
  C125     1.0000 0.75210  0.70820  0.29230  Biso   1.000  C
  C126     1.0000 0.24790  0.70820  0.20770  Biso   1.000  C
  C127     1.0000 0.24790  0.29180  0.70770  Biso   1.000  C
  C128     1.0000 0.75210  0.29180  0.79230  Biso   1.000  C
  H133     1.0000 0.76900  0.79800  0.29240  Biso   1.000  H
  H134     1.0000 0.23100  0.79800  0.20760  Biso   1.000  H
  H135     1.0000 0.23100  0.20200  0.70760  Biso   1.000  H
  H136     1.0000 0.76900  0.20200  0.79240  Biso   1.000  H
  C129     1.0000 0.80100  0.60130  0.28900  Biso   1.000  C
  C130     1.0000 0.19900  0.60130  0.21100  Biso   1.000  C
  C131     1.0000 0.19900  0.39870  0.71100  Biso   1.000  C
  C132     1.0000 0.80100  0.39870  0.78900  Biso   1.000  C
  C133     1.0000 0.77240  0.46900  0.29020  Biso   1.000  C
  C134     1.0000 0.22760  0.46900  0.20980  Biso   1.000  C
  C135     1.0000 0.22760  0.53100  0.70980  Biso   1.000  C
  C136     1.0000 0.77240  0.53100  0.79020  Biso   1.000  C
  H137     1.0000 0.80460  0.39440  0.28970  Biso   1.000  H
  H138     1.0000 0.19540  0.39440  0.21030  Biso   1.000  H
  H139     1.0000 0.19540  0.60560  0.71030  Biso   1.000  H
  H140     1.0000 0.80460  0.60560  0.78970  Biso   1.000  H
  C137     1.0000 0.69680  0.45030  0.29220  Biso   1.000  C
  C138     1.0000 0.30320  0.45030  0.20780  Biso   1.000  C
  C139     1.0000 0.30320  0.54970  0.70780  Biso   1.000  C
  C140     1.0000 0.69680  0.54970  0.79220  Biso   1.000  C
  H141     1.0000 0.67800  0.36160  0.29130  Biso   1.000  H
  H142     1.0000 0.32200  0.36160  0.20870  Biso   1.000  H
  H143     1.0000 0.32200  0.63840  0.70870  Biso   1.000  H
  H144     1.0000 0.67800  0.63840  0.79130  Biso   1.000  H
  C141     1.0000 0.88190  0.62540  0.28260  Biso   1.000  C
  C142     1.0000 0.11810  0.62540  0.21740  Biso   1.000  C
  C143     1.0000 0.11810  0.37460  0.71740  Biso   1.000  C
  C144     1.0000 0.88190  0.37460  0.78260  Biso   1.000  C
  C145     1.0000 0.65660  0.32510  0.48420  Biso   1.000  C
  C146     1.0000 0.34340  0.32510  0.01580  Biso   1.000  C
  C147     1.0000 0.34340  0.67490  0.51580  Biso   1.000  C
  C148     1.0000 0.65660  0.67490  0.98420  Biso   1.000  C
  H145     1.0000 0.63410  0.41100  0.47920  Biso   1.000  H
  H146     1.0000 0.36590  0.41100  0.02080  Biso   1.000  H
  H147     1.0000 0.36590  0.58900  0.52080  Biso   1.000  H
  H148     1.0000 0.63410  0.58900  0.97920  Biso   1.000  H
  C149     1.0000 0.73600  0.31360  0.48900  Biso   1.000  C
  C150     1.0000 0.26400  0.31360  0.01100  Biso   1.000  C
  C151     1.0000 0.26400  0.68640  0.51100  Biso   1.000  C
  C152     1.0000 0.73600  0.68640  0.98900  Biso   1.000  C
  H149     1.0000 0.76610  0.39090  0.48840  Biso   1.000  H
  H150     1.0000 0.23390  0.39090  0.01160  Biso   1.000  H
  H151     1.0000 0.23390  0.60910  0.51160  Biso   1.000  H
  H152     1.0000 0.76610  0.60910  0.98840  Biso   1.000  H
  C153     1.0000 0.77030  0.18670  0.49490  Biso   1.000  C
  C154     1.0000 0.22970  0.18670  0.00510  Biso   1.000  C
  C155     1.0000 0.22970  0.81330  0.50510  Biso   1.000  C
  C156     1.0000 0.77030  0.81330  0.99490  Biso   1.000  C
  C157     1.0000 0.72390  0.07640  0.49850  Biso   1.000  C
  C158     1.0000 0.27610  0.07640  0.00150  Biso   1.000  C
  C159     1.0000 0.27610  0.92360  0.50150  Biso   1.000  C
  C160     1.0000 0.72390  0.92360  0.99850  Biso   1.000  C
  H153     1.0000 0.74560  0.99000  0.50400  Biso   1.000  H
  H154     1.0000 0.25440  0.99000  0.99600  Biso   1.000  H
  H155     1.0000 0.25440  0.01000  0.49600  Biso   1.000  H
  H156     1.0000 0.74560  0.01000  0.00400  Biso   1.000  H
  C161     1.0000 0.64480  0.09510  0.49390  Biso   1.000  C
  C162     1.0000 0.35520  0.09510  0.00610  Biso   1.000  C
  C163     1.0000 0.35520  0.90490  0.50610  Biso   1.000  C
  C164     1.0000 0.64480  0.90490  0.99390  Biso   1.000  C
  H157     1.0000 0.61430  0.01950  0.49600  Biso   1.000  H
  H158     1.0000 0.38570  0.01950  0.00400  Biso   1.000  H
  H159     1.0000 0.38570  0.98050  0.50400  Biso   1.000  H
  H160     1.0000 0.61430  0.98050  0.99600  Biso   1.000  H
  C165     1.0000 0.85480  0.16590  0.49330  Biso   1.000  C
  C166     1.0000 0.14520  0.16590  0.00670  Biso   1.000  C
  C167     1.0000 0.14520  0.83410  0.50670  Biso   1.000  C
  C168     1.0000 0.85480  0.83410  0.99330  Biso   1.000  C
