data_image0
_cell_length_a       11.7184
_cell_length_b       22.114
_cell_length_c       20.745
_cell_angle_alpha    90
_cell_angle_beta     94.063
_cell_angle_gamma    90

_symmetry_space_group_name_H-M    "P 1"
_symmetry_int_tables_number       1

loop_
  _symmetry_equiv_pos_as_xyz
  'x, y, z'

loop_
  _atom_site_label
  _atom_site_occupancy
  _atom_site_fract_x
  _atom_site_fract_y
  _atom_site_fract_z
  _atom_site_thermal_displace_type
  _atom_site_B_iso_or_equiv
  _atom_site_type_symbol
  Cu1      1.0000 0.79770  0.11403  0.72632  Biso   1.000  Cu
  Cu2      1.0000 0.70230  0.61403  0.77368  Biso   1.000  Cu
  Cu3      1.0000 0.20230  0.88597  0.27369  Biso   1.000  Cu
  Cu4      1.0000 0.29770  0.38597  0.22632  Biso   1.000  Cu
  Cu5      1.0000 0.71091  0.14044  0.83985  Biso   1.000  Cu
  Cu6      1.0000 0.78909  0.64044  0.66015  Biso   1.000  Cu
  Cu7      1.0000 0.28909  0.85956  0.16015  Biso   1.000  Cu
  Cu8      1.0000 0.21091  0.35956  0.33985  Biso   1.000  Cu
  Br1      1.0000 0.62639  0.18408  0.73018  Biso   1.000  Br
  Br2      1.0000 0.87361  0.68408  0.76982  Biso   1.000  Br
  Br3      1.0000 0.37361  0.81592  0.26982  Biso   1.000  Br
  Br4      1.0000 0.12639  0.31592  0.23018  Biso   1.000  Br
  Br5      1.0000 0.91271  0.16086  0.82044  Biso   1.000  Br
  Br6      1.0000 0.58730  0.66086  0.67956  Biso   1.000  Br
  Br7      1.0000 0.08730  0.83914  0.17956  Biso   1.000  Br
  Br8      1.0000 0.41270  0.33914  0.32044  Biso   1.000  Br
  P1       1.0000 0.73649  0.02205  0.72935  Biso   1.000  P
  P2       1.0000 0.76351  0.52205  0.77065  Biso   1.000  P
  P3       1.0000 0.26351  0.97795  0.27065  Biso   1.000  P
  P4       1.0000 0.23649  0.47795  0.22935  Biso   1.000  P
  P5       1.0000 0.66696  0.04692  0.85770  Biso   1.000  P
  P6       1.0000 0.83304  0.54692  0.64230  Biso   1.000  P
  P7       1.0000 0.33304  0.95308  0.14230  Biso   1.000  P
  P8       1.0000 0.16696  0.45308  0.35770  Biso   1.000  P
  O1       1.0000 0.63069  0.00226  0.67918  Biso   1.000  O
  O2       1.0000 0.86931  0.50226  0.82082  Biso   1.000  O
  O3       1.0000 0.36931  0.99774  0.32082  Biso   1.000  O
  O4       1.0000 0.13069  0.49774  0.17918  Biso   1.000  O
  O5       1.0000 0.43427  0.04997  0.63401  Biso   1.000  O
  O6       1.0000 0.06573  0.54997  0.86599  Biso   1.000  O
  O7       1.0000 0.56573  0.95003  0.36599  Biso   1.000  O
  O8       1.0000 0.93427  0.45003  0.13401  Biso   1.000  O
  O9       1.0000 0.82401  0.96742  0.71438  Biso   1.000  O
  O10      1.0000 0.67599  0.46742  0.78562  Biso   1.000  O
  O11      1.0000 0.17599  0.03258  0.28562  Biso   1.000  O
  O12      1.0000 0.32401  0.53258  0.21438  Biso   1.000  O
  O13      1.0000 0.93753  0.93237  0.61719  Biso   1.000  O
  O14      1.0000 0.56247  0.43237  0.88281  Biso   1.000  O
  O15      1.0000 0.06247  0.06763  0.38281  Biso   1.000  O
  O16      1.0000 0.43753  0.56763  0.11719  Biso   1.000  O
  O17      1.0000 0.73516  0.00872  0.91482  Biso   1.000  O
  O18      1.0000 0.76484  0.50872  0.58518  Biso   1.000  O
  O19      1.0000 0.26484  0.99128  0.08518  Biso   1.000  O
  O20      1.0000 0.23516  0.49128  0.41482  Biso   1.000  O
  O21      1.0000 0.94734  0.04777  0.93897  Biso   1.000  O
  O22      1.0000 0.55266  0.54777  0.56103  Biso   1.000  O
  O23      1.0000 0.05266  0.95223  0.06103  Biso   1.000  O
  O24      1.0000 0.44734  0.45223  0.43897  Biso   1.000  O
  O25      1.0000 0.53733  0.03361  0.87809  Biso   1.000  O
  O26      1.0000 0.96267  0.53361  0.62191  Biso   1.000  O
  O27      1.0000 0.46267  0.96639  0.12191  Biso   1.000  O
  O28      1.0000 0.03733  0.46639  0.37809  Biso   1.000  O
  O29      1.0000 0.43819  0.08835  0.97197  Biso   1.000  O
  O30      1.0000 0.06181  0.58835  0.52803  Biso   1.000  O
  O31      1.0000 0.56181  0.91165  0.02803  Biso   1.000  O
  O32      1.0000 0.93819  0.41165  0.47197  Biso   1.000  O
  N1       1.0000 0.68243  0.99692  0.79755  Biso   1.000  N
  N2       1.0000 0.81757  0.49692  0.70245  Biso   1.000  N
  N3       1.0000 0.31757  0.00308  0.20245  Biso   1.000  N
  N4       1.0000 0.18243  0.50308  0.29755  Biso   1.000  N
  N5       1.0000 0.15281  0.30334  0.40755  Biso   1.000  N
  N6       1.0000 0.34719  0.80334  0.09245  Biso   1.000  N
  N7       1.0000 0.84719  0.69666  0.59245  Biso   1.000  N
  N8       1.0000 0.65281  0.19666  0.90755  Biso   1.000  N
  N9       1.0000 0.88177  0.14644  0.65181  Biso   1.000  N
  N10      1.0000 0.61823  0.64644  0.84819  Biso   1.000  N
  N11      1.0000 0.11823  0.85356  0.34819  Biso   1.000  N
  N12      1.0000 0.38177  0.35356  0.15181  Biso   1.000  N
  C1       1.0000 0.62419  0.02566  0.61634  Biso   1.000  C
  C2       1.0000 0.87581  0.52566  0.88366  Biso   1.000  C
  C3       1.0000 0.37581  0.97434  0.38366  Biso   1.000  C
  C4       1.0000 0.12419  0.47434  0.11634  Biso   1.000  C
  C5       1.0000 0.71590  0.02238  0.57807  Biso   1.000  C
  C6       1.0000 0.78410  0.52238  0.92193  Biso   1.000  C
  C7       1.0000 0.28410  0.97762  0.42193  Biso   1.000  C
  C8       1.0000 0.21590  0.47762  0.07807  Biso   1.000  C
  H1       1.0000 0.78550  0.00400  0.59410  Biso   1.000  H
  H2       1.0000 0.71450  0.50400  0.90590  Biso   1.000  H
  H3       1.0000 0.21450  0.99600  0.40590  Biso   1.000  H
  H4       1.0000 0.28550  0.49600  0.09410  Biso   1.000  H
  C9       1.0000 0.70530  0.04626  0.51587  Biso   1.000  C
  C10      1.0000 0.79470  0.54626  0.98413  Biso   1.000  C
  C11      1.0000 0.29470  0.95374  0.48413  Biso   1.000  C
  C12      1.0000 0.20530  0.45374  0.01587  Biso   1.000  C
  H5       1.0000 0.76830  0.04500  0.48950  Biso   1.000  H
  H6       1.0000 0.73170  0.54500  0.01050  Biso   1.000  H
  H7       1.0000 0.23170  0.95500  0.51050  Biso   1.000  H
  H8       1.0000 0.26830  0.45500  0.98950  Biso   1.000  H
  C13      1.0000 0.60370  0.07158  0.49277  Biso   1.000  C
  C14      1.0000 0.89630  0.57158  0.00723  Biso   1.000  C
  C15      1.0000 0.39630  0.92842  0.50723  Biso   1.000  C
  C16      1.0000 0.10370  0.42842  0.99277  Biso   1.000  C
  H9       1.0000 0.59670  0.08770  0.45020  Biso   1.000  H
  H10      1.0000 0.90330  0.58770  0.04980  Biso   1.000  H
  H11      1.0000 0.40330  0.91230  0.54980  Biso   1.000  H
  H12      1.0000 0.09670  0.41230  0.95020  Biso   1.000  H
  C17      1.0000 0.51060  0.07406  0.53080  Biso   1.000  C
  C18      1.0000 0.98940  0.57406  0.96920  Biso   1.000  C
  C19      1.0000 0.48940  0.92594  0.46920  Biso   1.000  C
  C20      1.0000 0.01060  0.42594  0.03080  Biso   1.000  C
  H13      1.0000 0.44050  0.09140  0.51410  Biso   1.000  H
  H14      1.0000 0.05950  0.59140  0.98590  Biso   1.000  H
  H15      1.0000 0.55950  0.90860  0.48590  Biso   1.000  H
  H16      1.0000 0.94050  0.40860  0.01410  Biso   1.000  H
  C21      1.0000 0.52045  0.05118  0.59308  Biso   1.000  C
  C22      1.0000 0.97955  0.55118  0.90692  Biso   1.000  C
  C23      1.0000 0.47955  0.94882  0.40692  Biso   1.000  C
  C24      1.0000 0.02045  0.44882  0.09308  Biso   1.000  C
  C25      1.0000 0.32927  0.07786  0.61100  Biso   1.000  C
  C26      1.0000 0.17073  0.57786  0.88900  Biso   1.000  C
  C27      1.0000 0.67073  0.92214  0.38900  Biso   1.000  C
  C28      1.0000 0.82927  0.42214  0.11100  Biso   1.000  C
  H17      1.0000 0.34230  0.12100  0.60340  Biso   1.000  H
  H18      1.0000 0.15770  0.62100  0.89660  Biso   1.000  H
  H19      1.0000 0.65770  0.87900  0.39660  Biso   1.000  H
  H20      1.0000 0.84230  0.37900  0.10340  Biso   1.000  H
  H21      1.0000 0.27280  0.07320  0.64330  Biso   1.000  H
  H22      1.0000 0.22720  0.57320  0.85670  Biso   1.000  H
  H23      1.0000 0.72720  0.92680  0.35670  Biso   1.000  H
  H24      1.0000 0.77280  0.42680  0.14330  Biso   1.000  H
  H25      1.0000 0.30060  0.05860  0.57050  Biso   1.000  H
  H26      1.0000 0.19940  0.55860  0.92950  Biso   1.000  H
  H27      1.0000 0.69940  0.94140  0.42950  Biso   1.000  H
  H28      1.0000 0.80060  0.44140  0.07050  Biso   1.000  H
  C29      1.0000 0.94192  0.97581  0.72027  Biso   1.000  C
  C30      1.0000 0.55808  0.47581  0.77973  Biso   1.000  C
  C31      1.0000 0.05808  0.02419  0.27973  Biso   1.000  C
  C32      1.0000 0.44192  0.52419  0.22027  Biso   1.000  C
  C33      1.0000 0.99826  0.99977  0.77508  Biso   1.000  C
  C34      1.0000 0.50174  0.49977  0.72492  Biso   1.000  C
  C35      1.0000 0.00174  0.00023  0.22492  Biso   1.000  C
  C36      1.0000 0.49826  0.50023  0.27508  Biso   1.000  C
  H29      1.0000 0.95670  0.01190  0.81060  Biso   1.000  H
  H30      1.0000 0.54330  0.51190  0.68940  Biso   1.000  H
  H31      1.0000 0.04330  0.98810  0.18940  Biso   1.000  H
  H32      1.0000 0.45670  0.48810  0.31060  Biso   1.000  H
  C37      1.0000 0.11660  0.00589  0.77774  Biso   1.000  C
  C38      1.0000 0.38340  0.50589  0.72226  Biso   1.000  C
  C39      1.0000 0.88340  0.99411  0.22226  Biso   1.000  C
  C40      1.0000 0.61660  0.49411  0.27774  Biso   1.000  C
  H33      1.0000 0.15610  0.02290  0.81500  Biso   1.000  H
  H34      1.0000 0.34390  0.52290  0.68500  Biso   1.000  H
  H35      1.0000 0.84390  0.97710  0.18500  Biso   1.000  H
  H36      1.0000 0.65610  0.47710  0.31500  Biso   1.000  H
  C41      1.0000 0.17680  0.98735  0.72666  Biso   1.000  C
  C42      1.0000 0.32320  0.48735  0.77334  Biso   1.000  C
  C43      1.0000 0.82320  0.01265  0.27334  Biso   1.000  C
  C44      1.0000 0.67680  0.51265  0.22666  Biso   1.000  C
  H37      1.0000 0.25770  0.99130  0.72910  Biso   1.000  H
  H38      1.0000 0.24230  0.49130  0.77090  Biso   1.000  H
  H39      1.0000 0.74230  0.00870  0.27090  Biso   1.000  H
  H40      1.0000 0.75770  0.50870  0.22910  Biso   1.000  H
  C45      1.0000 0.12024  0.96288  0.67141  Biso   1.000  C
  C46      1.0000 0.37976  0.46288  0.82859  Biso   1.000  C
  C47      1.0000 0.87976  0.03712  0.32859  Biso   1.000  C
  C48      1.0000 0.62024  0.53712  0.17141  Biso   1.000  C
  H41      1.0000 0.16230  0.95040  0.63620  Biso   1.000  H
  H42      1.0000 0.33770  0.45040  0.86380  Biso   1.000  H
  H43      1.0000 0.83770  0.04960  0.36380  Biso   1.000  H
  H44      1.0000 0.66230  0.54960  0.13620  Biso   1.000  H
  C49      1.0000 0.00234  0.95679  0.66795  Biso   1.000  C
  C50      1.0000 0.49766  0.45679  0.83205  Biso   1.000  C
  C51      1.0000 0.99766  0.04321  0.33205  Biso   1.000  C
  C52      1.0000 0.50234  0.54321  0.16795  Biso   1.000  C
  C53      1.0000 0.99150  0.92320  0.55843  Biso   1.000  C
  C54      1.0000 0.50850  0.42320  0.94157  Biso   1.000  C
  C55      1.0000 0.00850  0.07680  0.44157  Biso   1.000  C
  C56      1.0000 0.49150  0.57680  0.05843  Biso   1.000  C
  H45      1.0000 0.02140  0.96180  0.54360  Biso   1.000  H
  H46      1.0000 0.47860  0.46180  0.95640  Biso   1.000  H
  H47      1.0000 0.97860  0.03820  0.45640  Biso   1.000  H
  H48      1.0000 0.52140  0.53820  0.04360  Biso   1.000  H
  H49      1.0000 0.93560  0.90710  0.52540  Biso   1.000  H
  H50      1.0000 0.56440  0.40710  0.97460  Biso   1.000  H
  H51      1.0000 0.06440  0.09290  0.47460  Biso   1.000  H
  H52      1.0000 0.43560  0.59290  0.02540  Biso   1.000  H
  H53      1.0000 0.05460  0.89440  0.56590  Biso   1.000  H
  H54      1.0000 0.44540  0.39440  0.93410  Biso   1.000  H
  H55      1.0000 0.94540  0.10560  0.43410  Biso   1.000  H
  H56      1.0000 0.55460  0.60560  0.06590  Biso   1.000  H
  C57      1.0000 0.76324  0.03806  0.97384  Biso   1.000  C
  C58      1.0000 0.73676  0.53806  0.52616  Biso   1.000  C
  C59      1.0000 0.23676  0.96194  0.02616  Biso   1.000  C
  C60      1.0000 0.26324  0.46194  0.47384  Biso   1.000  C
  C61      1.0000 0.68320  0.04348  0.01917  Biso   1.000  C
  C62      1.0000 0.81680  0.54348  0.48083  Biso   1.000  C
  C63      1.0000 0.31680  0.95652  0.98083  Biso   1.000  C
  C64      1.0000 0.18320  0.45652  0.51917  Biso   1.000  C
  H57      1.0000 0.60760  0.02870  0.01020  Biso   1.000  H
  H58      1.0000 0.89240  0.52870  0.48980  Biso   1.000  H
  H59      1.0000 0.39240  0.97130  0.98980  Biso   1.000  H
  H60      1.0000 0.10760  0.47130  0.51020  Biso   1.000  H
  C65      1.0000 0.71460  0.07075  0.07807  Biso   1.000  C
  C66      1.0000 0.78540  0.57075  0.42193  Biso   1.000  C
  C67      1.0000 0.28540  0.92925  0.92193  Biso   1.000  C
  C68      1.0000 0.21460  0.42925  0.57807  Biso   1.000  C
  H61      1.0000 0.66030  0.07490  0.10970  Biso   1.000  H
  H62      1.0000 0.83970  0.57490  0.39030  Biso   1.000  H
  H63      1.0000 0.33970  0.92510  0.89030  Biso   1.000  H
  H64      1.0000 0.16030  0.42510  0.60970  Biso   1.000  H
  C69      1.0000 0.82390  0.09169  0.09052  Biso   1.000  C
  C70      1.0000 0.67610  0.59169  0.40948  Biso   1.000  C
  C71      1.0000 0.17610  0.90831  0.90948  Biso   1.000  C
  C72      1.0000 0.32390  0.40831  0.59052  Biso   1.000  C
  H65      1.0000 0.84470  0.11040  0.13090  Biso   1.000  H
  H66      1.0000 0.65530  0.61040  0.36910  Biso   1.000  H
  H67      1.0000 0.15530  0.88960  0.86910  Biso   1.000  H
  H68      1.0000 0.34470  0.38960  0.63090  Biso   1.000  H
  C73      1.0000 0.90500  0.08598  0.04500  Biso   1.000  C
  C74      1.0000 0.59500  0.58598  0.45500  Biso   1.000  C
  C75      1.0000 0.09500  0.91402  0.95500  Biso   1.000  C
  C76      1.0000 0.40500  0.41402  0.54500  Biso   1.000  C
  H69      1.0000 0.98040  0.10090  0.05420  Biso   1.000  H
  H70      1.0000 0.51960  0.60090  0.44580  Biso   1.000  H
  H71      1.0000 0.01960  0.89910  0.94580  Biso   1.000  H
  H72      1.0000 0.48040  0.39910  0.55420  Biso   1.000  H
  C77      1.0000 0.87498  0.05839  0.98609  Biso   1.000  C
  C78      1.0000 0.62502  0.55839  0.51391  Biso   1.000  C
  C79      1.0000 0.12502  0.94161  0.01391  Biso   1.000  C
  C80      1.0000 0.37498  0.44161  0.48609  Biso   1.000  C
  C81      1.0000 0.05730  0.07618  0.94650  Biso   1.000  C
  C82      1.0000 0.44270  0.57618  0.55350  Biso   1.000  C
  C83      1.0000 0.94270  0.92382  0.05350  Biso   1.000  C
  C84      1.0000 0.55730  0.42382  0.44650  Biso   1.000  C
  H73      1.0000 0.04750  0.12010  0.94920  Biso   1.000  H
  H74      1.0000 0.45250  0.62010  0.55080  Biso   1.000  H
  H75      1.0000 0.95250  0.87990  0.05080  Biso   1.000  H
  H76      1.0000 0.54750  0.37990  0.44920  Biso   1.000  H
  H77      1.0000 0.10090  0.06640  0.90930  Biso   1.000  H
  H78      1.0000 0.39910  0.56640  0.59070  Biso   1.000  H
  H79      1.0000 0.89910  0.93360  0.09070  Biso   1.000  H
  H80      1.0000 0.60090  0.43360  0.40930  Biso   1.000  H
  H81      1.0000 0.09860  0.06150  0.98610  Biso   1.000  H
  H82      1.0000 0.40140  0.56150  0.51390  Biso   1.000  H
  H83      1.0000 0.90140  0.93850  0.01390  Biso   1.000  H
  H84      1.0000 0.59860  0.43850  0.48610  Biso   1.000  H
  C85      1.0000 0.45028  0.07496  0.86086  Biso   1.000  C
  C86      1.0000 0.04972  0.57496  0.63914  Biso   1.000  C
  C87      1.0000 0.54972  0.92504  0.13914  Biso   1.000  C
  C88      1.0000 0.95028  0.42504  0.36086  Biso   1.000  C
  C89      1.0000 0.41839  0.08805  0.79712  Biso   1.000  C
  C90      1.0000 0.08161  0.58805  0.70288  Biso   1.000  C
  C91      1.0000 0.58161  0.91195  0.20288  Biso   1.000  C
  C92      1.0000 0.91839  0.41195  0.29712  Biso   1.000  C
  H85      1.0000 0.45640  0.06940  0.76340  Biso   1.000  H
  H86      1.0000 0.04360  0.56940  0.73660  Biso   1.000  H
  H87      1.0000 0.54360  0.93060  0.23660  Biso   1.000  H
  H88      1.0000 0.95640  0.43060  0.26340  Biso   1.000  H
  C93      1.0000 0.32986  0.12899  0.78268  Biso   1.000  C
  C94      1.0000 0.17014  0.62899  0.71732  Biso   1.000  C
  C95      1.0000 0.67014  0.87101  0.21732  Biso   1.000  C
  C96      1.0000 0.82986  0.37101  0.28268  Biso   1.000  C
  H89      1.0000 0.30860  0.13920  0.73900  Biso   1.000  H
  H90      1.0000 0.19140  0.63920  0.76100  Biso   1.000  H
  H91      1.0000 0.69140  0.86080  0.26100  Biso   1.000  H
  H92      1.0000 0.80860  0.36080  0.23900  Biso   1.000  H
  C97      1.0000 0.27318  0.15472  0.83185  Biso   1.000  C
  C98      1.0000 0.22682  0.65472  0.66815  Biso   1.000  C
  C99      1.0000 0.72682  0.84528  0.16815  Biso   1.000  C
  C100     1.0000 0.77318  0.34528  0.33185  Biso   1.000  C
  H93      1.0000 0.21140  0.18170  0.82170  Biso   1.000  H
  H94      1.0000 0.28860  0.68170  0.67830  Biso   1.000  H
  H95      1.0000 0.78860  0.81830  0.17830  Biso   1.000  H
  H96      1.0000 0.71140  0.31830  0.32170  Biso   1.000  H
  C101     1.0000 0.30554  0.14153  0.89603  Biso   1.000  C
  C102     1.0000 0.19446  0.64153  0.60397  Biso   1.000  C
  C103     1.0000 0.69446  0.85847  0.10397  Biso   1.000  C
  C104     1.0000 0.80554  0.35847  0.39603  Biso   1.000  C
  H97      1.0000 0.26600  0.15950  0.92950  Biso   1.000  H
  H98      1.0000 0.23400  0.65950  0.57050  Biso   1.000  H
  H99      1.0000 0.73400  0.84050  0.07050  Biso   1.000  H
  H100     1.0000 0.76600  0.34050  0.42950  Biso   1.000  H
  C105     1.0000 0.39520  0.10226  0.91126  Biso   1.000  C
  C106     1.0000 0.10480  0.60226  0.58874  Biso   1.000  C
  C107     1.0000 0.60480  0.89774  0.08874  Biso   1.000  C
  C108     1.0000 0.89520  0.39774  0.41126  Biso   1.000  C
  C109     1.0000 0.38430  0.11503  0.02471  Biso   1.000  C
  C110     1.0000 0.11570  0.61503  0.47529  Biso   1.000  C
  C111     1.0000 0.61570  0.88497  0.97529  Biso   1.000  C
  C112     1.0000 0.88430  0.38497  0.52471  Biso   1.000  C
  H101     1.0000 0.38640  0.15920  0.02090  Biso   1.000  H
  H102     1.0000 0.11360  0.65920  0.47910  Biso   1.000  H
  H103     1.0000 0.61360  0.84080  0.97910  Biso   1.000  H
  H104     1.0000 0.88640  0.34080  0.52090  Biso   1.000  H
  H105     1.0000 0.42480  0.10270  0.06550  Biso   1.000  H
  H106     1.0000 0.07520  0.60270  0.43450  Biso   1.000  H
  H107     1.0000 0.57520  0.89730  0.93450  Biso   1.000  H
  H108     1.0000 0.92480  0.39730  0.56550  Biso   1.000  H
  H109     1.0000 0.30450  0.10150  0.02390  Biso   1.000  H
  H110     1.0000 0.19550  0.60150  0.47610  Biso   1.000  H
  H111     1.0000 0.69550  0.89850  0.97610  Biso   1.000  H
  H112     1.0000 0.80450  0.39850  0.52390  Biso   1.000  H
  C113     1.0000 0.64871  0.93416  0.80352  Biso   1.000  C
  C114     1.0000 0.85129  0.43416  0.69648  Biso   1.000  C
  C115     1.0000 0.35129  0.06584  0.19648  Biso   1.000  C
  C116     1.0000 0.14871  0.56584  0.30352  Biso   1.000  C
  C117     1.0000 0.72940  0.89177  0.82556  Biso   1.000  C
  C118     1.0000 0.77060  0.39177  0.67444  Biso   1.000  C
  C119     1.0000 0.27060  0.10823  0.17444  Biso   1.000  C
  C120     1.0000 0.22940  0.60823  0.32556  Biso   1.000  C
  H113     1.0000 0.80590  0.90360  0.83750  Biso   1.000  H
  H114     1.0000 0.69410  0.40360  0.66250  Biso   1.000  H
  H115     1.0000 0.19410  0.09640  0.16250  Biso   1.000  H
  H116     1.0000 0.30590  0.59640  0.33750  Biso   1.000  H
  C121     1.0000 0.69640  0.83143  0.82993  Biso   1.000  C
  C122     1.0000 0.80360  0.33143  0.67007  Biso   1.000  C
  C123     1.0000 0.30360  0.16857  0.17007  Biso   1.000  C
  C124     1.0000 0.19640  0.66857  0.32993  Biso   1.000  C
  H117     1.0000 0.75120  0.80180  0.84430  Biso   1.000  H
  H118     1.0000 0.74880  0.30180  0.65570  Biso   1.000  H
  H119     1.0000 0.24880  0.19820  0.15570  Biso   1.000  H
  H120     1.0000 0.25120  0.69820  0.34430  Biso   1.000  H
  C125     1.0000 0.58550  0.81436  0.81369  Biso   1.000  C
  C126     1.0000 0.91450  0.31436  0.68631  Biso   1.000  C
  C127     1.0000 0.41450  0.18564  0.18631  Biso   1.000  C
  C128     1.0000 0.08550  0.68564  0.31369  Biso   1.000  C
  H121     1.0000 0.56400  0.77310  0.81660  Biso   1.000  H
  H122     1.0000 0.93600  0.27310  0.68340  Biso   1.000  H
  H123     1.0000 0.43600  0.22690  0.18340  Biso   1.000  H
  H124     1.0000 0.06400  0.72690  0.31660  Biso   1.000  H
  C129     1.0000 0.50500  0.85710  0.79312  Biso   1.000  C
  C130     1.0000 0.99500  0.35710  0.70688  Biso   1.000  C
  C131     1.0000 0.49500  0.14290  0.20688  Biso   1.000  C
  C132     1.0000 0.00500  0.64290  0.29312  Biso   1.000  C
  H125     1.0000 0.42780  0.84530  0.78310  Biso   1.000  H
  H126     1.0000 0.07220  0.34530  0.71690  Biso   1.000  H
  H127     1.0000 0.57220  0.15470  0.21690  Biso   1.000  H
  H128     1.0000 0.92780  0.65470  0.28310  Biso   1.000  H
  C133     1.0000 0.53660  0.91726  0.78709  Biso   1.000  C
  C134     1.0000 0.96340  0.41726  0.71291  Biso   1.000  C
  C135     1.0000 0.46340  0.08274  0.21291  Biso   1.000  C
  C136     1.0000 0.03660  0.58274  0.28709  Biso   1.000  C
  H129     1.0000 0.48180  0.94650  0.77180  Biso   1.000  H
  H130     1.0000 0.01820  0.44650  0.72820  Biso   1.000  H
  H131     1.0000 0.51820  0.05350  0.22820  Biso   1.000  H
  H132     1.0000 0.98180  0.55350  0.27180  Biso   1.000  H
  C137     1.0000 0.19839  0.30186  0.46882  Biso   1.000  C
  C138     1.0000 0.30161  0.80186  0.03118  Biso   1.000  C
  C139     1.0000 0.80161  0.69814  0.53118  Biso   1.000  C
  C140     1.0000 0.69839  0.19814  0.96882  Biso   1.000  C
  H133     1.0000 0.26740  0.32340  0.47920  Biso   1.000  H
  H134     1.0000 0.23260  0.82340  0.02080  Biso   1.000  H
  H135     1.0000 0.73260  0.67660  0.52080  Biso   1.000  H
  H136     1.0000 0.76740  0.17660  0.97920  Biso   1.000  H
  C141     1.0000 0.14932  0.27043  0.51751  Biso   1.000  C
  C142     1.0000 0.35068  0.77043  0.98249  Biso   1.000  C
  C143     1.0000 0.85068  0.72957  0.48249  Biso   1.000  C
  C144     1.0000 0.64932  0.22957  0.01751  Biso   1.000  C
  H137     1.0000 0.18450  0.27060  0.56020  Biso   1.000  H
  H138     1.0000 0.31550  0.77060  0.93980  Biso   1.000  H
  H139     1.0000 0.81550  0.72940  0.43980  Biso   1.000  H
  H140     1.0000 0.68450  0.22940  0.06020  Biso   1.000  H
  C145     1.0000 0.04869  0.23874  0.50357  Biso   1.000  C
  C146     1.0000 0.45131  0.73874  0.99643  Biso   1.000  C
  C147     1.0000 0.95131  0.76126  0.49643  Biso   1.000  C
  C148     1.0000 0.54869  0.26126  0.00357  Biso   1.000  C
  C149     1.0000 0.00101  0.24049  0.44022  Biso   1.000  C
  C150     1.0000 0.49899  0.74049  0.05978  Biso   1.000  C
  C151     1.0000 0.99899  0.75951  0.55978  Biso   1.000  C
  C152     1.0000 0.50101  0.25951  0.94022  Biso   1.000  C
  H141     1.0000 0.93200  0.21940  0.42860  Biso   1.000  H
  H142     1.0000 0.56800  0.71940  0.07140  Biso   1.000  H
  H143     1.0000 0.06800  0.78060  0.57140  Biso   1.000  H
  H144     1.0000 0.43200  0.28060  0.92860  Biso   1.000  H
  C153     1.0000 0.05462  0.27314  0.39436  Biso   1.000  C
  C154     1.0000 0.44538  0.77314  0.10564  Biso   1.000  C
  C155     1.0000 0.94538  0.72686  0.60564  Biso   1.000  C
  C156     1.0000 0.55462  0.22686  0.89436  Biso   1.000  C
  H145     1.0000 0.02040  0.27430  0.35150  Biso   1.000  H
  H146     1.0000 0.47960  0.77430  0.14850  Biso   1.000  H
  H147     1.0000 0.97960  0.72570  0.64850  Biso   1.000  H
  H148     1.0000 0.52040  0.22570  0.85150  Biso   1.000  H
  C157     1.0000 0.99150  0.20487  0.55393  Biso   1.000  C
  C158     1.0000 0.50850  0.70487  0.94607  Biso   1.000  C
  C159     1.0000 0.00850  0.79513  0.44607  Biso   1.000  C
  C160     1.0000 0.49150  0.29513  0.05393  Biso   1.000  C
  C161     1.0000 0.05355  0.17879  0.60683  Biso   1.000  C
  C162     1.0000 0.44645  0.67879  0.89317  Biso   1.000  C
  C163     1.0000 0.94645  0.82121  0.39317  Biso   1.000  C
  C164     1.0000 0.55355  0.32121  0.10683  Biso   1.000  C
  H149     1.0000 0.13480  0.18060  0.61020  Biso   1.000  H
  H150     1.0000 0.36520  0.68060  0.88980  Biso   1.000  H
  H151     1.0000 0.86520  0.81940  0.38980  Biso   1.000  H
  H152     1.0000 0.63480  0.31940  0.11020  Biso   1.000  H
  C165     1.0000 0.99595  0.15041  0.65404  Biso   1.000  C
  C166     1.0000 0.50405  0.65041  0.84596  Biso   1.000  C
  C167     1.0000 0.00405  0.84959  0.34596  Biso   1.000  C
  C168     1.0000 0.49595  0.34959  0.15404  Biso   1.000  C
  H153     1.0000 0.03920  0.13290  0.68970  Biso   1.000  H
  H154     1.0000 0.46080  0.63290  0.81030  Biso   1.000  H
  H155     1.0000 0.96080  0.86710  0.31030  Biso   1.000  H
  H156     1.0000 0.53920  0.36710  0.18970  Biso   1.000  H
  C169     1.0000 0.82240  0.17029  0.60051  Biso   1.000  C
  C170     1.0000 0.67760  0.67029  0.89949  Biso   1.000  C
  C171     1.0000 0.17760  0.82971  0.39949  Biso   1.000  C
  C172     1.0000 0.32240  0.32971  0.10051  Biso   1.000  C
  H157     1.0000 0.74140  0.16700  0.59790  Biso   1.000  H
  H158     1.0000 0.75860  0.66700  0.90210  Biso   1.000  H
  H159     1.0000 0.25860  0.83300  0.40210  Biso   1.000  H
  H160     1.0000 0.24140  0.33300  0.09790  Biso   1.000  H
  C173     1.0000 0.87341  0.19941  0.55110  Biso   1.000  C
  C174     1.0000 0.62659  0.69941  0.94890  Biso   1.000  C
  C175     1.0000 0.12659  0.80059  0.44890  Biso   1.000  C
  C176     1.0000 0.37341  0.30059  0.05110  Biso   1.000  C
  H161     1.0000 0.82790  0.21560  0.51550  Biso   1.000  H
  H162     1.0000 0.67210  0.71560  0.98450  Biso   1.000  H
  H163     1.0000 0.17210  0.78440  0.48450  Biso   1.000  H
  H164     1.0000 0.32790  0.28440  0.01550  Biso   1.000  H
  N13      1.0000 0.63400  0.27743  0.51202  Biso   1.000  N
  N14      1.0000 0.86600  0.77743  0.98798  Biso   1.000  N
  N15      1.0000 0.36600  0.72257  0.48798  Biso   1.000  N
  N16      1.0000 0.13400  0.22257  0.01202  Biso   1.000  N
  C177     1.0000 0.55880  0.26082  0.53901  Biso   1.000  C
  C178     1.0000 0.94120  0.76082  0.96099  Biso   1.000  C
  C179     1.0000 0.44120  0.73918  0.46099  Biso   1.000  C
  C180     1.0000 0.05880  0.23918  0.03901  Biso   1.000  C
  C181     1.0000 0.46230  0.24024  0.57300  Biso   1.000  C
  C182     1.0000 0.03770  0.74024  0.92700  Biso   1.000  C
  C183     1.0000 0.53770  0.75976  0.42700  Biso   1.000  C
  C184     1.0000 0.96230  0.25976  0.07300  Biso   1.000  C
  H165     1.0000 0.49010  0.21780  0.61180  Biso   1.000  H
  H166     1.0000 0.00990  0.71780  0.88820  Biso   1.000  H
  H167     1.0000 0.50990  0.78220  0.38820  Biso   1.000  H
  H168     1.0000 0.99010  0.28220  0.11180  Biso   1.000  H
  H169     1.0000 0.41410  0.21380  0.54470  Biso   1.000  H
  H170     1.0000 0.08590  0.71380  0.95530  Biso   1.000  H
  H171     1.0000 0.58590  0.78620  0.45530  Biso   1.000  H
  H172     1.0000 0.91410  0.28620  0.04470  Biso   1.000  H
  H173     1.0000 0.41750  0.27520  0.58560  Biso   1.000  H
  H174     1.0000 0.08250  0.77520  0.91440  Biso   1.000  H
  H175     1.0000 0.58250  0.72480  0.41440  Biso   1.000  H
  H176     1.0000 0.91750  0.22480  0.08560  Biso   1.000  H
  N17      1.0000 0.28484  0.15327  0.45726  Biso   1.000  N
  N18      1.0000 0.21516  0.65327  0.04274  Biso   1.000  N
  N19      1.0000 0.71516  0.84673  0.54274  Biso   1.000  N
  N20      1.0000 0.78484  0.34673  0.95726  Biso   1.000  N
  C185     1.0000 0.26979  0.16069  0.40309  Biso   1.000  C
  C186     1.0000 0.23021  0.66069  0.09691  Biso   1.000  C
  C187     1.0000 0.73021  0.83931  0.59691  Biso   1.000  C
  C188     1.0000 0.76979  0.33931  0.90309  Biso   1.000  C
  C189     1.0000 0.25190  0.17064  0.33368  Biso   1.000  C
  C190     1.0000 0.24810  0.67064  0.16632  Biso   1.000  C
  C191     1.0000 0.74810  0.82936  0.66632  Biso   1.000  C
  C192     1.0000 0.75190  0.32936  0.83368  Biso   1.000  C
  H177     1.0000 0.27110  0.21260  0.32370  Biso   1.000  H
  H178     1.0000 0.22890  0.71260  0.17630  Biso   1.000  H
  H179     1.0000 0.72890  0.78740  0.67630  Biso   1.000  H
  H180     1.0000 0.77110  0.28740  0.82370  Biso   1.000  H
  H181     1.0000 0.17160  0.16280  0.31970  Biso   1.000  H
  H182     1.0000 0.32840  0.66280  0.18030  Biso   1.000  H
  H183     1.0000 0.82840  0.83720  0.68030  Biso   1.000  H
  H184     1.0000 0.67160  0.33720  0.81970  Biso   1.000  H
  H185     1.0000 0.30110  0.14320  0.31100  Biso   1.000  H
  H186     1.0000 0.19890  0.64320  0.18900  Biso   1.000  H
  H187     1.0000 0.69890  0.85680  0.68900  Biso   1.000  H
  H188     1.0000 0.80110  0.35680  0.81100  Biso   1.000  H
  N21      1.0000 0.75580  0.23255  0.19006  Biso   1.000  N
  N22      1.0000 0.74420  0.73255  0.30994  Biso   1.000  N
  N23      1.0000 0.24420  0.76745  0.80994  Biso   1.000  N
  N24      1.0000 0.25580  0.26745  0.69006  Biso   1.000  N
  C193     1.0000 0.83190  0.21054  0.21784  Biso   1.000  C
  C194     1.0000 0.66810  0.71054  0.28216  Biso   1.000  C
  C195     1.0000 0.16810  0.78946  0.78216  Biso   1.000  C
  C196     1.0000 0.33190  0.28946  0.71784  Biso   1.000  C
  C197     1.0000 0.93020  0.18189  0.25203  Biso   1.000  C
  C198     1.0000 0.56980  0.68189  0.24797  Biso   1.000  C
  C199     1.0000 0.06980  0.81811  0.74797  Biso   1.000  C
  C200     1.0000 0.43020  0.31811  0.75203  Biso   1.000  C
  H189     1.0000 0.94000  0.14110  0.23480  Biso   1.000  H
  H190     1.0000 0.56000  0.64110  0.26520  Biso   1.000  H
  H191     1.0000 0.06000  0.85890  0.76520  Biso   1.000  H
  H192     1.0000 0.44000  0.35890  0.73480  Biso   1.000  H
  H193     1.0000 0.91770  0.17940  0.29820  Biso   1.000  H
  H194     1.0000 0.58230  0.67940  0.20180  Biso   1.000  H
  H195     1.0000 0.08230  0.82060  0.70180  Biso   1.000  H
  H196     1.0000 0.41770  0.32060  0.79820  Biso   1.000  H
  H197     1.0000 0.99900  0.20590  0.24610  Biso   1.000  H
  H198     1.0000 0.50100  0.70590  0.25390  Biso   1.000  H
  H199     1.0000 0.00100  0.79410  0.75390  Biso   1.000  H
  H200     1.0000 0.49900  0.29410  0.74610  Biso   1.000  H
  N25      1.0000 0.26190  0.33096  0.87937  Biso   1.000  N
  N26      1.0000 0.23810  0.83096  0.62063  Biso   1.000  N
  N27      1.0000 0.73810  0.66904  0.12063  Biso   1.000  N
  N28      1.0000 0.76190  0.16904  0.37937  Biso   1.000  N
  C201     1.0000 0.16960  0.31711  0.87501  Biso   1.000  C
  C202     1.0000 0.33040  0.81711  0.62499  Biso   1.000  C
  C203     1.0000 0.83040  0.68289  0.12499  Biso   1.000  C
  C204     1.0000 0.66960  0.18289  0.37501  Biso   1.000  C
  C205     1.0000 0.04920  0.30044  0.87056  Biso   1.000  C
  C206     1.0000 0.45080  0.80044  0.62944  Biso   1.000  C
  C207     1.0000 0.95080  0.69956  0.12944  Biso   1.000  C
  C208     1.0000 0.54920  0.19956  0.37056  Biso   1.000  C
  H201     1.0000 0.00470  0.33150  0.84620  Biso   1.000  H
  H202     1.0000 0.49530  0.83150  0.65380  Biso   1.000  H
  H203     1.0000 0.99530  0.66850  0.15380  Biso   1.000  H
  H204     1.0000 0.50470  0.16850  0.34620  Biso   1.000  H
  H205     1.0000 0.02240  0.29710  0.91410  Biso   1.000  H
  H206     1.0000 0.47760  0.79710  0.58590  Biso   1.000  H
  H207     1.0000 0.97760  0.70290  0.08590  Biso   1.000  H
  H208     1.0000 0.52240  0.20290  0.41410  Biso   1.000  H
  H209     1.0000 0.03940  0.26150  0.84830  Biso   1.000  H
  H210     1.0000 0.46060  0.76150  0.65170  Biso   1.000  H
  H211     1.0000 0.96060  0.73850  0.15170  Biso   1.000  H
  H212     1.0000 0.53940  0.23850  0.34830  Biso   1.000  H
