data_image0
_cell_length_a       18.5295
_cell_length_b       18.5295
_cell_length_c       18.5295
_cell_angle_alpha    90
_cell_angle_beta     90
_cell_angle_gamma    90

_symmetry_space_group_name_H-M    "P 1"
_symmetry_int_tables_number       1

loop_
  _symmetry_equiv_pos_as_xyz
  'x, y, z'

loop_
  _atom_site_label
  _atom_site_occupancy
  _atom_site_fract_x
  _atom_site_fract_y
  _atom_site_fract_z
  _atom_site_thermal_displace_type
  _atom_site_B_iso_or_equiv
  _atom_site_type_symbol
  Cu1      1.0000 0.13300  0.50000  0.00000  Biso   1.000  Cu
  Cu2      1.0000 0.00000  0.13300  0.50000  Biso   1.000  Cu
  Cu3      1.0000 0.50000  0.00000  0.13300  Biso   1.000  Cu
  Cu4      1.0000 0.50000  0.00000  0.86700  Biso   1.000  Cu
  Cu5      1.0000 0.86700  0.50000  0.00000  Biso   1.000  Cu
  Cu6      1.0000 0.00000  0.86700  0.50000  Biso   1.000  Cu
  Cu7      1.0000 0.50000  0.13300  0.00000  Biso   1.000  Cu
  Cu8      1.0000 0.00000  0.50000  0.13300  Biso   1.000  Cu
  Cu9      1.0000 0.13300  0.00000  0.50000  Biso   1.000  Cu
  Cu10     1.0000 0.50000  0.86700  0.00000  Biso   1.000  Cu
  Cu11     1.0000 0.00000  0.50000  0.86700  Biso   1.000  Cu
  Cu12     1.0000 0.86700  0.00000  0.50000  Biso   1.000  Cu
  C1       1.0000 0.14765  0.33736  0.85235  Biso   1.000  C
  C2       1.0000 0.85235  0.14765  0.33736  Biso   1.000  C
  C3       1.0000 0.33736  0.85235  0.14765  Biso   1.000  C
  C4       1.0000 0.14765  0.14765  0.66264  Biso   1.000  C
  C5       1.0000 0.66264  0.14765  0.14765  Biso   1.000  C
  C6       1.0000 0.33736  0.14765  0.85235  Biso   1.000  C
  C7       1.0000 0.85235  0.33736  0.14765  Biso   1.000  C
  C8       1.0000 0.14765  0.85235  0.33736  Biso   1.000  C
  C9       1.0000 0.14765  0.66264  0.14765  Biso   1.000  C
  C10      1.0000 0.33736  0.14765  0.14765  Biso   1.000  C
  C11      1.0000 0.14765  0.33736  0.14765  Biso   1.000  C
  C12      1.0000 0.14765  0.14765  0.33736  Biso   1.000  C
  C13      1.0000 0.85235  0.66264  0.85235  Biso   1.000  C
  C14      1.0000 0.85235  0.85235  0.66264  Biso   1.000  C
  C15      1.0000 0.66264  0.85235  0.85235  Biso   1.000  C
  C16      1.0000 0.66264  0.85235  0.14765  Biso   1.000  C
  C17      1.0000 0.14765  0.66264  0.85235  Biso   1.000  C
  C18      1.0000 0.85235  0.14765  0.66264  Biso   1.000  C
  C19      1.0000 0.85235  0.66264  0.14765  Biso   1.000  C
  C20      1.0000 0.14765  0.85235  0.66264  Biso   1.000  C
  C21      1.0000 0.85235  0.85235  0.33736  Biso   1.000  C
  C22      1.0000 0.33736  0.85235  0.85235  Biso   1.000  C
  C23      1.0000 0.85235  0.33736  0.85235  Biso   1.000  C
  C24      1.0000 0.66264  0.14765  0.85235  Biso   1.000  C
  C25      1.0000 0.18009  0.27141  0.81991  Biso   1.000  C
  C26      1.0000 0.81991  0.18009  0.27141  Biso   1.000  C
  C27      1.0000 0.27141  0.81991  0.18009  Biso   1.000  C
  C28      1.0000 0.18009  0.18009  0.72859  Biso   1.000  C
  C29      1.0000 0.72859  0.18009  0.18009  Biso   1.000  C
  C30      1.0000 0.27141  0.18009  0.81991  Biso   1.000  C
  C31      1.0000 0.81991  0.27141  0.18009  Biso   1.000  C
  C32      1.0000 0.18009  0.81991  0.27141  Biso   1.000  C
  C33      1.0000 0.18009  0.72859  0.18009  Biso   1.000  C
  C34      1.0000 0.27141  0.18009  0.18009  Biso   1.000  C
  C35      1.0000 0.18009  0.27141  0.18009  Biso   1.000  C
  C36      1.0000 0.18009  0.18009  0.27141  Biso   1.000  C
  C37      1.0000 0.81991  0.72859  0.81991  Biso   1.000  C
  C38      1.0000 0.81991  0.81991  0.72859  Biso   1.000  C
  C39      1.0000 0.72859  0.81991  0.81991  Biso   1.000  C
  C40      1.0000 0.72859  0.81991  0.18009  Biso   1.000  C
  C41      1.0000 0.18009  0.72859  0.81991  Biso   1.000  C
  C42      1.0000 0.81991  0.18009  0.72859  Biso   1.000  C
  C43      1.0000 0.81991  0.72859  0.18009  Biso   1.000  C
  C44      1.0000 0.18009  0.81991  0.72859  Biso   1.000  C
  C45      1.0000 0.81991  0.81991  0.27141  Biso   1.000  C
  C46      1.0000 0.27141  0.81991  0.81991  Biso   1.000  C
  C47      1.0000 0.81991  0.27141  0.81991  Biso   1.000  C
  C48      1.0000 0.72859  0.18009  0.81991  Biso   1.000  C
  C49      1.0000 0.24201  0.24201  0.85160  Biso   1.000  C
  C50      1.0000 0.85160  0.24201  0.24201  Biso   1.000  C
  C51      1.0000 0.24201  0.85160  0.24201  Biso   1.000  C
  C52      1.0000 0.14840  0.24201  0.75799  Biso   1.000  C
  C53      1.0000 0.75799  0.14840  0.24201  Biso   1.000  C
  C54      1.0000 0.24201  0.14840  0.75799  Biso   1.000  C
  C55      1.0000 0.75799  0.24201  0.14840  Biso   1.000  C
  C56      1.0000 0.14840  0.75799  0.24201  Biso   1.000  C
  C57      1.0000 0.24201  0.75799  0.14840  Biso   1.000  C
  C58      1.0000 0.24201  0.24201  0.14840  Biso   1.000  C
  C59      1.0000 0.14840  0.24201  0.24201  Biso   1.000  C
  C60      1.0000 0.24201  0.14840  0.24201  Biso   1.000  C
  C61      1.0000 0.75799  0.75799  0.85160  Biso   1.000  C
  C62      1.0000 0.85160  0.75799  0.75799  Biso   1.000  C
  C63      1.0000 0.75799  0.85160  0.75799  Biso   1.000  C
  C64      1.0000 0.75799  0.75799  0.14840  Biso   1.000  C
  C65      1.0000 0.14840  0.75799  0.75799  Biso   1.000  C
  C66      1.0000 0.75799  0.14840  0.75799  Biso   1.000  C
  C67      1.0000 0.85160  0.75799  0.24201  Biso   1.000  C
  C68      1.0000 0.24201  0.85160  0.75799  Biso   1.000  C
  C69      1.0000 0.75799  0.85160  0.24201  Biso   1.000  C
  C70      1.0000 0.24201  0.75799  0.85160  Biso   1.000  C
  C71      1.0000 0.85160  0.24201  0.75799  Biso   1.000  C
  C72      1.0000 0.75799  0.24201  0.85160  Biso   1.000  C
  Cl1      1.0000 0.00000  0.50000  0.00000  Biso   1.000  Cl
  Cl2      1.0000 0.00000  0.00000  0.50000  Biso   1.000  Cl
  Cl3      1.0000 0.50000  0.00000  0.00000  Biso   1.000  Cl
  N1       1.0000 0.12938  0.42535  0.92156  Biso   1.000  N
  N2       1.0000 0.92156  0.12938  0.42535  Biso   1.000  N
  N3       1.0000 0.42535  0.92156  0.12938  Biso   1.000  N
  N4       1.0000 0.07844  0.12938  0.57465  Biso   1.000  N
  N5       1.0000 0.57465  0.07844  0.12938  Biso   1.000  N
  N6       1.0000 0.42535  0.07844  0.87062  Biso   1.000  N
  N7       1.0000 0.87062  0.42535  0.07844  Biso   1.000  N
  N8       1.0000 0.07844  0.87062  0.42535  Biso   1.000  N
  N9       1.0000 0.12938  0.57465  0.07844  Biso   1.000  N
  N10      1.0000 0.42535  0.12938  0.07844  Biso   1.000  N
  N11      1.0000 0.07844  0.42535  0.12938  Biso   1.000  N
  N12      1.0000 0.12938  0.07844  0.42535  Biso   1.000  N
  N13      1.0000 0.87062  0.57465  0.92156  Biso   1.000  N
  N14      1.0000 0.92156  0.87062  0.57465  Biso   1.000  N
  N15      1.0000 0.57465  0.92156  0.87062  Biso   1.000  N
  N16      1.0000 0.57465  0.87062  0.07844  Biso   1.000  N
  N17      1.0000 0.07844  0.57465  0.87062  Biso   1.000  N
  N18      1.0000 0.87062  0.07844  0.57465  Biso   1.000  N
  N19      1.0000 0.92156  0.57465  0.12938  Biso   1.000  N
  N20      1.0000 0.12938  0.92156  0.57465  Biso   1.000  N
  N21      1.0000 0.87062  0.92156  0.42535  Biso   1.000  N
  N22      1.0000 0.42535  0.87062  0.92156  Biso   1.000  N
  N23      1.0000 0.92156  0.42535  0.87062  Biso   1.000  N
  N24      1.0000 0.57465  0.12938  0.92156  Biso   1.000  N
  N25      1.0000 0.87062  0.57465  0.07844  Biso   1.000  N
  N26      1.0000 0.07844  0.87062  0.57465  Biso   1.000  N
  N27      1.0000 0.57465  0.07844  0.87062  Biso   1.000  N
  N28      1.0000 0.92156  0.87062  0.42535  Biso   1.000  N
  N29      1.0000 0.42535  0.92156  0.87062  Biso   1.000  N
  N30      1.0000 0.57465  0.92156  0.12938  Biso   1.000  N
  N31      1.0000 0.12938  0.57465  0.92156  Biso   1.000  N
  N32      1.0000 0.92156  0.12938  0.57465  Biso   1.000  N
  N33      1.0000 0.87062  0.42535  0.92156  Biso   1.000  N
  N34      1.0000 0.57465  0.87062  0.92156  Biso   1.000  N
  N35      1.0000 0.92156  0.57465  0.87062  Biso   1.000  N
  N36      1.0000 0.87062  0.92156  0.57465  Biso   1.000  N
  N37      1.0000 0.12938  0.42535  0.07844  Biso   1.000  N
  N38      1.0000 0.07844  0.12938  0.42535  Biso   1.000  N
  N39      1.0000 0.42535  0.07844  0.12938  Biso   1.000  N
  N40      1.0000 0.42535  0.12938  0.92156  Biso   1.000  N
  N41      1.0000 0.92156  0.42535  0.12938  Biso   1.000  N
  N42      1.0000 0.12938  0.92156  0.42535  Biso   1.000  N
  N43      1.0000 0.07844  0.42535  0.87062  Biso   1.000  N
  N44      1.0000 0.87062  0.07844  0.42535  Biso   1.000  N
  N45      1.0000 0.12938  0.07844  0.57465  Biso   1.000  N
  N46      1.0000 0.57465  0.12938  0.07844  Biso   1.000  N
  N47      1.0000 0.07844  0.57465  0.12938  Biso   1.000  N
  N48      1.0000 0.42535  0.87062  0.07844  Biso   1.000  N
  N49      1.0000 0.17411  0.37008  0.91064  Biso   1.000  N
  N50      1.0000 0.91064  0.17411  0.37008  Biso   1.000  N
  N51      1.0000 0.37008  0.91064  0.17411  Biso   1.000  N
  N52      1.0000 0.08936  0.17411  0.62992  Biso   1.000  N
  N53      1.0000 0.62992  0.08936  0.17411  Biso   1.000  N
  N54      1.0000 0.37008  0.08936  0.82589  Biso   1.000  N
  N55      1.0000 0.82589  0.37008  0.08936  Biso   1.000  N
  N56      1.0000 0.08936  0.82589  0.37008  Biso   1.000  N
  N57      1.0000 0.17411  0.62992  0.08936  Biso   1.000  N
  N58      1.0000 0.37008  0.17411  0.08936  Biso   1.000  N
  N59      1.0000 0.08936  0.37008  0.17411  Biso   1.000  N
  N60      1.0000 0.17411  0.08936  0.37008  Biso   1.000  N
  N61      1.0000 0.82589  0.62992  0.91064  Biso   1.000  N
  N62      1.0000 0.91064  0.82589  0.62992  Biso   1.000  N
  N63      1.0000 0.62992  0.91064  0.82589  Biso   1.000  N
  N64      1.0000 0.62992  0.82589  0.08936  Biso   1.000  N
  N65      1.0000 0.08936  0.62992  0.82589  Biso   1.000  N
  N66      1.0000 0.82589  0.08936  0.62992  Biso   1.000  N
  N67      1.0000 0.91064  0.62992  0.17411  Biso   1.000  N
  N68      1.0000 0.17411  0.91064  0.62992  Biso   1.000  N
  N69      1.0000 0.82589  0.91064  0.37008  Biso   1.000  N
  N70      1.0000 0.37008  0.82589  0.91064  Biso   1.000  N
  N71      1.0000 0.91064  0.37008  0.82589  Biso   1.000  N
  N72      1.0000 0.62992  0.17411  0.91064  Biso   1.000  N
  N73      1.0000 0.82589  0.62992  0.08936  Biso   1.000  N
  N74      1.0000 0.08936  0.82589  0.62992  Biso   1.000  N
  N75      1.0000 0.62992  0.08936  0.82589  Biso   1.000  N
  N76      1.0000 0.91064  0.82589  0.37008  Biso   1.000  N
  N77      1.0000 0.37008  0.91064  0.82589  Biso   1.000  N
  N78      1.0000 0.62992  0.91064  0.17411  Biso   1.000  N
  N79      1.0000 0.17411  0.62992  0.91064  Biso   1.000  N
  N80      1.0000 0.91064  0.17411  0.62992  Biso   1.000  N
  N81      1.0000 0.82589  0.37008  0.91064  Biso   1.000  N
  N82      1.0000 0.62992  0.82589  0.91064  Biso   1.000  N
  N83      1.0000 0.91064  0.62992  0.82589  Biso   1.000  N
  N84      1.0000 0.82589  0.91064  0.62992  Biso   1.000  N
  N85      1.0000 0.17411  0.37008  0.08936  Biso   1.000  N
  N86      1.0000 0.08936  0.17411  0.37008  Biso   1.000  N
  N87      1.0000 0.37008  0.08936  0.17411  Biso   1.000  N
  N88      1.0000 0.37008  0.17411  0.91064  Biso   1.000  N
  N89      1.0000 0.91064  0.37008  0.17411  Biso   1.000  N
  N90      1.0000 0.17411  0.91064  0.37008  Biso   1.000  N
  N91      1.0000 0.08936  0.37008  0.82589  Biso   1.000  N
  N92      1.0000 0.82589  0.08936  0.37008  Biso   1.000  N
  N93      1.0000 0.17411  0.08936  0.62992  Biso   1.000  N
  N94      1.0000 0.62992  0.17411  0.08936  Biso   1.000  N
  N95      1.0000 0.08936  0.62992  0.17411  Biso   1.000  N
  N96      1.0000 0.37008  0.82589  0.08936  Biso   1.000  N
  H1       1.0000 0.26570  0.26570  0.89870  Biso   1.000  H
  H2       1.0000 0.89870  0.26570  0.26570  Biso   1.000  H
  H3       1.0000 0.26570  0.89870  0.26570  Biso   1.000  H
  H4       1.0000 0.10130  0.26570  0.73430  Biso   1.000  H
  H5       1.0000 0.73430  0.10130  0.26570  Biso   1.000  H
  H6       1.0000 0.26570  0.10130  0.73430  Biso   1.000  H
  H7       1.0000 0.73430  0.26570  0.10130  Biso   1.000  H
  H8       1.0000 0.10130  0.73430  0.26570  Biso   1.000  H
  H9       1.0000 0.26570  0.73430  0.10130  Biso   1.000  H
  H10      1.0000 0.26570  0.26570  0.10130  Biso   1.000  H
  H11      1.0000 0.10130  0.26570  0.26570  Biso   1.000  H
  H12      1.0000 0.26570  0.10130  0.26570  Biso   1.000  H
  H13      1.0000 0.73430  0.73430  0.89870  Biso   1.000  H
  H14      1.0000 0.89870  0.73430  0.73430  Biso   1.000  H
  H15      1.0000 0.73430  0.89870  0.73430  Biso   1.000  H
  H16      1.0000 0.73430  0.73430  0.10130  Biso   1.000  H
  H17      1.0000 0.10130  0.73430  0.73430  Biso   1.000  H
  H18      1.0000 0.73430  0.10130  0.73430  Biso   1.000  H
  H19      1.0000 0.89870  0.73430  0.26570  Biso   1.000  H
  H20      1.0000 0.26570  0.89870  0.73430  Biso   1.000  H
  H21      1.0000 0.73430  0.89870  0.26570  Biso   1.000  H
  H22      1.0000 0.26570  0.73430  0.89870  Biso   1.000  H
  H23      1.0000 0.89870  0.26570  0.73430  Biso   1.000  H
  H24      1.0000 0.73430  0.26570  0.89870  Biso   1.000  H
  Cu13     1.0000 0.22700  0.38420  0.00000  Biso   1.000  Cu
  Cu14     1.0000 0.00000  0.22700  0.38420  Biso   1.000  Cu
  Cu15     1.0000 0.38420  0.00000  0.22700  Biso   1.000  Cu
  Cu16     1.0000 0.00000  0.22700  0.61580  Biso   1.000  Cu
  Cu17     1.0000 0.61580  0.00000  0.22700  Biso   1.000  Cu
  Cu18     1.0000 0.38420  0.00000  0.77300  Biso   1.000  Cu
  Cu19     1.0000 0.77300  0.38420  0.00000  Biso   1.000  Cu
  Cu20     1.0000 0.00000  0.77300  0.38420  Biso   1.000  Cu
  Cu21     1.0000 0.22700  0.61580  0.00000  Biso   1.000  Cu
  Cu22     1.0000 0.38420  0.22700  0.00000  Biso   1.000  Cu
  Cu23     1.0000 0.00000  0.38420  0.22700  Biso   1.000  Cu
  Cu24     1.0000 0.22700  0.00000  0.38420  Biso   1.000  Cu
  Cu25     1.0000 0.77300  0.61580  0.00000  Biso   1.000  Cu
  Cu26     1.0000 0.00000  0.77300  0.61580  Biso   1.000  Cu
  Cu27     1.0000 0.61580  0.00000  0.77300  Biso   1.000  Cu
  Cu28     1.0000 0.61580  0.77300  0.00000  Biso   1.000  Cu
  Cu29     1.0000 0.00000  0.61580  0.77300  Biso   1.000  Cu
  Cu30     1.0000 0.77300  0.00000  0.61580  Biso   1.000  Cu
  Cu31     1.0000 0.00000  0.61580  0.22700  Biso   1.000  Cu
  Cu32     1.0000 0.22700  0.00000  0.61580  Biso   1.000  Cu
  Cu33     1.0000 0.77300  0.00000  0.38420  Biso   1.000  Cu
  Cu34     1.0000 0.38420  0.77300  0.00000  Biso   1.000  Cu
  Cu35     1.0000 0.00000  0.38420  0.77300  Biso   1.000  Cu
  Cu36     1.0000 0.61580  0.22700  0.00000  Biso   1.000  Cu
  C73      1.0000 0.29130  0.43880  0.00000  Biso   1.000  C
  C74      1.0000 0.00000  0.29130  0.43880  Biso   1.000  C
  C75      1.0000 0.43880  0.00000  0.29130  Biso   1.000  C
  C76      1.0000 0.00000  0.29130  0.56120  Biso   1.000  C
  C77      1.0000 0.56120  0.00000  0.29130  Biso   1.000  C
  C78      1.0000 0.43880  0.00000  0.70870  Biso   1.000  C
  C79      1.0000 0.70870  0.43880  0.00000  Biso   1.000  C
  C80      1.0000 0.00000  0.70870  0.43880  Biso   1.000  C
  C81      1.0000 0.29130  0.56120  0.00000  Biso   1.000  C
  C82      1.0000 0.43880  0.29130  0.00000  Biso   1.000  C
  C83      1.0000 0.00000  0.43880  0.29130  Biso   1.000  C
  C84      1.0000 0.29130  0.00000  0.43880  Biso   1.000  C
  C85      1.0000 0.70870  0.56120  0.00000  Biso   1.000  C
  C86      1.0000 0.00000  0.70870  0.56120  Biso   1.000  C
  C87      1.0000 0.56120  0.00000  0.70870  Biso   1.000  C
  C88      1.0000 0.56120  0.70870  0.00000  Biso   1.000  C
  C89      1.0000 0.00000  0.56120  0.70870  Biso   1.000  C
  C90      1.0000 0.70870  0.00000  0.56120  Biso   1.000  C
  C91      1.0000 0.00000  0.56120  0.29130  Biso   1.000  C
  C92      1.0000 0.29130  0.00000  0.56120  Biso   1.000  C
  C93      1.0000 0.70870  0.00000  0.43880  Biso   1.000  C
  C94      1.0000 0.43880  0.70870  0.00000  Biso   1.000  C
  C95      1.0000 0.00000  0.43880  0.70870  Biso   1.000  C
  C96      1.0000 0.56120  0.29130  0.00000  Biso   1.000  C
  O1       1.0000 0.27350  0.50000  0.00000  Biso   1.000  O
  O2       1.0000 0.00000  0.27350  0.50000  Biso   1.000  O
  O3       1.0000 0.50000  0.00000  0.27350  Biso   1.000  O
  O4       1.0000 0.50000  0.00000  0.72650  Biso   1.000  O
  O5       1.0000 0.72650  0.50000  0.00000  Biso   1.000  O
  O6       1.0000 0.00000  0.72650  0.50000  Biso   1.000  O
  O7       1.0000 0.50000  0.27350  0.00000  Biso   1.000  O
  O8       1.0000 0.00000  0.50000  0.27350  Biso   1.000  O
  O9       1.0000 0.27350  0.00000  0.50000  Biso   1.000  O
  O10      1.0000 0.50000  0.72650  0.00000  Biso   1.000  O
  O11      1.0000 0.00000  0.50000  0.72650  Biso   1.000  O
  O12      1.0000 0.72650  0.00000  0.50000  Biso   1.000  O
  Cl4      1.0000 0.35760  0.35760  0.00000  Biso   1.000  Cl
  Cl5      1.0000 0.00000  0.35760  0.35760  Biso   1.000  Cl
  Cl6      1.0000 0.35760  0.00000  0.35760  Biso   1.000  Cl
  Cl7      1.0000 0.00000  0.35760  0.64240  Biso   1.000  Cl
  Cl8      1.0000 0.64240  0.00000  0.35760  Biso   1.000  Cl
  Cl9      1.0000 0.35760  0.00000  0.64240  Biso   1.000  Cl
  Cl10     1.0000 0.64240  0.35760  0.00000  Biso   1.000  Cl
  Cl11     1.0000 0.00000  0.64240  0.35760  Biso   1.000  Cl
  Cl12     1.0000 0.35760  0.64240  0.00000  Biso   1.000  Cl
  Cl13     1.0000 0.64240  0.64240  0.00000  Biso   1.000  Cl
  Cl14     1.0000 0.00000  0.64240  0.64240  Biso   1.000  Cl
  Cl15     1.0000 0.64240  0.00000  0.64240  Biso   1.000  Cl
  O13      1.0000 0.25050  0.50000  0.00000  Biso   1.000  O
  O14      1.0000 0.00000  0.25050  0.50000  Biso   1.000  O
  O15      1.0000 0.50000  0.00000  0.25050  Biso   1.000  O
  O16      1.0000 0.50000  0.00000  0.74950  Biso   1.000  O
  O17      1.0000 0.74950  0.50000  0.00000  Biso   1.000  O
  O18      1.0000 0.00000  0.74950  0.50000  Biso   1.000  O
  O19      1.0000 0.50000  0.25050  0.00000  Biso   1.000  O
  O20      1.0000 0.00000  0.50000  0.25050  Biso   1.000  O
  O21      1.0000 0.25050  0.00000  0.50000  Biso   1.000  O
  O22      1.0000 0.50000  0.74950  0.00000  Biso   1.000  O
  O23      1.0000 0.00000  0.50000  0.74950  Biso   1.000  O
  O24      1.0000 0.74950  0.00000  0.50000  Biso   1.000  O
  O25      1.0000 0.31180  0.37960  0.00000  Biso   1.000  O
  O26      1.0000 0.00000  0.31180  0.37960  Biso   1.000  O
  O27      1.0000 0.37960  0.00000  0.31180  Biso   1.000  O
  O28      1.0000 0.00000  0.31180  0.62040  Biso   1.000  O
  O29      1.0000 0.62040  0.00000  0.31180  Biso   1.000  O
  O30      1.0000 0.37960  0.00000  0.68820  Biso   1.000  O
  O31      1.0000 0.68820  0.37960  0.00000  Biso   1.000  O
  O32      1.0000 0.00000  0.68820  0.37960  Biso   1.000  O
  O33      1.0000 0.31180  0.62040  0.00000  Biso   1.000  O
  O34      1.0000 0.37960  0.31180  0.00000  Biso   1.000  O
  O35      1.0000 0.00000  0.37960  0.31180  Biso   1.000  O
  O36      1.0000 0.31180  0.00000  0.37960  Biso   1.000  O
  O37      1.0000 0.68820  0.62040  0.00000  Biso   1.000  O
  O38      1.0000 0.00000  0.68820  0.62040  Biso   1.000  O
  O39      1.0000 0.62040  0.00000  0.68820  Biso   1.000  O
  O40      1.0000 0.62040  0.68820  0.00000  Biso   1.000  O
  O41      1.0000 0.00000  0.62040  0.68820  Biso   1.000  O
  O42      1.0000 0.68820  0.00000  0.62040  Biso   1.000  O
  O43      1.0000 0.00000  0.62040  0.31180  Biso   1.000  O
  O44      1.0000 0.31180  0.00000  0.62040  Biso   1.000  O
  O45      1.0000 0.68820  0.00000  0.37960  Biso   1.000  O
  O46      1.0000 0.37960  0.68820  0.00000  Biso   1.000  O
  O47      1.0000 0.00000  0.37960  0.68820  Biso   1.000  O
  O48      1.0000 0.62040  0.31180  0.00000  Biso   1.000  O
