data_image0
_cell_length_a       18.5323
_cell_length_b       18.5323
_cell_length_c       18.5323
_cell_angle_alpha    90
_cell_angle_beta     90
_cell_angle_gamma    90

_symmetry_space_group_name_H-M    "P 1"
_symmetry_int_tables_number       1

loop_
  _symmetry_equiv_pos_as_xyz
  'x, y, z'

loop_
  _atom_site_label
  _atom_site_occupancy
  _atom_site_fract_x
  _atom_site_fract_y
  _atom_site_fract_z
  _atom_site_thermal_displace_type
  _atom_site_B_iso_or_equiv
  _atom_site_type_symbol
  Cu1      1.0000 0.13300  0.50000  0.00000  Biso   1.000  Cu
  Cu2      1.0000 0.00000  0.13300  0.50000  Biso   1.000  Cu
  Cu3      1.0000 0.50000  0.00000  0.13300  Biso   1.000  Cu
  Cu4      1.0000 0.50000  0.00000  0.86700  Biso   1.000  Cu
  Cu5      1.0000 0.86700  0.50000  0.00000  Biso   1.000  Cu
  Cu6      1.0000 0.00000  0.86700  0.50000  Biso   1.000  Cu
  Cu7      1.0000 0.50000  0.13300  0.00000  Biso   1.000  Cu
  Cu8      1.0000 0.00000  0.50000  0.13300  Biso   1.000  Cu
  Cu9      1.0000 0.13300  0.00000  0.50000  Biso   1.000  Cu
  Cu10     1.0000 0.50000  0.86700  0.00000  Biso   1.000  Cu
  Cu11     1.0000 0.00000  0.50000  0.86700  Biso   1.000  Cu
  Cu12     1.0000 0.86700  0.00000  0.50000  Biso   1.000  Cu
  C1       1.0000 0.14780  0.33629  0.85220  Biso   1.000  C
  C2       1.0000 0.85220  0.14780  0.33629  Biso   1.000  C
  C3       1.0000 0.33629  0.85220  0.14780  Biso   1.000  C
  C4       1.0000 0.14780  0.14780  0.66371  Biso   1.000  C
  C5       1.0000 0.66371  0.14780  0.14780  Biso   1.000  C
  C6       1.0000 0.33629  0.14780  0.85220  Biso   1.000  C
  C7       1.0000 0.85220  0.33629  0.14780  Biso   1.000  C
  C8       1.0000 0.14780  0.85220  0.33629  Biso   1.000  C
  C9       1.0000 0.14780  0.66371  0.14780  Biso   1.000  C
  C10      1.0000 0.33629  0.14780  0.14780  Biso   1.000  C
  C11      1.0000 0.14780  0.33629  0.14780  Biso   1.000  C
  C12      1.0000 0.14780  0.14780  0.33629  Biso   1.000  C
  C13      1.0000 0.85220  0.66371  0.85220  Biso   1.000  C
  C14      1.0000 0.85220  0.85220  0.66371  Biso   1.000  C
  C15      1.0000 0.66371  0.85220  0.85220  Biso   1.000  C
  C16      1.0000 0.66371  0.85220  0.14780  Biso   1.000  C
  C17      1.0000 0.14780  0.66371  0.85220  Biso   1.000  C
  C18      1.0000 0.85220  0.14780  0.66371  Biso   1.000  C
  C19      1.0000 0.85220  0.66371  0.14780  Biso   1.000  C
  C20      1.0000 0.14780  0.85220  0.66371  Biso   1.000  C
  C21      1.0000 0.85220  0.85220  0.33629  Biso   1.000  C
  C22      1.0000 0.33629  0.85220  0.85220  Biso   1.000  C
  C23      1.0000 0.85220  0.33629  0.85220  Biso   1.000  C
  C24      1.0000 0.66371  0.14780  0.85220  Biso   1.000  C
  C25      1.0000 0.17930  0.27168  0.82070  Biso   1.000  C
  C26      1.0000 0.82070  0.17930  0.27168  Biso   1.000  C
  C27      1.0000 0.27168  0.82070  0.17930  Biso   1.000  C
  C28      1.0000 0.17930  0.17930  0.72832  Biso   1.000  C
  C29      1.0000 0.72832  0.17930  0.17930  Biso   1.000  C
  C30      1.0000 0.27168  0.17930  0.82070  Biso   1.000  C
  C31      1.0000 0.82070  0.27168  0.17930  Biso   1.000  C
  C32      1.0000 0.17930  0.82070  0.27168  Biso   1.000  C
  C33      1.0000 0.17930  0.72832  0.17930  Biso   1.000  C
  C34      1.0000 0.27168  0.17930  0.17930  Biso   1.000  C
  C35      1.0000 0.17930  0.27168  0.17930  Biso   1.000  C
  C36      1.0000 0.17930  0.17930  0.27168  Biso   1.000  C
  C37      1.0000 0.82070  0.72832  0.82070  Biso   1.000  C
  C38      1.0000 0.82070  0.82070  0.72832  Biso   1.000  C
  C39      1.0000 0.72832  0.82070  0.82070  Biso   1.000  C
  C40      1.0000 0.72832  0.82070  0.17930  Biso   1.000  C
  C41      1.0000 0.17930  0.72832  0.82070  Biso   1.000  C
  C42      1.0000 0.82070  0.17930  0.72832  Biso   1.000  C
  C43      1.0000 0.82070  0.72832  0.17930  Biso   1.000  C
  C44      1.0000 0.17930  0.82070  0.72832  Biso   1.000  C
  C45      1.0000 0.82070  0.82070  0.27168  Biso   1.000  C
  C46      1.0000 0.27168  0.82070  0.82070  Biso   1.000  C
  C47      1.0000 0.82070  0.27168  0.82070  Biso   1.000  C
  C48      1.0000 0.72832  0.17930  0.82070  Biso   1.000  C
  C49      1.0000 0.24046  0.24046  0.85260  Biso   1.000  C
  C50      1.0000 0.85260  0.24046  0.24046  Biso   1.000  C
  C51      1.0000 0.24046  0.85260  0.24046  Biso   1.000  C
  C52      1.0000 0.14740  0.24046  0.75954  Biso   1.000  C
  C53      1.0000 0.75954  0.14740  0.24046  Biso   1.000  C
  C54      1.0000 0.24046  0.14740  0.75954  Biso   1.000  C
  C55      1.0000 0.75954  0.24046  0.14740  Biso   1.000  C
  C56      1.0000 0.14740  0.75954  0.24046  Biso   1.000  C
  C57      1.0000 0.24046  0.75954  0.14740  Biso   1.000  C
  C58      1.0000 0.24046  0.24046  0.14740  Biso   1.000  C
  C59      1.0000 0.14740  0.24046  0.24046  Biso   1.000  C
  C60      1.0000 0.24046  0.14740  0.24046  Biso   1.000  C
  C61      1.0000 0.75954  0.75954  0.85260  Biso   1.000  C
  C62      1.0000 0.85260  0.75954  0.75954  Biso   1.000  C
  C63      1.0000 0.75954  0.85260  0.75954  Biso   1.000  C
  C64      1.0000 0.75954  0.75954  0.14740  Biso   1.000  C
  C65      1.0000 0.14740  0.75954  0.75954  Biso   1.000  C
  C66      1.0000 0.75954  0.14740  0.75954  Biso   1.000  C
  C67      1.0000 0.85260  0.75954  0.24046  Biso   1.000  C
  C68      1.0000 0.24046  0.85260  0.75954  Biso   1.000  C
  C69      1.0000 0.75954  0.85260  0.24046  Biso   1.000  C
  C70      1.0000 0.24046  0.75954  0.85260  Biso   1.000  C
  C71      1.0000 0.85260  0.24046  0.75954  Biso   1.000  C
  C72      1.0000 0.75954  0.24046  0.85260  Biso   1.000  C
  Cl1      1.0000 0.00000  0.50000  0.00000  Biso   1.000  Cl
  Cl2      1.0000 0.00000  0.00000  0.50000  Biso   1.000  Cl
  Cl3      1.0000 0.50000  0.00000  0.00000  Biso   1.000  Cl
  N1       1.0000 0.12987  0.42584  0.92216  Biso   1.000  N
  N2       1.0000 0.92216  0.12987  0.42584  Biso   1.000  N
  N3       1.0000 0.42584  0.92216  0.12987  Biso   1.000  N
  N4       1.0000 0.07784  0.12987  0.57416  Biso   1.000  N
  N5       1.0000 0.57416  0.07784  0.12987  Biso   1.000  N
  N6       1.0000 0.42584  0.07784  0.87013  Biso   1.000  N
  N7       1.0000 0.87013  0.42584  0.07784  Biso   1.000  N
  N8       1.0000 0.07784  0.87013  0.42584  Biso   1.000  N
  N9       1.0000 0.12987  0.57416  0.07784  Biso   1.000  N
  N10      1.0000 0.42584  0.12987  0.07784  Biso   1.000  N
  N11      1.0000 0.07784  0.42584  0.12987  Biso   1.000  N
  N12      1.0000 0.12987  0.07784  0.42584  Biso   1.000  N
  N13      1.0000 0.87013  0.57416  0.92216  Biso   1.000  N
  N14      1.0000 0.92216  0.87013  0.57416  Biso   1.000  N
  N15      1.0000 0.57416  0.92216  0.87013  Biso   1.000  N
  N16      1.0000 0.57416  0.87013  0.07784  Biso   1.000  N
  N17      1.0000 0.07784  0.57416  0.87013  Biso   1.000  N
  N18      1.0000 0.87013  0.07784  0.57416  Biso   1.000  N
  N19      1.0000 0.92216  0.57416  0.12987  Biso   1.000  N
  N20      1.0000 0.12987  0.92216  0.57416  Biso   1.000  N
  N21      1.0000 0.87013  0.92216  0.42584  Biso   1.000  N
  N22      1.0000 0.42584  0.87013  0.92216  Biso   1.000  N
  N23      1.0000 0.92216  0.42584  0.87013  Biso   1.000  N
  N24      1.0000 0.57416  0.12987  0.92216  Biso   1.000  N
  N25      1.0000 0.87013  0.57416  0.07784  Biso   1.000  N
  N26      1.0000 0.07784  0.87013  0.57416  Biso   1.000  N
  N27      1.0000 0.57416  0.07784  0.87013  Biso   1.000  N
  N28      1.0000 0.92216  0.87013  0.42584  Biso   1.000  N
  N29      1.0000 0.42584  0.92216  0.87013  Biso   1.000  N
  N30      1.0000 0.57416  0.92216  0.12987  Biso   1.000  N
  N31      1.0000 0.12987  0.57416  0.92216  Biso   1.000  N
  N32      1.0000 0.92216  0.12987  0.57416  Biso   1.000  N
  N33      1.0000 0.87013  0.42584  0.92216  Biso   1.000  N
  N34      1.0000 0.57416  0.87013  0.92216  Biso   1.000  N
  N35      1.0000 0.92216  0.57416  0.87013  Biso   1.000  N
  N36      1.0000 0.87013  0.92216  0.57416  Biso   1.000  N
  N37      1.0000 0.12987  0.42584  0.07784  Biso   1.000  N
  N38      1.0000 0.07784  0.12987  0.42584  Biso   1.000  N
  N39      1.0000 0.42584  0.07784  0.12987  Biso   1.000  N
  N40      1.0000 0.42584  0.12987  0.92216  Biso   1.000  N
  N41      1.0000 0.92216  0.42584  0.12987  Biso   1.000  N
  N42      1.0000 0.12987  0.92216  0.42584  Biso   1.000  N
  N43      1.0000 0.07784  0.42584  0.87013  Biso   1.000  N
  N44      1.0000 0.87013  0.07784  0.42584  Biso   1.000  N
  N45      1.0000 0.12987  0.07784  0.57416  Biso   1.000  N
  N46      1.0000 0.57416  0.12987  0.07784  Biso   1.000  N
  N47      1.0000 0.07784  0.57416  0.12987  Biso   1.000  N
  N48      1.0000 0.42584  0.87013  0.07784  Biso   1.000  N
  N49      1.0000 0.17437  0.36991  0.91101  Biso   1.000  N
  N50      1.0000 0.91101  0.17437  0.36991  Biso   1.000  N
  N51      1.0000 0.36991  0.91101  0.17437  Biso   1.000  N
  N52      1.0000 0.08899  0.17437  0.63009  Biso   1.000  N
  N53      1.0000 0.63009  0.08899  0.17437  Biso   1.000  N
  N54      1.0000 0.36991  0.08899  0.82563  Biso   1.000  N
  N55      1.0000 0.82563  0.36991  0.08899  Biso   1.000  N
  N56      1.0000 0.08899  0.82563  0.36991  Biso   1.000  N
  N57      1.0000 0.17437  0.63009  0.08899  Biso   1.000  N
  N58      1.0000 0.36991  0.17437  0.08899  Biso   1.000  N
  N59      1.0000 0.08899  0.36991  0.17437  Biso   1.000  N
  N60      1.0000 0.17437  0.08899  0.36991  Biso   1.000  N
  N61      1.0000 0.82563  0.63009  0.91101  Biso   1.000  N
  N62      1.0000 0.91101  0.82563  0.63009  Biso   1.000  N
  N63      1.0000 0.63009  0.91101  0.82563  Biso   1.000  N
  N64      1.0000 0.63009  0.82563  0.08899  Biso   1.000  N
  N65      1.0000 0.08899  0.63009  0.82563  Biso   1.000  N
  N66      1.0000 0.82563  0.08899  0.63009  Biso   1.000  N
  N67      1.0000 0.91101  0.63009  0.17437  Biso   1.000  N
  N68      1.0000 0.17437  0.91101  0.63009  Biso   1.000  N
  N69      1.0000 0.82563  0.91101  0.36991  Biso   1.000  N
  N70      1.0000 0.36991  0.82563  0.91101  Biso   1.000  N
  N71      1.0000 0.91101  0.36991  0.82563  Biso   1.000  N
  N72      1.0000 0.63009  0.17437  0.91101  Biso   1.000  N
  N73      1.0000 0.82563  0.63009  0.08899  Biso   1.000  N
  N74      1.0000 0.08899  0.82563  0.63009  Biso   1.000  N
  N75      1.0000 0.63009  0.08899  0.82563  Biso   1.000  N
  N76      1.0000 0.91101  0.82563  0.36991  Biso   1.000  N
  N77      1.0000 0.36991  0.91101  0.82563  Biso   1.000  N
  N78      1.0000 0.63009  0.91101  0.17437  Biso   1.000  N
  N79      1.0000 0.17437  0.63009  0.91101  Biso   1.000  N
  N80      1.0000 0.91101  0.17437  0.63009  Biso   1.000  N
  N81      1.0000 0.82563  0.36991  0.91101  Biso   1.000  N
  N82      1.0000 0.63009  0.82563  0.91101  Biso   1.000  N
  N83      1.0000 0.91101  0.63009  0.82563  Biso   1.000  N
  N84      1.0000 0.82563  0.91101  0.63009  Biso   1.000  N
  N85      1.0000 0.17437  0.36991  0.08899  Biso   1.000  N
  N86      1.0000 0.08899  0.17437  0.36991  Biso   1.000  N
  N87      1.0000 0.36991  0.08899  0.17437  Biso   1.000  N
  N88      1.0000 0.36991  0.17437  0.91101  Biso   1.000  N
  N89      1.0000 0.91101  0.36991  0.17437  Biso   1.000  N
  N90      1.0000 0.17437  0.91101  0.36991  Biso   1.000  N
  N91      1.0000 0.08899  0.36991  0.82563  Biso   1.000  N
  N92      1.0000 0.82563  0.08899  0.36991  Biso   1.000  N
  N93      1.0000 0.17437  0.08899  0.63009  Biso   1.000  N
  N94      1.0000 0.63009  0.17437  0.08899  Biso   1.000  N
  N95      1.0000 0.08899  0.63009  0.17437  Biso   1.000  N
  N96      1.0000 0.36991  0.82563  0.08899  Biso   1.000  N
  H1       1.0000 0.26360  0.26360  0.89860  Biso   1.000  H
  H2       1.0000 0.89860  0.26360  0.26360  Biso   1.000  H
  H3       1.0000 0.26360  0.89860  0.26360  Biso   1.000  H
  H4       1.0000 0.10140  0.26360  0.73640  Biso   1.000  H
  H5       1.0000 0.73640  0.10140  0.26360  Biso   1.000  H
  H6       1.0000 0.26360  0.10140  0.73640  Biso   1.000  H
  H7       1.0000 0.73640  0.26360  0.10140  Biso   1.000  H
  H8       1.0000 0.10140  0.73640  0.26360  Biso   1.000  H
  H9       1.0000 0.26360  0.73640  0.10140  Biso   1.000  H
  H10      1.0000 0.26360  0.26360  0.10140  Biso   1.000  H
  H11      1.0000 0.10140  0.26360  0.26360  Biso   1.000  H
  H12      1.0000 0.26360  0.10140  0.26360  Biso   1.000  H
  H13      1.0000 0.73640  0.73640  0.89860  Biso   1.000  H
  H14      1.0000 0.89860  0.73640  0.73640  Biso   1.000  H
  H15      1.0000 0.73640  0.89860  0.73640  Biso   1.000  H
  H16      1.0000 0.73640  0.73640  0.10140  Biso   1.000  H
  H17      1.0000 0.10140  0.73640  0.73640  Biso   1.000  H
  H18      1.0000 0.73640  0.10140  0.73640  Biso   1.000  H
  H19      1.0000 0.89860  0.73640  0.26360  Biso   1.000  H
  H20      1.0000 0.26360  0.89860  0.73640  Biso   1.000  H
  H21      1.0000 0.73640  0.89860  0.26360  Biso   1.000  H
  H22      1.0000 0.26360  0.73640  0.89860  Biso   1.000  H
  H23      1.0000 0.89860  0.26360  0.73640  Biso   1.000  H
  H24      1.0000 0.73640  0.26360  0.89860  Biso   1.000  H
  Cl4      1.0000 0.34910  0.34910  0.00000  Biso   1.000  Cl
  Cl5      1.0000 0.00000  0.34910  0.34910  Biso   1.000  Cl
  Cl6      1.0000 0.34910  0.00000  0.34910  Biso   1.000  Cl
  Cl7      1.0000 0.00000  0.34910  0.65090  Biso   1.000  Cl
  Cl8      1.0000 0.65090  0.00000  0.34910  Biso   1.000  Cl
  Cl9      1.0000 0.34910  0.00000  0.65090  Biso   1.000  Cl
  Cl10     1.0000 0.65090  0.34910  0.00000  Biso   1.000  Cl
  Cl11     1.0000 0.00000  0.65090  0.34910  Biso   1.000  Cl
  Cl12     1.0000 0.34910  0.65090  0.00000  Biso   1.000  Cl
  Cl13     1.0000 0.65090  0.65090  0.00000  Biso   1.000  Cl
  Cl14     1.0000 0.00000  0.65090  0.65090  Biso   1.000  Cl
  Cl15     1.0000 0.65090  0.00000  0.65090  Biso   1.000  Cl
  C73      1.0000 0.00000  0.27220  0.03580  Biso   1.000  C
  C74      1.0000 0.03580  0.00000  0.27220  Biso   1.000  C
  C75      1.0000 0.27220  0.03580  0.00000  Biso   1.000  C
  C76      1.0000 0.96420  0.00000  0.72780  Biso   1.000  C
  C77      1.0000 0.72780  0.96420  0.00000  Biso   1.000  C
  C78      1.0000 0.27220  0.96420  0.00000  Biso   1.000  C
  C79      1.0000 0.00000  0.27220  0.96420  Biso   1.000  C
  C80      1.0000 0.96420  0.00000  0.27220  Biso   1.000  C
  C81      1.0000 0.00000  0.72780  0.96420  Biso   1.000  C
  C82      1.0000 0.27220  0.00000  0.96420  Biso   1.000  C
  C83      1.0000 0.96420  0.27220  0.00000  Biso   1.000  C
  C84      1.0000 0.00000  0.96420  0.27220  Biso   1.000  C
  C85      1.0000 0.00000  0.72780  0.03580  Biso   1.000  C
  C86      1.0000 0.03580  0.00000  0.72780  Biso   1.000  C
  C87      1.0000 0.72780  0.03580  0.00000  Biso   1.000  C
  C88      1.0000 0.72780  0.00000  0.96420  Biso   1.000  C
  C89      1.0000 0.96420  0.72780  0.00000  Biso   1.000  C
  C90      1.0000 0.00000  0.96420  0.72780  Biso   1.000  C
  C91      1.0000 0.03580  0.72780  0.00000  Biso   1.000  C
  C92      1.0000 0.00000  0.03580  0.72780  Biso   1.000  C
  C93      1.0000 0.00000  0.03580  0.27220  Biso   1.000  C
  C94      1.0000 0.27220  0.00000  0.03580  Biso   1.000  C
  C95      1.0000 0.03580  0.27220  0.00000  Biso   1.000  C
  C96      1.0000 0.72780  0.00000  0.03580  Biso   1.000  C
  O1       1.0000 0.00000  0.22120  0.07210  Biso   1.000  O
  O2       1.0000 0.07210  0.00000  0.22120  Biso   1.000  O
  O3       1.0000 0.22120  0.07210  0.00000  Biso   1.000  O
  O4       1.0000 0.92790  0.00000  0.77880  Biso   1.000  O
  O5       1.0000 0.77880  0.92790  0.00000  Biso   1.000  O
  O6       1.0000 0.22120  0.92790  0.00000  Biso   1.000  O
  O7       1.0000 0.00000  0.22120  0.92790  Biso   1.000  O
  O8       1.0000 0.92790  0.00000  0.22120  Biso   1.000  O
  O9       1.0000 0.00000  0.77880  0.92790  Biso   1.000  O
  O10      1.0000 0.22120  0.00000  0.92790  Biso   1.000  O
  O11      1.0000 0.92790  0.22120  0.00000  Biso   1.000  O
  O12      1.0000 0.00000  0.92790  0.22120  Biso   1.000  O
  O13      1.0000 0.00000  0.77880  0.07210  Biso   1.000  O
  O14      1.0000 0.07210  0.00000  0.77880  Biso   1.000  O
  O15      1.0000 0.77880  0.07210  0.00000  Biso   1.000  O
  O16      1.0000 0.77880  0.00000  0.92790  Biso   1.000  O
  O17      1.0000 0.92790  0.77880  0.00000  Biso   1.000  O
  O18      1.0000 0.00000  0.92790  0.77880  Biso   1.000  O
  O19      1.0000 0.07210  0.77880  0.00000  Biso   1.000  O
  O20      1.0000 0.00000  0.07210  0.77880  Biso   1.000  O
  O21      1.0000 0.00000  0.07210  0.22120  Biso   1.000  O
  O22      1.0000 0.22120  0.00000  0.07210  Biso   1.000  O
  O23      1.0000 0.07210  0.22120  0.00000  Biso   1.000  O
  O24      1.0000 0.77880  0.00000  0.07210  Biso   1.000  O
  O25      1.0000 0.00000  0.32350  0.00000  Biso   1.000  O
  O26      1.0000 0.00000  0.00000  0.32350  Biso   1.000  O
  O27      1.0000 0.32350  0.00000  0.00000  Biso   1.000  O
  O28      1.0000 0.00000  0.00000  0.67650  Biso   1.000  O
  O29      1.0000 0.67650  0.00000  0.00000  Biso   1.000  O
  O30      1.0000 0.00000  0.67650  0.00000  Biso   1.000  O
  C97      1.0000 0.00000  0.15970  0.15970  Biso   1.000  C
  C98      1.0000 0.15970  0.00000  0.15970  Biso   1.000  C
  C99      1.0000 0.15970  0.15970  0.00000  Biso   1.000  C
  C100     1.0000 0.84030  0.00000  0.84030  Biso   1.000  C
  C101     1.0000 0.84030  0.84030  0.00000  Biso   1.000  C
  C102     1.0000 0.15970  0.84030  0.00000  Biso   1.000  C
  C103     1.0000 0.00000  0.15970  0.84030  Biso   1.000  C
  C104     1.0000 0.84030  0.00000  0.15970  Biso   1.000  C
  C105     1.0000 0.00000  0.84030  0.84030  Biso   1.000  C
  C106     1.0000 0.15970  0.00000  0.84030  Biso   1.000  C
  C107     1.0000 0.84030  0.15970  0.00000  Biso   1.000  C
  C108     1.0000 0.00000  0.84030  0.15970  Biso   1.000  C
  O31      1.0000 0.00000  0.17300  0.09900  Biso   1.000  O
  O32      1.0000 0.09900  0.00000  0.17300  Biso   1.000  O
  O33      1.0000 0.17300  0.09900  0.00000  Biso   1.000  O
  O34      1.0000 0.90100  0.00000  0.82700  Biso   1.000  O
  O35      1.0000 0.82700  0.90100  0.00000  Biso   1.000  O
  O36      1.0000 0.17300  0.90100  0.00000  Biso   1.000  O
  O37      1.0000 0.00000  0.17300  0.90100  Biso   1.000  O
  O38      1.0000 0.90100  0.00000  0.17300  Biso   1.000  O
  O39      1.0000 0.00000  0.82700  0.90100  Biso   1.000  O
  O40      1.0000 0.17300  0.00000  0.90100  Biso   1.000  O
  O41      1.0000 0.90100  0.17300  0.00000  Biso   1.000  O
  O42      1.0000 0.00000  0.90100  0.17300  Biso   1.000  O
  O43      1.0000 0.00000  0.82700  0.09900  Biso   1.000  O
  O44      1.0000 0.09900  0.00000  0.82700  Biso   1.000  O
  O45      1.0000 0.82700  0.09900  0.00000  Biso   1.000  O
  O46      1.0000 0.82700  0.00000  0.90100  Biso   1.000  O
  O47      1.0000 0.90100  0.82700  0.00000  Biso   1.000  O
  O48      1.0000 0.00000  0.90100  0.82700  Biso   1.000  O
  O49      1.0000 0.09900  0.82700  0.00000  Biso   1.000  O
  O50      1.0000 0.00000  0.09900  0.82700  Biso   1.000  O
  O51      1.0000 0.00000  0.09900  0.17300  Biso   1.000  O
  O52      1.0000 0.17300  0.00000  0.09900  Biso   1.000  O
  O53      1.0000 0.09900  0.17300  0.00000  Biso   1.000  O
  O54      1.0000 0.82700  0.00000  0.09900  Biso   1.000  O
  O55      1.0000 0.00000  0.14600  0.21990  Biso   1.000  O
  O56      1.0000 0.21990  0.00000  0.14600  Biso   1.000  O
  O57      1.0000 0.14600  0.21990  0.00000  Biso   1.000  O
  O58      1.0000 0.78010  0.00000  0.85400  Biso   1.000  O
  O59      1.0000 0.85400  0.78010  0.00000  Biso   1.000  O
  O60      1.0000 0.14600  0.78010  0.00000  Biso   1.000  O
  O61      1.0000 0.00000  0.14600  0.78010  Biso   1.000  O
  O62      1.0000 0.78010  0.00000  0.14600  Biso   1.000  O
  O63      1.0000 0.00000  0.85400  0.78010  Biso   1.000  O
  O64      1.0000 0.14600  0.00000  0.78010  Biso   1.000  O
  O65      1.0000 0.78010  0.14600  0.00000  Biso   1.000  O
  O66      1.0000 0.00000  0.78010  0.14600  Biso   1.000  O
  O67      1.0000 0.00000  0.85400  0.21990  Biso   1.000  O
  O68      1.0000 0.21990  0.00000  0.85400  Biso   1.000  O
  O69      1.0000 0.85400  0.21990  0.00000  Biso   1.000  O
  O70      1.0000 0.85400  0.00000  0.78010  Biso   1.000  O
  O71      1.0000 0.78010  0.85400  0.00000  Biso   1.000  O
  O72      1.0000 0.00000  0.78010  0.85400  Biso   1.000  O
  O73      1.0000 0.21990  0.85400  0.00000  Biso   1.000  O
  O74      1.0000 0.00000  0.21990  0.85400  Biso   1.000  O
  O75      1.0000 0.00000  0.21990  0.14600  Biso   1.000  O
  O76      1.0000 0.14600  0.00000  0.21990  Biso   1.000  O
  O77      1.0000 0.21990  0.14600  0.00000  Biso   1.000  O
  O78      1.0000 0.85400  0.00000  0.21990  Biso   1.000  O
  C109     1.0000 0.09500  0.06640  0.06640  Biso   1.000  C
  C110     1.0000 0.06640  0.09500  0.06640  Biso   1.000  C
  C111     1.0000 0.06640  0.06640  0.09500  Biso   1.000  C
  C112     1.0000 0.93360  0.09500  0.93360  Biso   1.000  C
  C113     1.0000 0.93360  0.93360  0.09500  Biso   1.000  C
  C114     1.0000 0.06640  0.93360  0.90500  Biso   1.000  C
  C115     1.0000 0.90500  0.06640  0.93360  Biso   1.000  C
  C116     1.0000 0.93360  0.90500  0.06640  Biso   1.000  C
  C117     1.0000 0.09500  0.93360  0.93360  Biso   1.000  C
  C118     1.0000 0.06640  0.09500  0.93360  Biso   1.000  C
  C119     1.0000 0.93360  0.06640  0.09500  Biso   1.000  C
  C120     1.0000 0.09500  0.93360  0.06640  Biso   1.000  C
  C121     1.0000 0.90500  0.93360  0.06640  Biso   1.000  C
  C122     1.0000 0.06640  0.90500  0.93360  Biso   1.000  C
  C123     1.0000 0.93360  0.06640  0.90500  Biso   1.000  C
  C124     1.0000 0.93360  0.90500  0.93360  Biso   1.000  C
  C125     1.0000 0.93360  0.93360  0.90500  Biso   1.000  C
  C126     1.0000 0.90500  0.93360  0.93360  Biso   1.000  C
  C127     1.0000 0.06640  0.93360  0.09500  Biso   1.000  C
  C128     1.0000 0.09500  0.06640  0.93360  Biso   1.000  C
  C129     1.0000 0.90500  0.06640  0.06640  Biso   1.000  C
  C130     1.0000 0.06640  0.90500  0.06640  Biso   1.000  C
  C131     1.0000 0.06640  0.06640  0.90500  Biso   1.000  C
  C132     1.0000 0.93360  0.09500  0.06640  Biso   1.000  C
  O79      1.0000 0.10960  0.10960  0.10960  Biso   1.000  O
  O80      1.0000 0.89040  0.10960  0.89040  Biso   1.000  O
  O81      1.0000 0.89040  0.89040  0.10960  Biso   1.000  O
  O82      1.0000 0.10960  0.89040  0.89040  Biso   1.000  O
  O83      1.0000 0.10960  0.10960  0.89040  Biso   1.000  O
  O84      1.0000 0.89040  0.10960  0.10960  Biso   1.000  O
  O85      1.0000 0.10960  0.89040  0.10960  Biso   1.000  O
  O86      1.0000 0.89040  0.89040  0.89040  Biso   1.000  O
  O87      1.0000 0.08000  0.02340  0.02340  Biso   1.000  O
  O88      1.0000 0.02340  0.08000  0.02340  Biso   1.000  O
  O89      1.0000 0.02340  0.02340  0.08000  Biso   1.000  O
  O90      1.0000 0.97660  0.08000  0.97660  Biso   1.000  O
  O91      1.0000 0.97660  0.97660  0.08000  Biso   1.000  O
  O92      1.0000 0.02340  0.97660  0.92000  Biso   1.000  O
  O93      1.0000 0.92000  0.02340  0.97660  Biso   1.000  O
  O94      1.0000 0.97660  0.92000  0.02340  Biso   1.000  O
  O95      1.0000 0.08000  0.97660  0.97660  Biso   1.000  O
  O96      1.0000 0.02340  0.08000  0.97660  Biso   1.000  O
  O97      1.0000 0.97660  0.02340  0.08000  Biso   1.000  O
  O98      1.0000 0.08000  0.97660  0.02340  Biso   1.000  O
  O99      1.0000 0.92000  0.97660  0.02340  Biso   1.000  O
  O100     1.0000 0.02340  0.92000  0.97660  Biso   1.000  O
  O101     1.0000 0.97660  0.02340  0.92000  Biso   1.000  O
  O102     1.0000 0.97660  0.92000  0.97660  Biso   1.000  O
  O103     1.0000 0.97660  0.97660  0.92000  Biso   1.000  O
  O104     1.0000 0.92000  0.97660  0.97660  Biso   1.000  O
  O105     1.0000 0.02340  0.97660  0.08000  Biso   1.000  O
  O106     1.0000 0.08000  0.02340  0.97660  Biso   1.000  O
  O107     1.0000 0.92000  0.02340  0.02340  Biso   1.000  O
  O108     1.0000 0.02340  0.92000  0.02340  Biso   1.000  O
  O109     1.0000 0.02340  0.02340  0.92000  Biso   1.000  O
  O110     1.0000 0.97660  0.08000  0.02340  Biso   1.000  O
  Cu13     1.0000 0.21600  0.32820  0.00000  Biso   1.000  Cu
  Cu14     1.0000 0.00000  0.21600  0.32820  Biso   1.000  Cu
  Cu15     1.0000 0.32820  0.00000  0.21600  Biso   1.000  Cu
  Cu16     1.0000 0.00000  0.21600  0.67180  Biso   1.000  Cu
  Cu17     1.0000 0.67180  0.00000  0.21600  Biso   1.000  Cu
  Cu18     1.0000 0.32820  0.00000  0.78400  Biso   1.000  Cu
  Cu19     1.0000 0.78400  0.32820  0.00000  Biso   1.000  Cu
  Cu20     1.0000 0.00000  0.78400  0.32820  Biso   1.000  Cu
  Cu21     1.0000 0.21600  0.67180  0.00000  Biso   1.000  Cu
  Cu22     1.0000 0.32820  0.21600  0.00000  Biso   1.000  Cu
  Cu23     1.0000 0.00000  0.32820  0.21600  Biso   1.000  Cu
  Cu24     1.0000 0.21600  0.00000  0.32820  Biso   1.000  Cu
  Cu25     1.0000 0.78400  0.67180  0.00000  Biso   1.000  Cu
  Cu26     1.0000 0.00000  0.78400  0.67180  Biso   1.000  Cu
  Cu27     1.0000 0.67180  0.00000  0.78400  Biso   1.000  Cu
  Cu28     1.0000 0.67180  0.78400  0.00000  Biso   1.000  Cu
  Cu29     1.0000 0.00000  0.67180  0.78400  Biso   1.000  Cu
  Cu30     1.0000 0.78400  0.00000  0.67180  Biso   1.000  Cu
  Cu31     1.0000 0.00000  0.67180  0.21600  Biso   1.000  Cu
  Cu32     1.0000 0.21600  0.00000  0.67180  Biso   1.000  Cu
  Cu33     1.0000 0.78400  0.00000  0.32820  Biso   1.000  Cu
  Cu34     1.0000 0.32820  0.78400  0.00000  Biso   1.000  Cu
  Cu35     1.0000 0.00000  0.32820  0.78400  Biso   1.000  Cu
  Cu36     1.0000 0.67180  0.21600  0.00000  Biso   1.000  Cu
  O111     1.0000 0.25050  0.50000  0.00000  Biso   1.000  O
  O112     1.0000 0.00000  0.25050  0.50000  Biso   1.000  O
  O113     1.0000 0.50000  0.00000  0.25050  Biso   1.000  O
  O114     1.0000 0.50000  0.00000  0.74950  Biso   1.000  O
  O115     1.0000 0.74950  0.50000  0.00000  Biso   1.000  O
  O116     1.0000 0.00000  0.74950  0.50000  Biso   1.000  O
  O117     1.0000 0.50000  0.25050  0.00000  Biso   1.000  O
  O118     1.0000 0.00000  0.50000  0.25050  Biso   1.000  O
  O119     1.0000 0.25050  0.00000  0.50000  Biso   1.000  O
  O120     1.0000 0.50000  0.74950  0.00000  Biso   1.000  O
  O121     1.0000 0.00000  0.50000  0.74950  Biso   1.000  O
  O122     1.0000 0.74950  0.00000  0.50000  Biso   1.000  O
  O123     1.0000 0.27530  0.50000  0.00000  Biso   1.000  O
  O124     1.0000 0.00000  0.27530  0.50000  Biso   1.000  O
  O125     1.0000 0.50000  0.00000  0.27530  Biso   1.000  O
  O126     1.0000 0.50000  0.00000  0.72470  Biso   1.000  O
  O127     1.0000 0.72470  0.50000  0.00000  Biso   1.000  O
  O128     1.0000 0.00000  0.72470  0.50000  Biso   1.000  O
  O129     1.0000 0.50000  0.27530  0.00000  Biso   1.000  O
  O130     1.0000 0.00000  0.50000  0.27530  Biso   1.000  O
  O131     1.0000 0.27530  0.00000  0.50000  Biso   1.000  O
  O132     1.0000 0.50000  0.72470  0.00000  Biso   1.000  O
  O133     1.0000 0.00000  0.50000  0.72470  Biso   1.000  O
  O134     1.0000 0.72470  0.00000  0.50000  Biso   1.000  O
  C133     1.0000 0.29150  0.43892  0.00000  Biso   1.000  C
  C134     1.0000 0.00000  0.29150  0.43892  Biso   1.000  C
  C135     1.0000 0.43892  0.00000  0.29150  Biso   1.000  C
  C136     1.0000 0.00000  0.29150  0.56108  Biso   1.000  C
  C137     1.0000 0.56108  0.00000  0.29150  Biso   1.000  C
  C138     1.0000 0.43892  0.00000  0.70850  Biso   1.000  C
  C139     1.0000 0.70850  0.43892  0.00000  Biso   1.000  C
  C140     1.0000 0.00000  0.70850  0.43892  Biso   1.000  C
  C141     1.0000 0.29150  0.56108  0.00000  Biso   1.000  C
  C142     1.0000 0.43892  0.29150  0.00000  Biso   1.000  C
  C143     1.0000 0.00000  0.43892  0.29150  Biso   1.000  C
  C144     1.0000 0.29150  0.00000  0.43892  Biso   1.000  C
  C145     1.0000 0.70850  0.56108  0.00000  Biso   1.000  C
  C146     1.0000 0.00000  0.70850  0.56108  Biso   1.000  C
  C147     1.0000 0.56108  0.00000  0.70850  Biso   1.000  C
  C148     1.0000 0.56108  0.70850  0.00000  Biso   1.000  C
  C149     1.0000 0.00000  0.56108  0.70850  Biso   1.000  C
  C150     1.0000 0.70850  0.00000  0.56108  Biso   1.000  C
  C151     1.0000 0.00000  0.56108  0.29150  Biso   1.000  C
  C152     1.0000 0.29150  0.00000  0.56108  Biso   1.000  C
  C153     1.0000 0.70850  0.00000  0.43892  Biso   1.000  C
  C154     1.0000 0.43892  0.70850  0.00000  Biso   1.000  C
  C155     1.0000 0.00000  0.43892  0.70850  Biso   1.000  C
  C156     1.0000 0.56108  0.29150  0.00000  Biso   1.000  C
  O135     1.0000 0.30910  0.37870  0.00000  Biso   1.000  O
  O136     1.0000 0.00000  0.30910  0.37870  Biso   1.000  O
  O137     1.0000 0.37870  0.00000  0.30910  Biso   1.000  O
  O138     1.0000 0.00000  0.30910  0.62130  Biso   1.000  O
  O139     1.0000 0.62130  0.00000  0.30910  Biso   1.000  O
  O140     1.0000 0.37870  0.00000  0.69090  Biso   1.000  O
  O141     1.0000 0.69090  0.37870  0.00000  Biso   1.000  O
  O142     1.0000 0.00000  0.69090  0.37870  Biso   1.000  O
  O143     1.0000 0.30910  0.62130  0.00000  Biso   1.000  O
  O144     1.0000 0.37870  0.30910  0.00000  Biso   1.000  O
  O145     1.0000 0.00000  0.37870  0.30910  Biso   1.000  O
  O146     1.0000 0.30910  0.00000  0.37870  Biso   1.000  O
  O147     1.0000 0.69090  0.62130  0.00000  Biso   1.000  O
  O148     1.0000 0.00000  0.69090  0.62130  Biso   1.000  O
  O149     1.0000 0.62130  0.00000  0.69090  Biso   1.000  O
  O150     1.0000 0.62130  0.69090  0.00000  Biso   1.000  O
  O151     1.0000 0.00000  0.62130  0.69090  Biso   1.000  O
  O152     1.0000 0.69090  0.00000  0.62130  Biso   1.000  O
  O153     1.0000 0.00000  0.62130  0.30910  Biso   1.000  O
  O154     1.0000 0.30910  0.00000  0.62130  Biso   1.000  O
  O155     1.0000 0.69090  0.00000  0.37870  Biso   1.000  O
  O156     1.0000 0.37870  0.69090  0.00000  Biso   1.000  O
  O157     1.0000 0.00000  0.37870  0.69090  Biso   1.000  O
  O158     1.0000 0.62130  0.30910  0.00000  Biso   1.000  O
