data_image0
_cell_length_a       18.5198
_cell_length_b       18.5198
_cell_length_c       18.5198
_cell_angle_alpha    90
_cell_angle_beta     90
_cell_angle_gamma    90

_symmetry_space_group_name_H-M    "P 1"
_symmetry_int_tables_number       1

loop_
  _symmetry_equiv_pos_as_xyz
  'x, y, z'

loop_
  _atom_site_label
  _atom_site_occupancy
  _atom_site_fract_x
  _atom_site_fract_y
  _atom_site_fract_z
  _atom_site_thermal_displace_type
  _atom_site_B_iso_or_equiv
  _atom_site_type_symbol
  Cu1      1.0000 0.13220  0.50000  0.00000  Biso   1.000  Cu
  Cu2      1.0000 0.00000  0.13220  0.50000  Biso   1.000  Cu
  Cu3      1.0000 0.50000  0.00000  0.13220  Biso   1.000  Cu
  Cu4      1.0000 0.50000  0.00000  0.86780  Biso   1.000  Cu
  Cu5      1.0000 0.86780  0.50000  0.00000  Biso   1.000  Cu
  Cu6      1.0000 0.00000  0.86780  0.50000  Biso   1.000  Cu
  Cu7      1.0000 0.50000  0.13220  0.00000  Biso   1.000  Cu
  Cu8      1.0000 0.00000  0.50000  0.13220  Biso   1.000  Cu
  Cu9      1.0000 0.13220  0.00000  0.50000  Biso   1.000  Cu
  Cu10     1.0000 0.50000  0.86780  0.00000  Biso   1.000  Cu
  Cu11     1.0000 0.00000  0.50000  0.86780  Biso   1.000  Cu
  Cu12     1.0000 0.86780  0.00000  0.50000  Biso   1.000  Cu
  C1       1.0000 0.14834  0.33711  0.85166  Biso   1.000  C
  C2       1.0000 0.85166  0.14834  0.33711  Biso   1.000  C
  C3       1.0000 0.33711  0.85166  0.14834  Biso   1.000  C
  C4       1.0000 0.14834  0.14834  0.66289  Biso   1.000  C
  C5       1.0000 0.66289  0.14834  0.14834  Biso   1.000  C
  C6       1.0000 0.33711  0.14834  0.85166  Biso   1.000  C
  C7       1.0000 0.85166  0.33711  0.14834  Biso   1.000  C
  C8       1.0000 0.14834  0.85166  0.33711  Biso   1.000  C
  C9       1.0000 0.14834  0.66289  0.14834  Biso   1.000  C
  C10      1.0000 0.33711  0.14834  0.14834  Biso   1.000  C
  C11      1.0000 0.14834  0.33711  0.14834  Biso   1.000  C
  C12      1.0000 0.14834  0.14834  0.33711  Biso   1.000  C
  C13      1.0000 0.85166  0.66289  0.85166  Biso   1.000  C
  C14      1.0000 0.85166  0.85166  0.66289  Biso   1.000  C
  C15      1.0000 0.66289  0.85166  0.85166  Biso   1.000  C
  C16      1.0000 0.66289  0.85166  0.14834  Biso   1.000  C
  C17      1.0000 0.14834  0.66289  0.85166  Biso   1.000  C
  C18      1.0000 0.85166  0.14834  0.66289  Biso   1.000  C
  C19      1.0000 0.85166  0.66289  0.14834  Biso   1.000  C
  C20      1.0000 0.14834  0.85166  0.66289  Biso   1.000  C
  C21      1.0000 0.85166  0.85166  0.33711  Biso   1.000  C
  C22      1.0000 0.33711  0.85166  0.85166  Biso   1.000  C
  C23      1.0000 0.85166  0.33711  0.85166  Biso   1.000  C
  C24      1.0000 0.66289  0.14834  0.85166  Biso   1.000  C
  C25      1.0000 0.18083  0.27352  0.81917  Biso   1.000  C
  C26      1.0000 0.81917  0.18083  0.27352  Biso   1.000  C
  C27      1.0000 0.27352  0.81917  0.18083  Biso   1.000  C
  C28      1.0000 0.18083  0.18083  0.72648  Biso   1.000  C
  C29      1.0000 0.72648  0.18083  0.18083  Biso   1.000  C
  C30      1.0000 0.27352  0.18083  0.81917  Biso   1.000  C
  C31      1.0000 0.81917  0.27352  0.18083  Biso   1.000  C
  C32      1.0000 0.18083  0.81917  0.27352  Biso   1.000  C
  C33      1.0000 0.18083  0.72648  0.18083  Biso   1.000  C
  C34      1.0000 0.27352  0.18083  0.18083  Biso   1.000  C
  C35      1.0000 0.18083  0.27352  0.18083  Biso   1.000  C
  C36      1.0000 0.18083  0.18083  0.27352  Biso   1.000  C
  C37      1.0000 0.81917  0.72648  0.81917  Biso   1.000  C
  C38      1.0000 0.81917  0.81917  0.72648  Biso   1.000  C
  C39      1.0000 0.72648  0.81917  0.81917  Biso   1.000  C
  C40      1.0000 0.72648  0.81917  0.18083  Biso   1.000  C
  C41      1.0000 0.18083  0.72648  0.81917  Biso   1.000  C
  C42      1.0000 0.81917  0.18083  0.72648  Biso   1.000  C
  C43      1.0000 0.81917  0.72648  0.18083  Biso   1.000  C
  C44      1.0000 0.18083  0.81917  0.72648  Biso   1.000  C
  C45      1.0000 0.81917  0.81917  0.27352  Biso   1.000  C
  C46      1.0000 0.27352  0.81917  0.81917  Biso   1.000  C
  C47      1.0000 0.81917  0.27352  0.81917  Biso   1.000  C
  C48      1.0000 0.72648  0.18083  0.81917  Biso   1.000  C
  C49      1.0000 0.24163  0.24163  0.85080  Biso   1.000  C
  C50      1.0000 0.85080  0.24163  0.24163  Biso   1.000  C
  C51      1.0000 0.24163  0.85080  0.24163  Biso   1.000  C
  C52      1.0000 0.14920  0.24163  0.75837  Biso   1.000  C
  C53      1.0000 0.75837  0.14920  0.24163  Biso   1.000  C
  C54      1.0000 0.24163  0.14920  0.75837  Biso   1.000  C
  C55      1.0000 0.75837  0.24163  0.14920  Biso   1.000  C
  C56      1.0000 0.14920  0.75837  0.24163  Biso   1.000  C
  C57      1.0000 0.24163  0.75837  0.14920  Biso   1.000  C
  C58      1.0000 0.24163  0.24163  0.14920  Biso   1.000  C
  C59      1.0000 0.14920  0.24163  0.24163  Biso   1.000  C
  C60      1.0000 0.24163  0.14920  0.24163  Biso   1.000  C
  C61      1.0000 0.75837  0.75837  0.85080  Biso   1.000  C
  C62      1.0000 0.85080  0.75837  0.75837  Biso   1.000  C
  C63      1.0000 0.75837  0.85080  0.75837  Biso   1.000  C
  C64      1.0000 0.75837  0.75837  0.14920  Biso   1.000  C
  C65      1.0000 0.14920  0.75837  0.75837  Biso   1.000  C
  C66      1.0000 0.75837  0.14920  0.75837  Biso   1.000  C
  C67      1.0000 0.85080  0.75837  0.24163  Biso   1.000  C
  C68      1.0000 0.24163  0.85080  0.75837  Biso   1.000  C
  C69      1.0000 0.75837  0.85080  0.24163  Biso   1.000  C
  C70      1.0000 0.24163  0.75837  0.85080  Biso   1.000  C
  C71      1.0000 0.85080  0.24163  0.75837  Biso   1.000  C
  C72      1.0000 0.75837  0.24163  0.85080  Biso   1.000  C
  Cl1      1.0000 0.00000  0.50000  0.00000  Biso   1.000  Cl
  Cl2      1.0000 0.00000  0.00000  0.50000  Biso   1.000  Cl
  Cl3      1.0000 0.50000  0.00000  0.00000  Biso   1.000  Cl
  N1       1.0000 0.12964  0.42512  0.92127  Biso   1.000  N
  N2       1.0000 0.92127  0.12964  0.42512  Biso   1.000  N
  N3       1.0000 0.42512  0.92127  0.12964  Biso   1.000  N
  N4       1.0000 0.07873  0.12964  0.57488  Biso   1.000  N
  N5       1.0000 0.57488  0.07873  0.12964  Biso   1.000  N
  N6       1.0000 0.42512  0.07873  0.87036  Biso   1.000  N
  N7       1.0000 0.87036  0.42512  0.07873  Biso   1.000  N
  N8       1.0000 0.07873  0.87036  0.42512  Biso   1.000  N
  N9       1.0000 0.12964  0.57488  0.07873  Biso   1.000  N
  N10      1.0000 0.42512  0.12964  0.07873  Biso   1.000  N
  N11      1.0000 0.07873  0.42512  0.12964  Biso   1.000  N
  N12      1.0000 0.12964  0.07873  0.42512  Biso   1.000  N
  N13      1.0000 0.87036  0.57488  0.92127  Biso   1.000  N
  N14      1.0000 0.92127  0.87036  0.57488  Biso   1.000  N
  N15      1.0000 0.57488  0.92127  0.87036  Biso   1.000  N
  N16      1.0000 0.57488  0.87036  0.07873  Biso   1.000  N
  N17      1.0000 0.07873  0.57488  0.87036  Biso   1.000  N
  N18      1.0000 0.87036  0.07873  0.57488  Biso   1.000  N
  N19      1.0000 0.92127  0.57488  0.12964  Biso   1.000  N
  N20      1.0000 0.12964  0.92127  0.57488  Biso   1.000  N
  N21      1.0000 0.87036  0.92127  0.42512  Biso   1.000  N
  N22      1.0000 0.42512  0.87036  0.92127  Biso   1.000  N
  N23      1.0000 0.92127  0.42512  0.87036  Biso   1.000  N
  N24      1.0000 0.57488  0.12964  0.92127  Biso   1.000  N
  N25      1.0000 0.87036  0.57488  0.07873  Biso   1.000  N
  N26      1.0000 0.07873  0.87036  0.57488  Biso   1.000  N
  N27      1.0000 0.57488  0.07873  0.87036  Biso   1.000  N
  N28      1.0000 0.92127  0.87036  0.42512  Biso   1.000  N
  N29      1.0000 0.42512  0.92127  0.87036  Biso   1.000  N
  N30      1.0000 0.57488  0.92127  0.12964  Biso   1.000  N
  N31      1.0000 0.12964  0.57488  0.92127  Biso   1.000  N
  N32      1.0000 0.92127  0.12964  0.57488  Biso   1.000  N
  N33      1.0000 0.87036  0.42512  0.92127  Biso   1.000  N
  N34      1.0000 0.57488  0.87036  0.92127  Biso   1.000  N
  N35      1.0000 0.92127  0.57488  0.87036  Biso   1.000  N
  N36      1.0000 0.87036  0.92127  0.57488  Biso   1.000  N
  N37      1.0000 0.12964  0.42512  0.07873  Biso   1.000  N
  N38      1.0000 0.07873  0.12964  0.42512  Biso   1.000  N
  N39      1.0000 0.42512  0.07873  0.12964  Biso   1.000  N
  N40      1.0000 0.42512  0.12964  0.92127  Biso   1.000  N
  N41      1.0000 0.92127  0.42512  0.12964  Biso   1.000  N
  N42      1.0000 0.12964  0.92127  0.42512  Biso   1.000  N
  N43      1.0000 0.07873  0.42512  0.87036  Biso   1.000  N
  N44      1.0000 0.87036  0.07873  0.42512  Biso   1.000  N
  N45      1.0000 0.12964  0.07873  0.57488  Biso   1.000  N
  N46      1.0000 0.57488  0.12964  0.07873  Biso   1.000  N
  N47      1.0000 0.07873  0.57488  0.12964  Biso   1.000  N
  N48      1.0000 0.42512  0.87036  0.07873  Biso   1.000  N
  N49      1.0000 0.17467  0.37041  0.91084  Biso   1.000  N
  N50      1.0000 0.91084  0.17467  0.37041  Biso   1.000  N
  N51      1.0000 0.37041  0.91084  0.17467  Biso   1.000  N
  N52      1.0000 0.08916  0.17467  0.62959  Biso   1.000  N
  N53      1.0000 0.62959  0.08916  0.17467  Biso   1.000  N
  N54      1.0000 0.37041  0.08916  0.82533  Biso   1.000  N
  N55      1.0000 0.82533  0.37041  0.08916  Biso   1.000  N
  N56      1.0000 0.08916  0.82533  0.37041  Biso   1.000  N
  N57      1.0000 0.17467  0.62959  0.08916  Biso   1.000  N
  N58      1.0000 0.37041  0.17467  0.08916  Biso   1.000  N
  N59      1.0000 0.08916  0.37041  0.17467  Biso   1.000  N
  N60      1.0000 0.17467  0.08916  0.37041  Biso   1.000  N
  N61      1.0000 0.82533  0.62959  0.91084  Biso   1.000  N
  N62      1.0000 0.91084  0.82533  0.62959  Biso   1.000  N
  N63      1.0000 0.62959  0.91084  0.82533  Biso   1.000  N
  N64      1.0000 0.62959  0.82533  0.08916  Biso   1.000  N
  N65      1.0000 0.08916  0.62959  0.82533  Biso   1.000  N
  N66      1.0000 0.82533  0.08916  0.62959  Biso   1.000  N
  N67      1.0000 0.91084  0.62959  0.17467  Biso   1.000  N
  N68      1.0000 0.17467  0.91084  0.62959  Biso   1.000  N
  N69      1.0000 0.82533  0.91084  0.37041  Biso   1.000  N
  N70      1.0000 0.37041  0.82533  0.91084  Biso   1.000  N
  N71      1.0000 0.91084  0.37041  0.82533  Biso   1.000  N
  N72      1.0000 0.62959  0.17467  0.91084  Biso   1.000  N
  N73      1.0000 0.82533  0.62959  0.08916  Biso   1.000  N
  N74      1.0000 0.08916  0.82533  0.62959  Biso   1.000  N
  N75      1.0000 0.62959  0.08916  0.82533  Biso   1.000  N
  N76      1.0000 0.91084  0.82533  0.37041  Biso   1.000  N
  N77      1.0000 0.37041  0.91084  0.82533  Biso   1.000  N
  N78      1.0000 0.62959  0.91084  0.17467  Biso   1.000  N
  N79      1.0000 0.17467  0.62959  0.91084  Biso   1.000  N
  N80      1.0000 0.91084  0.17467  0.62959  Biso   1.000  N
  N81      1.0000 0.82533  0.37041  0.91084  Biso   1.000  N
  N82      1.0000 0.62959  0.82533  0.91084  Biso   1.000  N
  N83      1.0000 0.91084  0.62959  0.82533  Biso   1.000  N
  N84      1.0000 0.82533  0.91084  0.62959  Biso   1.000  N
  N85      1.0000 0.17467  0.37041  0.08916  Biso   1.000  N
  N86      1.0000 0.08916  0.17467  0.37041  Biso   1.000  N
  N87      1.0000 0.37041  0.08916  0.17467  Biso   1.000  N
  N88      1.0000 0.37041  0.17467  0.91084  Biso   1.000  N
  N89      1.0000 0.91084  0.37041  0.17467  Biso   1.000  N
  N90      1.0000 0.17467  0.91084  0.37041  Biso   1.000  N
  N91      1.0000 0.08916  0.37041  0.82533  Biso   1.000  N
  N92      1.0000 0.82533  0.08916  0.37041  Biso   1.000  N
  N93      1.0000 0.17467  0.08916  0.62959  Biso   1.000  N
  N94      1.0000 0.62959  0.17467  0.08916  Biso   1.000  N
  N95      1.0000 0.08916  0.62959  0.17467  Biso   1.000  N
  N96      1.0000 0.37041  0.82533  0.08916  Biso   1.000  N
  H1       1.0000 0.26640  0.26640  0.89730  Biso   1.000  H
  H2       1.0000 0.89730  0.26640  0.26640  Biso   1.000  H
  H3       1.0000 0.26640  0.89730  0.26640  Biso   1.000  H
  H4       1.0000 0.10270  0.26640  0.73360  Biso   1.000  H
  H5       1.0000 0.73360  0.10270  0.26640  Biso   1.000  H
  H6       1.0000 0.26640  0.10270  0.73360  Biso   1.000  H
  H7       1.0000 0.73360  0.26640  0.10270  Biso   1.000  H
  H8       1.0000 0.10270  0.73360  0.26640  Biso   1.000  H
  H9       1.0000 0.26640  0.73360  0.10270  Biso   1.000  H
  H10      1.0000 0.26640  0.26640  0.10270  Biso   1.000  H
  H11      1.0000 0.10270  0.26640  0.26640  Biso   1.000  H
  H12      1.0000 0.26640  0.10270  0.26640  Biso   1.000  H
  H13      1.0000 0.73360  0.73360  0.89730  Biso   1.000  H
  H14      1.0000 0.89730  0.73360  0.73360  Biso   1.000  H
  H15      1.0000 0.73360  0.89730  0.73360  Biso   1.000  H
  H16      1.0000 0.73360  0.73360  0.10270  Biso   1.000  H
  H17      1.0000 0.10270  0.73360  0.73360  Biso   1.000  H
  H18      1.0000 0.73360  0.10270  0.73360  Biso   1.000  H
  H19      1.0000 0.89730  0.73360  0.26640  Biso   1.000  H
  H20      1.0000 0.26640  0.89730  0.73360  Biso   1.000  H
  H21      1.0000 0.73360  0.89730  0.26640  Biso   1.000  H
  H22      1.0000 0.26640  0.73360  0.89730  Biso   1.000  H
  H23      1.0000 0.89730  0.26640  0.73360  Biso   1.000  H
  H24      1.0000 0.73360  0.26640  0.89730  Biso   1.000  H
  O1       1.0000 0.24960  0.50000  0.00000  Biso   1.000  O
  O2       1.0000 0.00000  0.24960  0.50000  Biso   1.000  O
  O3       1.0000 0.50000  0.00000  0.24960  Biso   1.000  O
  O4       1.0000 0.50000  0.00000  0.75040  Biso   1.000  O
  O5       1.0000 0.75040  0.50000  0.00000  Biso   1.000  O
  O6       1.0000 0.00000  0.75040  0.50000  Biso   1.000  O
  O7       1.0000 0.50000  0.24960  0.00000  Biso   1.000  O
  O8       1.0000 0.00000  0.50000  0.24960  Biso   1.000  O
  O9       1.0000 0.24960  0.00000  0.50000  Biso   1.000  O
  O10      1.0000 0.50000  0.75040  0.00000  Biso   1.000  O
  O11      1.0000 0.00000  0.50000  0.75040  Biso   1.000  O
  O12      1.0000 0.75040  0.00000  0.50000  Biso   1.000  O
  Cl4      1.0000 0.36620  0.36620  0.00000  Biso   1.000  Cl
  Cl5      1.0000 0.00000  0.36620  0.36620  Biso   1.000  Cl
  Cl6      1.0000 0.36620  0.00000  0.36620  Biso   1.000  Cl
  Cl7      1.0000 0.00000  0.36620  0.63380  Biso   1.000  Cl
  Cl8      1.0000 0.63380  0.00000  0.36620  Biso   1.000  Cl
  Cl9      1.0000 0.36620  0.00000  0.63380  Biso   1.000  Cl
  Cl10     1.0000 0.63380  0.36620  0.00000  Biso   1.000  Cl
  Cl11     1.0000 0.00000  0.63380  0.36620  Biso   1.000  Cl
  Cl12     1.0000 0.36620  0.63380  0.00000  Biso   1.000  Cl
  Cl13     1.0000 0.63380  0.63380  0.00000  Biso   1.000  Cl
  Cl14     1.0000 0.00000  0.63380  0.63380  Biso   1.000  Cl
  Cl15     1.0000 0.63380  0.00000  0.63380  Biso   1.000  Cl
  Cu13     1.0000 0.23090  0.35570  0.00000  Biso   1.000  Cu
  Cu14     1.0000 0.00000  0.23090  0.35570  Biso   1.000  Cu
  Cu15     1.0000 0.35570  0.00000  0.23090  Biso   1.000  Cu
  Cu16     1.0000 0.00000  0.23090  0.64430  Biso   1.000  Cu
  Cu17     1.0000 0.64430  0.00000  0.23090  Biso   1.000  Cu
  Cu18     1.0000 0.35570  0.00000  0.76910  Biso   1.000  Cu
  Cu19     1.0000 0.76910  0.35570  0.00000  Biso   1.000  Cu
  Cu20     1.0000 0.00000  0.76910  0.35570  Biso   1.000  Cu
  Cu21     1.0000 0.23090  0.64430  0.00000  Biso   1.000  Cu
  Cu22     1.0000 0.35570  0.23090  0.00000  Biso   1.000  Cu
  Cu23     1.0000 0.00000  0.35570  0.23090  Biso   1.000  Cu
  Cu24     1.0000 0.23090  0.00000  0.35570  Biso   1.000  Cu
  Cu25     1.0000 0.76910  0.64430  0.00000  Biso   1.000  Cu
  Cu26     1.0000 0.00000  0.76910  0.64430  Biso   1.000  Cu
  Cu27     1.0000 0.64430  0.00000  0.76910  Biso   1.000  Cu
  Cu28     1.0000 0.64430  0.76910  0.00000  Biso   1.000  Cu
  Cu29     1.0000 0.00000  0.64430  0.76910  Biso   1.000  Cu
  Cu30     1.0000 0.76910  0.00000  0.64430  Biso   1.000  Cu
  Cu31     1.0000 0.00000  0.64430  0.23090  Biso   1.000  Cu
  Cu32     1.0000 0.23090  0.00000  0.64430  Biso   1.000  Cu
  Cu33     1.0000 0.76910  0.00000  0.35570  Biso   1.000  Cu
  Cu34     1.0000 0.35570  0.76910  0.00000  Biso   1.000  Cu
  Cu35     1.0000 0.00000  0.35570  0.76910  Biso   1.000  Cu
  Cu36     1.0000 0.64430  0.23090  0.00000  Biso   1.000  Cu
