data_image0
_cell_length_a       13.8571
_cell_length_b       14.7818
_cell_length_c       18.8261
_cell_angle_alpha    78.779
_cell_angle_beta     76.513
_cell_angle_gamma    70.381

_symmetry_space_group_name_H-M    "P 1"
_symmetry_int_tables_number       1

loop_
  _symmetry_equiv_pos_as_xyz
  'x, y, z'

loop_
  _atom_site_label
  _atom_site_occupancy
  _atom_site_fract_x
  _atom_site_fract_y
  _atom_site_fract_z
  _atom_site_thermal_displace_type
  _atom_site_B_iso_or_equiv
  _atom_site_type_symbol
  Cu1      1.0000 0.64878  0.78370  0.29961  Biso   1.000  Cu
  Cu2      1.0000 0.35122  0.21630  0.70039  Biso   1.000  Cu
  Cu3      1.0000 0.74821  0.76199  0.16367  Biso   1.000  Cu
  Cu4      1.0000 0.25179  0.23801  0.83633  Biso   1.000  Cu
  Cu5      1.0000 0.80512  0.62014  0.26973  Biso   1.000  Cu
  Cu6      1.0000 0.19488  0.37986  0.73027  Biso   1.000  Cu
  Cu7      1.0000 0.84869  0.78467  0.26063  Biso   1.000  Cu
  Cu8      1.0000 0.15131  0.21533  0.73937  Biso   1.000  Cu
  I1       1.0000 0.62017  0.65956  0.22820  Biso   1.000  I
  I2       1.0000 0.37983  0.34044  0.77180  Biso   1.000  I
  I3       1.0000 0.69220  0.93757  0.21740  Biso   1.000  I
  I4       1.0000 0.30780  0.06243  0.78260  Biso   1.000  I
  I5       1.0000 0.78899  0.69900  0.39270  Biso   1.000  I
  I6       1.0000 0.21101  0.30100  0.60730  Biso   1.000  I
  I7       1.0000 0.95033  0.65976  0.16157  Biso   1.000  I
  I8       1.0000 0.04967  0.34024  0.83843  Biso   1.000  I
  N1       1.0000 0.12320  0.89370  0.66910  Biso   1.000  N
  N2       1.0000 0.87680  0.10630  0.33090  Biso   1.000  N
  N3       1.0000 0.37690  0.63890  0.53300  Biso   1.000  N
  N4       1.0000 0.62310  0.36110  0.46700  Biso   1.000  N
  H1       1.0000 0.42580  0.62120  0.56290  Biso   1.000  H
  H2       1.0000 0.57420  0.37880  0.43710  Biso   1.000  H
  H3       1.0000 0.39470  0.59170  0.50270  Biso   1.000  H
  H4       1.0000 0.60530  0.40830  0.49730  Biso   1.000  H
  N5       1.0000 0.64520  0.97320  0.79250  Biso   1.000  N
  N6       1.0000 0.35480  0.02680  0.20750  Biso   1.000  N
  N7       1.0000 0.90420  0.99520  0.92010  Biso   1.000  N
  N8       1.0000 0.09580  0.00480  0.07990  Biso   1.000  N
  H5       1.0000 0.88060  0.04340  0.95000  Biso   1.000  H
  H6       1.0000 0.11940  0.95660  0.05000  Biso   1.000  H
  H7       1.0000 0.96730  0.95520  0.93110  Biso   1.000  H
  H8       1.0000 0.03270  0.04480  0.06890  Biso   1.000  H
  O1       1.0000 0.00130  0.75060  0.69360  Biso   1.000  O
  O2       1.0000 0.99870  0.24940  0.30640  Biso   1.000  O
  O3       1.0000 0.31200  0.96290  0.53200  Biso   1.000  O
  O4       1.0000 0.68800  0.03710  0.46800  Biso   1.000  O
  O5       1.0000 0.62420  0.82310  0.91700  Biso   1.000  O
  O6       1.0000 0.37580  0.17690  0.08300  Biso   1.000  O
  O7       1.0000 0.82350  0.09430  0.69150  Biso   1.000  O
  O8       1.0000 0.17650  0.90570  0.30850  Biso   1.000  O
  S1       1.0000 0.16424  0.54163  0.69010  Biso   1.000  S
  S2       1.0000 0.83576  0.45837  0.30990  Biso   1.000  S
  S3       1.0000 0.49153  0.82867  0.37850  Biso   1.000  S
  S4       1.0000 0.50847  0.17133  0.62150  Biso   1.000  S
  S5       1.0000 0.73363  0.82335  0.04413  Biso   1.000  S
  S6       1.0000 0.26637  0.17665  0.95587  Biso   1.000  S
  S7       1.0000 0.03771  0.13384  0.73482  Biso   1.000  S
  S8       1.0000 0.96229  0.86616  0.26518  Biso   1.000  S
  C1       1.0000 0.30520  0.84460  0.67100  Biso   1.000  C
  C2       1.0000 0.69480  0.15540  0.32900  Biso   1.000  C
  H9       1.0000 0.37100  0.85470  0.65130  Biso   1.000  H
  H10      1.0000 0.62900  0.14530  0.34870  Biso   1.000  H
  C3       1.0000 0.29740  0.76990  0.72560  Biso   1.000  C
  C4       1.0000 0.70260  0.23010  0.27440  Biso   1.000  C
  H11      1.0000 0.35660  0.72760  0.74480  Biso   1.000  H
  H12      1.0000 0.64340  0.27240  0.25520  Biso   1.000  H
  C5       1.0000 0.19860  0.75820  0.75190  Biso   1.000  C
  C6       1.0000 0.80140  0.24180  0.24810  Biso   1.000  C
  H13      1.0000 0.18940  0.70740  0.78990  Biso   1.000  H
  H14      1.0000 0.81060  0.29260  0.21010  Biso   1.000  H
  C7       1.0000 0.11460  0.82120  0.72210  Biso   1.000  C
  C8       1.0000 0.88540  0.17880  0.27790  Biso   1.000  C
  C9       1.0000 0.00900  0.80650  0.74460  Biso   1.000  C
  C10      1.0000 0.99100  0.19350  0.25540  Biso   1.000  C
  H15      1.0000 0.00110  0.77200  0.79520  Biso   1.000  H
  H16      1.0000 0.99890  0.22800  0.20480  Biso   1.000  H
  H17      1.0000 0.95370  0.86980  0.74350  Biso   1.000  H
  H18      1.0000 0.04630  0.13020  0.25650  Biso   1.000  H
  C11      1.0000 0.93010  0.69980  0.71670  Biso   1.000  C
  C12      1.0000 0.06990  0.30020  0.28330  Biso   1.000  C
  C13      1.0000 0.83540  0.73130  0.76450  Biso   1.000  C
  C14      1.0000 0.16460  0.26870  0.23550  Biso   1.000  C
  H19      1.0000 0.81700  0.79070  0.78410  Biso   1.000  H
  H20      1.0000 0.18300  0.20930  0.21590  Biso   1.000  H
  C15      1.0000 0.76960  0.67580  0.78280  Biso   1.000  C
  C16      1.0000 0.23040  0.32420  0.21720  Biso   1.000  C
  H21      1.0000 0.70530  0.69700  0.81550  Biso   1.000  H
  H22      1.0000 0.29470  0.30300  0.18450  Biso   1.000  H
  C17      1.0000 0.79440  0.59030  0.75490  Biso   1.000  C
  C18      1.0000 0.20560  0.40970  0.24510  Biso   1.000  C
  H23      1.0000 0.74750  0.55290  0.76790  Biso   1.000  H
  H24      1.0000 0.25250  0.44710  0.23210  Biso   1.000  H
  C19      1.0000 0.88770  0.55880  0.70790  Biso   1.000  C
  C20      1.0000 0.11230  0.44120  0.29210  Biso   1.000  C
  H25      1.0000 0.90530  0.49900  0.68900  Biso   1.000  H
  H26      1.0000 0.09470  0.50100  0.31100  Biso   1.000  H
  C21      1.0000 0.95640  0.61340  0.68760  Biso   1.000  C
  C22      1.0000 0.04360  0.38660  0.31240  Biso   1.000  C
  C23      1.0000 0.05950  0.57890  0.63690  Biso   1.000  C
  C24      1.0000 0.94050  0.42110  0.36310  Biso   1.000  C
  H27      1.0000 0.06920  0.63170  0.59730  Biso   1.000  H
  H28      1.0000 0.93080  0.36830  0.40270  Biso   1.000  H
  H29      1.0000 0.06080  0.52360  0.61390  Biso   1.000  H
  H30      1.0000 0.93920  0.47640  0.38610  Biso   1.000  H
  C25      1.0000 0.27650  0.54170  0.61810  Biso   1.000  C
  C26      1.0000 0.72350  0.45830  0.38190  Biso   1.000  C
  H31      1.0000 0.34050  0.51290  0.63970  Biso   1.000  H
  H32      1.0000 0.65950  0.48710  0.36030  Biso   1.000  H
  H33      1.0000 0.27980  0.50070  0.58130  Biso   1.000  H
  H34      1.0000 0.72020  0.49930  0.41870  Biso   1.000  H
  C27      1.0000 0.27350  0.64320  0.57950  Biso   1.000  C
  C28      1.0000 0.72650  0.35680  0.42050  Biso   1.000  C
  H35      1.0000 0.21900  0.66720  0.54850  Biso   1.000  H
  H36      1.0000 0.78100  0.33280  0.45150  Biso   1.000  H
  H37      1.0000 0.25670  0.68820  0.61640  Biso   1.000  H
  H38      1.0000 0.74330  0.31180  0.38360  Biso   1.000  H
  C29      1.0000 0.38020  0.73110  0.48740  Biso   1.000  C
  C30      1.0000 0.61980  0.26890  0.51260  Biso   1.000  C
  H39      1.0000 0.36470  0.78180  0.51950  Biso   1.000  H
  H40      1.0000 0.63530  0.21820  0.48050  Biso   1.000  H
  H41      1.0000 0.32690  0.75170  0.45570  Biso   1.000  H
  H42      1.0000 0.67310  0.24830  0.54430  Biso   1.000  H
  C31      1.0000 0.48820  0.71820  0.43980  Biso   1.000  C
  C32      1.0000 0.51180  0.28180  0.56020  Biso   1.000  C
  H43      1.0000 0.50550  0.66420  0.41050  Biso   1.000  H
  H44      1.0000 0.49450  0.33580  0.58950  Biso   1.000  H
  H45      1.0000 0.54080  0.70180  0.47170  Biso   1.000  H
  H46      1.0000 0.45920  0.29820  0.52830  Biso   1.000  H
  C33      1.0000 0.50340  0.90530  0.44040  Biso   1.000  C
  C34      1.0000 0.49660  0.09470  0.55960  Biso   1.000  C
  H47      1.0000 0.48860  0.87630  0.49220  Biso   1.000  H
  H48      1.0000 0.51140  0.12370  0.50780  Biso   1.000  H
  H49      1.0000 0.57540  0.90920  0.42990  Biso   1.000  H
  H50      1.0000 0.42460  0.09080  0.57010  Biso   1.000  H
  C35      1.0000 0.42810  0.00520  0.42960  Biso   1.000  C
  C36      1.0000 0.57190  0.99480  0.57040  Biso   1.000  C
  C37      1.0000 0.45130  0.07200  0.37060  Biso   1.000  C
  C38      1.0000 0.54870  0.92800  0.62940  Biso   1.000  C
  H51      1.0000 0.51490  0.05320  0.33680  Biso   1.000  H
  H52      1.0000 0.48510  0.94680  0.66320  Biso   1.000  H
  C39      1.0000 0.38430  0.16530  0.35970  Biso   1.000  C
  C40      1.0000 0.61570  0.83470  0.64030  Biso   1.000  C
  H53      1.0000 0.40270  0.21090  0.32030  Biso   1.000  H
  H54      1.0000 0.59730  0.78910  0.67970  Biso   1.000  H
  C41      1.0000 0.28970  0.19010  0.40780  Biso   1.000  C
  C42      1.0000 0.71030  0.80990  0.59220  Biso   1.000  C
  H55      1.0000 0.24250  0.25360  0.40130  Biso   1.000  H
  H56      1.0000 0.75750  0.74640  0.59870  Biso   1.000  H
  C43      1.0000 0.26400  0.12480  0.46400  Biso   1.000  C
  C44      1.0000 0.73600  0.87520  0.53600  Biso   1.000  C
  H57      1.0000 0.19840  0.14220  0.49610  Biso   1.000  H
  H58      1.0000 0.80160  0.85780  0.50390  Biso   1.000  H
  C45      1.0000 0.33300  0.03240  0.47500  Biso   1.000  C
  C46      1.0000 0.66700  0.96760  0.52500  Biso   1.000  C
  C47      1.0000 0.22090  0.99130  0.58700  Biso   1.000  C
  C48      1.0000 0.77910  0.00870  0.41300  Biso   1.000  C
  H59      1.0000 0.15780  0.01380  0.56430  Biso   1.000  H
  H60      1.0000 0.84220  0.98620  0.43570  Biso   1.000  H
  H61      1.0000 0.22330  0.04510  0.61000  Biso   1.000  H
  H62      1.0000 0.77670  0.95490  0.39000  Biso   1.000  H
  C49      1.0000 0.21670  0.90590  0.64440  Biso   1.000  C
  C50      1.0000 0.78330  0.09410  0.35560  Biso   1.000  C
  C51      1.0000 0.64610  0.13340  0.79860  Biso   1.000  C
  C52      1.0000 0.35390  0.86660  0.20140  Biso   1.000  C
  H63      1.0000 0.67110  0.18680  0.77700  Biso   1.000  H
  H64      1.0000 0.32890  0.81320  0.22300  Biso   1.000  H
  C53      1.0000 0.57400  0.13740  0.86440  Biso   1.000  C
  C54      1.0000 0.42600  0.86260  0.13560  Biso   1.000  C
  H65      1.0000 0.54950  0.19350  0.88890  Biso   1.000  H
  H66      1.0000 0.45050  0.80650  0.11110  Biso   1.000  H
  C55      1.0000 0.53910  0.05880  0.89300  Biso   1.000  C
  C56      1.0000 0.46090  0.94120  0.10700  Biso   1.000  C
  H67      1.0000 0.49080  0.05930  0.93810  Biso   1.000  H
  H68      1.0000 0.50920  0.94070  0.06190  Biso   1.000  H
  C57      1.0000 0.57480  0.97960  0.85560  Biso   1.000  C
  C58      1.0000 0.42520  0.02040  0.14440  Biso   1.000  C
  C59      1.0000 0.54090  0.89210  0.88470  Biso   1.000  C
  C60      1.0000 0.45910  0.10790  0.11530  Biso   1.000  C
  H69      1.0000 0.47630  0.90780  0.92210  Biso   1.000  H
  H70      1.0000 0.52370  0.09220  0.07790  Biso   1.000  H
  H71      1.0000 0.52760  0.86630  0.84440  Biso   1.000  H
  H72      1.0000 0.47240  0.13370  0.15560  Biso   1.000  H
  C61      1.0000 0.61050  0.73940  0.95790  Biso   1.000  C
  C62      1.0000 0.38950  0.26060  0.04210  Biso   1.000  C
  C63      1.0000 0.52490  0.70970  0.96300  Biso   1.000  C
  C64      1.0000 0.47510  0.29030  0.03700  Biso   1.000  C
  H73      1.0000 0.46980  0.74870  0.93800  Biso   1.000  H
  H74      1.0000 0.53020  0.25130  0.06200  Biso   1.000  H
  C65      1.0000 0.51910  0.62100  0.00550  Biso   1.000  C
  C66      1.0000 0.48090  0.37900  0.99450  Biso   1.000  C
  H75      1.0000 0.46090  0.59900  0.00870  Biso   1.000  H
  H76      1.0000 0.53910  0.40100  0.99130  Biso   1.000  H
  C67      1.0000 0.60010  0.56650  0.04240  Biso   1.000  C
  C68      1.0000 0.39990  0.43350  0.95760  Biso   1.000  C
  H77      1.0000 0.59620  0.50780  0.07250  Biso   1.000  H
  H78      1.0000 0.40380  0.49220  0.92750  Biso   1.000  H
  C69      1.0000 0.68610  0.59690  0.03580  Biso   1.000  C
  C70      1.0000 0.31390  0.40310  0.96420  Biso   1.000  C
  H79      1.0000 0.74180  0.55800  0.06020  Biso   1.000  H
  H80      1.0000 0.25820  0.44200  0.93980  Biso   1.000  H
  C71      1.0000 0.69200  0.68400  0.99380  Biso   1.000  C
  C72      1.0000 0.30800  0.31600  0.00620  Biso   1.000  C
  C73      1.0000 0.78110  0.72150  0.98950  Biso   1.000  C
  C74      1.0000 0.21890  0.27850  0.01050  Biso   1.000  C
  H81      1.0000 0.80730  0.74340  0.93770  Biso   1.000  H
  H82      1.0000 0.19270  0.25660  0.06230  Biso   1.000  H
  H83      1.0000 0.83870  0.66980  0.00940  Biso   1.000  H
  H84      1.0000 0.16130  0.33020  0.99060  Biso   1.000  H
  C75      1.0000 0.83370  0.88160  0.01370  Biso   1.000  C
  C76      1.0000 0.16630  0.11840  0.98630  Biso   1.000  C
  H85      1.0000 0.82630  0.92590  0.04920  Biso   1.000  H
  H86      1.0000 0.17370  0.07410  0.95080  Biso   1.000  H
  H87      1.0000 0.90270  0.83190  0.01310  Biso   1.000  H
  H88      1.0000 0.09730  0.16810  0.98690  Biso   1.000  H
  C77      1.0000 0.82940  0.93800  0.93820  Biso   1.000  C
  C78      1.0000 0.17060  0.06200  0.06180  Biso   1.000  C
  H89      1.0000 0.84690  0.89300  0.90120  Biso   1.000  H
  H90      1.0000 0.15310  0.10700  0.09880  Biso   1.000  H
  H91      1.0000 0.75790  0.98220  0.93650  Biso   1.000  H
  H92      1.0000 0.24210  0.01780  0.06350  Biso   1.000  H
  C79      1.0000 0.92120  0.03970  0.84310  Biso   1.000  C
  C80      1.0000 0.07880  0.96030  0.15690  Biso   1.000  C
  H93      1.0000 0.85310  0.07800  0.82920  Biso   1.000  H
  H94      1.0000 0.14690  0.92200  0.17080  Biso   1.000  H
  H95      1.0000 0.95450  0.98810  0.81080  Biso   1.000  H
  H96      1.0000 0.04550  0.01190  0.18920  Biso   1.000  H
  C81      1.0000 0.98860  0.10420  0.83120  Biso   1.000  C
  C82      1.0000 0.01140  0.89580  0.16880  Biso   1.000  C
  H97      1.0000 0.04810  0.07150  0.85720  Biso   1.000  H
  H98      1.0000 0.95190  0.92850  0.14280  Biso   1.000  H
  H99      1.0000 0.94780  0.16470  0.85280  Biso   1.000  H
  H100     1.0000 0.05220  0.83530  0.14720  Biso   1.000  H
  C83      1.0000 0.92570  0.22130  0.69800  Biso   1.000  C
  C84      1.0000 0.07430  0.77870  0.30200  Biso   1.000  C
  H101     1.0000 0.86040  0.22110  0.73320  Biso   1.000  H
  H102     1.0000 0.13960  0.77890  0.26680  Biso   1.000  H
  H103     1.0000 0.93230  0.28730  0.69010  Biso   1.000  H
  H104     1.0000 0.06770  0.71270  0.30990  Biso   1.000  H
  C85      1.0000 0.92330  0.19260  0.62600  Biso   1.000  C
  C86      1.0000 0.07670  0.80740  0.37400  Biso   1.000  C
  C87      1.0000 0.97740  0.22790  0.56020  Biso   1.000  C
  C88      1.0000 0.02260  0.77210  0.43980  Biso   1.000  C
  H105     1.0000 0.01120  0.27430  0.56010  Biso   1.000  H
  H106     1.0000 0.98880  0.72570  0.43990  Biso   1.000  H
  C89      1.0000 0.98190  0.19510  0.49490  Biso   1.000  C
  C90      1.0000 0.01810  0.80490  0.50510  Biso   1.000  C
  H107     1.0000 0.01930  0.21900  0.45030  Biso   1.000  H
  H108     1.0000 0.98070  0.78100  0.54970  Biso   1.000  H
  C91      1.0000 0.93370  0.12930  0.49360  Biso   1.000  C
  C92      1.0000 0.06630  0.87070  0.50640  Biso   1.000  C
  H109     1.0000 0.93720  0.10800  0.44830  Biso   1.000  H
  H110     1.0000 0.06280  0.89200  0.55170  Biso   1.000  H
  C93      1.0000 0.87900  0.09290  0.55860  Biso   1.000  C
  C94      1.0000 0.12100  0.90710  0.44140  Biso   1.000  C
  H111     1.0000 0.84550  0.04660  0.55800  Biso   1.000  H
  H112     1.0000 0.15450  0.95340  0.44200  Biso   1.000  H
  C95      1.0000 0.87440  0.12550  0.62460  Biso   1.000  C
  C96      1.0000 0.12560  0.87450  0.37540  Biso   1.000  C
  C97      1.0000 0.75370  0.04120  0.69340  Biso   1.000  C
  C98      1.0000 0.24630  0.95880  0.30660  Biso   1.000  C
  H113     1.0000 0.79290  0.97230  0.68880  Biso   1.000  H
  H114     1.0000 0.20710  0.02770  0.31120  Biso   1.000  H
  H115     1.0000 0.71490  0.06790  0.65220  Biso   1.000  H
  H116     1.0000 0.28510  0.93210  0.34780  Biso   1.000  H
  C99      1.0000 0.67980  0.05030  0.76590  Biso   1.000  C
  C100     1.0000 0.32020  0.94970  0.23410  Biso   1.000  C
  C101     1.0000 0.57400  0.51630  0.61570  Biso   1.000  C
  C102     1.0000 0.42600  0.48370  0.38430  Biso   1.000  C
  C103     1.0000 0.65270  0.44820  0.66280  Biso   1.000  C
  C104     1.0000 0.34730  0.55180  0.33720  Biso   1.000  C
  O9       1.0000 0.57890  0.49640  0.55710  Biso   1.000  O
  O10      1.0000 0.42110  0.50360  0.44290  Biso   1.000  O
  O11      1.0000 0.50810  0.58630  0.64290  Biso   1.000  O
  O12      1.0000 0.49190  0.41370  0.35710  Biso   1.000  O
  F1       1.0000 0.66140  0.35460  0.65950  Biso   1.000  F
  F2       1.0000 0.33860  0.64540  0.34050  Biso   1.000  F
  F3       1.0000 0.74200  0.45900  0.64260  Biso   1.000  F
  F4       1.0000 0.25800  0.54100  0.35740  Biso   1.000  F
  F5       1.0000 0.62180  0.46330  0.73340  Biso   1.000  F
  F6       1.0000 0.37820  0.53670  0.26660  Biso   1.000  F
  O13      1.0000 0.92410  0.19060  0.08630  Biso   1.000  O
  O14      1.0000 0.07590  0.80940  0.91370  Biso   1.000  O
  O15      1.0000 0.91260  0.09030  0.02800  Biso   1.000  O
  O16      1.0000 0.08740  0.90970  0.97200  Biso   1.000  O
  F7       1.0000 0.80090  0.33520  0.01360  Biso   1.000  F
  F8       1.0000 0.19910  0.66480  0.98640  Biso   1.000  F
  F9       1.0000 0.71130  0.28860  0.07990  Biso   1.000  F
  F10      1.0000 0.28870  0.71140  0.92010  Biso   1.000  F
  F11      1.0000 0.76470  0.20980  0.97820  Biso   1.000  F
  F12      1.0000 0.23530  0.79020  0.02180  Biso   1.000  F
  C105     1.0000 0.87710  0.16780  0.05060  Biso   1.000  C
  C106     1.0000 0.12290  0.83220  0.94940  Biso   1.000  C
  C107     1.0000 0.79070  0.23400  0.03290  Biso   1.000  C
  C108     1.0000 0.20930  0.76600  0.96710  Biso   1.000  C
