data_image0
_cell_length_a       21.9103
_cell_length_b       12.1307
_cell_length_c       25.7047
_cell_angle_alpha    90
_cell_angle_beta     110.081
_cell_angle_gamma    90

_symmetry_space_group_name_H-M    "P 1"
_symmetry_int_tables_number       1

loop_
  _symmetry_equiv_pos_as_xyz
  'x, y, z'

loop_
  _atom_site_label
  _atom_site_occupancy
  _atom_site_fract_x
  _atom_site_fract_y
  _atom_site_fract_z
  _atom_site_thermal_displace_type
  _atom_site_B_iso_or_equiv
  _atom_site_type_symbol
  Cu1      1.0000 0.02083  0.02009  0.06969  Biso   1.000  Cu
  Cu2      1.0000 0.52083  0.52009  0.06969  Biso   1.000  Cu
  Cu3      1.0000 0.02083  0.97991  0.56969  Biso   1.000  Cu
  Cu4      1.0000 0.52083  0.47991  0.56969  Biso   1.000  Cu
  Cu5      1.0000 0.97917  0.97991  0.93031  Biso   1.000  Cu
  Cu6      1.0000 0.47917  0.47991  0.93031  Biso   1.000  Cu
  Cu7      1.0000 0.97917  0.02009  0.43031  Biso   1.000  Cu
  Cu8      1.0000 0.47917  0.52009  0.43031  Biso   1.000  Cu
  Cu9      1.0000 0.02444  0.10800  0.19493  Biso   1.000  Cu
  Cu10     1.0000 0.52444  0.60800  0.19493  Biso   1.000  Cu
  Cu11     1.0000 0.02444  0.89200  0.69493  Biso   1.000  Cu
  Cu12     1.0000 0.52444  0.39200  0.69493  Biso   1.000  Cu
  Cu13     1.0000 0.97556  0.89200  0.80507  Biso   1.000  Cu
  Cu14     1.0000 0.47556  0.39200  0.80507  Biso   1.000  Cu
  Cu15     1.0000 0.97556  0.10800  0.30507  Biso   1.000  Cu
  Cu16     1.0000 0.47556  0.60800  0.30507  Biso   1.000  Cu
  N1       1.0000 0.08984  0.99480  0.03265  Biso   1.000  N
  N2       1.0000 0.58984  0.49480  0.03265  Biso   1.000  N
  N3       1.0000 0.08984  0.00520  0.53265  Biso   1.000  N
  N4       1.0000 0.58984  0.50520  0.53265  Biso   1.000  N
  N5       1.0000 0.91016  0.00520  0.96735  Biso   1.000  N
  N6       1.0000 0.41016  0.50520  0.96735  Biso   1.000  N
  N7       1.0000 0.91016  0.99480  0.46735  Biso   1.000  N
  N8       1.0000 0.41016  0.49480  0.46735  Biso   1.000  N
  N9       1.0000 0.07252  0.00200  0.97674  Biso   1.000  N
  N10      1.0000 0.57252  0.50200  0.97674  Biso   1.000  N
  N11      1.0000 0.07252  0.99800  0.47674  Biso   1.000  N
  N12      1.0000 0.57252  0.49800  0.47674  Biso   1.000  N
  N13      1.0000 0.92748  0.99800  0.02326  Biso   1.000  N
  N14      1.0000 0.42748  0.49800  0.02326  Biso   1.000  N
  N15      1.0000 0.92748  0.00200  0.52326  Biso   1.000  N
  N16      1.0000 0.42748  0.50200  0.52326  Biso   1.000  N
  C1       1.0000 0.11870  0.00570  0.95448  Biso   1.000  C
  C2       1.0000 0.61870  0.50570  0.95448  Biso   1.000  C
  C3       1.0000 0.11870  0.99430  0.45448  Biso   1.000  C
  C4       1.0000 0.61870  0.49430  0.45448  Biso   1.000  C
  C5       1.0000 0.88130  0.99430  0.04552  Biso   1.000  C
  C6       1.0000 0.38130  0.49430  0.04552  Biso   1.000  C
  C7       1.0000 0.88130  0.00570  0.54552  Biso   1.000  C
  C8       1.0000 0.38130  0.50570  0.54552  Biso   1.000  C
  H1       1.0000 0.10600  0.01450  0.91550  Biso   1.000  H
  H2       1.0000 0.60600  0.51450  0.91550  Biso   1.000  H
  H3       1.0000 0.10600  0.98550  0.41550  Biso   1.000  H
  H4       1.0000 0.60600  0.48550  0.41550  Biso   1.000  H
  H5       1.0000 0.89400  0.98550  0.08450  Biso   1.000  H
  H6       1.0000 0.39400  0.48550  0.08450  Biso   1.000  H
  H7       1.0000 0.89400  0.01450  0.58450  Biso   1.000  H
  H8       1.0000 0.39400  0.51450  0.58450  Biso   1.000  H
  C9       1.0000 0.18444  0.99740  0.98461  Biso   1.000  C
  C10      1.0000 0.68444  0.49740  0.98461  Biso   1.000  C
  C11      1.0000 0.18444  0.00260  0.48461  Biso   1.000  C
  C12      1.0000 0.68444  0.50260  0.48461  Biso   1.000  C
  C13      1.0000 0.81556  0.00260  0.01539  Biso   1.000  C
  C14      1.0000 0.31556  0.50260  0.01539  Biso   1.000  C
  C15      1.0000 0.81556  0.99740  0.51539  Biso   1.000  C
  C16      1.0000 0.31556  0.49740  0.51539  Biso   1.000  C
  H9       1.0000 0.21610  0.99960  0.96700  Biso   1.000  H
  H10      1.0000 0.71610  0.49960  0.96700  Biso   1.000  H
  H11      1.0000 0.21610  0.00040  0.46700  Biso   1.000  H
  H12      1.0000 0.71610  0.50040  0.46700  Biso   1.000  H
  H13      1.0000 0.78390  0.00040  0.03300  Biso   1.000  H
  H14      1.0000 0.28390  0.50040  0.03300  Biso   1.000  H
  H15      1.0000 0.78390  0.99960  0.53300  Biso   1.000  H
  H16      1.0000 0.28390  0.49960  0.53300  Biso   1.000  H
  C17      1.0000 0.20187  0.98610  0.04049  Biso   1.000  C
  C18      1.0000 0.70187  0.48610  0.04049  Biso   1.000  C
  C19      1.0000 0.20187  0.01390  0.54049  Biso   1.000  C
  C20      1.0000 0.70187  0.51390  0.54049  Biso   1.000  C
  C21      1.0000 0.79813  0.01390  0.95951  Biso   1.000  C
  C22      1.0000 0.29813  0.51390  0.95951  Biso   1.000  C
  C23      1.0000 0.79813  0.98610  0.45951  Biso   1.000  C
  C24      1.0000 0.29813  0.48610  0.45951  Biso   1.000  C
  H17      1.0000 0.24610  0.97750  0.06330  Biso   1.000  H
  H18      1.0000 0.74610  0.47750  0.06330  Biso   1.000  H
  H19      1.0000 0.24610  0.02250  0.56330  Biso   1.000  H
  H20      1.0000 0.74610  0.52250  0.56330  Biso   1.000  H
  H21      1.0000 0.75390  0.02250  0.93670  Biso   1.000  H
  H22      1.0000 0.25390  0.52250  0.93670  Biso   1.000  H
  H23      1.0000 0.75390  0.97750  0.43670  Biso   1.000  H
  H24      1.0000 0.25390  0.47750  0.43670  Biso   1.000  H
  C25      1.0000 0.15252  0.98780  0.06279  Biso   1.000  C
  C26      1.0000 0.65252  0.48780  0.06279  Biso   1.000  C
  C27      1.0000 0.15252  0.01220  0.56279  Biso   1.000  C
  C28      1.0000 0.65252  0.51220  0.56279  Biso   1.000  C
  C29      1.0000 0.84748  0.01220  0.93721  Biso   1.000  C
  C30      1.0000 0.34748  0.51220  0.93721  Biso   1.000  C
  C31      1.0000 0.84748  0.98780  0.43721  Biso   1.000  C
  C32      1.0000 0.34748  0.48780  0.43721  Biso   1.000  C
  H25      1.0000 0.16420  0.98360  0.10190  Biso   1.000  H
  H26      1.0000 0.66420  0.48360  0.10190  Biso   1.000  H
  H27      1.0000 0.16420  0.01640  0.60190  Biso   1.000  H
  H28      1.0000 0.66420  0.51640  0.60190  Biso   1.000  H
  H29      1.0000 0.83580  0.01640  0.89810  Biso   1.000  H
  H30      1.0000 0.33580  0.51640  0.89810  Biso   1.000  H
  H31      1.0000 0.83580  0.98360  0.39810  Biso   1.000  H
  H32      1.0000 0.33580  0.48360  0.39810  Biso   1.000  H
  N17      1.0000 0.05164  0.91880  0.13607  Biso   1.000  N
  N18      1.0000 0.55164  0.41880  0.13607  Biso   1.000  N
  N19      1.0000 0.05164  0.08120  0.63607  Biso   1.000  N
  N20      1.0000 0.55164  0.58120  0.63607  Biso   1.000  N
  N21      1.0000 0.94836  0.08120  0.86393  Biso   1.000  N
  N22      1.0000 0.44836  0.58120  0.86393  Biso   1.000  N
  N23      1.0000 0.94836  0.91880  0.36393  Biso   1.000  N
  N24      1.0000 0.44836  0.41880  0.36393  Biso   1.000  N
  N25      1.0000 0.04727  0.95090  0.18495  Biso   1.000  N
  N26      1.0000 0.54727  0.45090  0.18495  Biso   1.000  N
  N27      1.0000 0.04727  0.04910  0.68495  Biso   1.000  N
  N28      1.0000 0.54727  0.54910  0.68495  Biso   1.000  N
  N29      1.0000 0.95273  0.04910  0.81505  Biso   1.000  N
  N30      1.0000 0.45273  0.54910  0.81505  Biso   1.000  N
  N31      1.0000 0.95273  0.95090  0.31505  Biso   1.000  N
  N32      1.0000 0.45273  0.45090  0.31505  Biso   1.000  N
  C33      1.0000 0.06840  0.88230  0.22789  Biso   1.000  C
  C34      1.0000 0.56840  0.38230  0.22789  Biso   1.000  C
  C35      1.0000 0.06840  0.11770  0.72789  Biso   1.000  C
  C36      1.0000 0.56840  0.61770  0.72789  Biso   1.000  C
  C37      1.0000 0.93160  0.11770  0.77211  Biso   1.000  C
  C38      1.0000 0.43160  0.61770  0.77211  Biso   1.000  C
  C39      1.0000 0.93160  0.88230  0.27211  Biso   1.000  C
  C40      1.0000 0.43160  0.38230  0.27211  Biso   1.000  C
  H33      1.0000 0.06470  0.90490  0.26210  Biso   1.000  H
  H34      1.0000 0.56470  0.40490  0.26210  Biso   1.000  H
  H35      1.0000 0.06470  0.09510  0.76210  Biso   1.000  H
  H36      1.0000 0.56470  0.59510  0.76210  Biso   1.000  H
  H37      1.0000 0.93530  0.09510  0.73790  Biso   1.000  H
  H38      1.0000 0.43530  0.59510  0.73790  Biso   1.000  H
  H39      1.0000 0.93530  0.90490  0.23790  Biso   1.000  H
  H40      1.0000 0.43530  0.40490  0.23790  Biso   1.000  H
  C41      1.0000 0.09540  0.77970  0.22559  Biso   1.000  C
  C42      1.0000 0.59540  0.27970  0.22559  Biso   1.000  C
  C43      1.0000 0.09540  0.22030  0.72559  Biso   1.000  C
  C44      1.0000 0.59540  0.72030  0.72559  Biso   1.000  C
  C45      1.0000 0.90460  0.22030  0.77441  Biso   1.000  C
  C46      1.0000 0.40460  0.72030  0.77441  Biso   1.000  C
  C47      1.0000 0.90460  0.77970  0.27441  Biso   1.000  C
  C48      1.0000 0.40460  0.27970  0.27441  Biso   1.000  C
  H41      1.0000 0.10960  0.73280  0.25710  Biso   1.000  H
  H42      1.0000 0.60960  0.23280  0.25710  Biso   1.000  H
  H43      1.0000 0.10960  0.26720  0.75710  Biso   1.000  H
  H44      1.0000 0.60960  0.76720  0.75710  Biso   1.000  H
  H45      1.0000 0.89040  0.26720  0.74290  Biso   1.000  H
  H46      1.0000 0.39040  0.76720  0.74290  Biso   1.000  H
  H47      1.0000 0.89040  0.73280  0.24290  Biso   1.000  H
  H48      1.0000 0.39040  0.23280  0.24290  Biso   1.000  H
  C49      1.0000 0.10080  0.74900  0.17635  Biso   1.000  C
  C50      1.0000 0.60080  0.24900  0.17635  Biso   1.000  C
  C51      1.0000 0.10080  0.25100  0.67635  Biso   1.000  C
  C52      1.0000 0.60080  0.75100  0.67635  Biso   1.000  C
  C53      1.0000 0.89920  0.25100  0.82365  Biso   1.000  C
  C54      1.0000 0.39920  0.75100  0.82365  Biso   1.000  C
  C55      1.0000 0.89920  0.74900  0.32365  Biso   1.000  C
  C56      1.0000 0.39920  0.24900  0.32365  Biso   1.000  C
  H49      1.0000 0.12000  0.68070  0.17230  Biso   1.000  H
  H50      1.0000 0.62000  0.18070  0.17230  Biso   1.000  H
  H51      1.0000 0.12000  0.31930  0.67230  Biso   1.000  H
  H52      1.0000 0.62000  0.81930  0.67230  Biso   1.000  H
  H53      1.0000 0.88000  0.31930  0.82770  Biso   1.000  H
  H54      1.0000 0.38000  0.81930  0.82770  Biso   1.000  H
  H55      1.0000 0.88000  0.68070  0.32770  Biso   1.000  H
  H56      1.0000 0.38000  0.18070  0.32770  Biso   1.000  H
  C57      1.0000 0.07730  0.82140  0.13257  Biso   1.000  C
  C58      1.0000 0.57730  0.32140  0.13257  Biso   1.000  C
  C59      1.0000 0.07730  0.17860  0.63257  Biso   1.000  C
  C60      1.0000 0.57730  0.67860  0.63257  Biso   1.000  C
  C61      1.0000 0.92270  0.17860  0.86743  Biso   1.000  C
  C62      1.0000 0.42270  0.67860  0.86743  Biso   1.000  C
  C63      1.0000 0.92270  0.82140  0.36743  Biso   1.000  C
  C64      1.0000 0.42270  0.32140  0.36743  Biso   1.000  C
  H57      1.0000 0.07980  0.80000  0.09780  Biso   1.000  H
  H58      1.0000 0.57980  0.30000  0.09780  Biso   1.000  H
  H59      1.0000 0.07980  0.20000  0.59780  Biso   1.000  H
  H60      1.0000 0.57980  0.70000  0.59780  Biso   1.000  H
  H61      1.0000 0.92020  0.20000  0.90220  Biso   1.000  H
  H62      1.0000 0.42020  0.70000  0.90220  Biso   1.000  H
  H63      1.0000 0.92020  0.80000  0.40220  Biso   1.000  H
  H64      1.0000 0.42020  0.30000  0.40220  Biso   1.000  H
  N33      1.0000 0.04008  0.18150  0.08997  Biso   1.000  N
  N34      1.0000 0.54008  0.68150  0.08997  Biso   1.000  N
  N35      1.0000 0.04008  0.81850  0.58997  Biso   1.000  N
  N36      1.0000 0.54008  0.31850  0.58997  Biso   1.000  N
  N37      1.0000 0.95992  0.81850  0.91003  Biso   1.000  N
  N38      1.0000 0.45992  0.31850  0.91003  Biso   1.000  N
  N39      1.0000 0.95992  0.18150  0.41003  Biso   1.000  N
  N40      1.0000 0.45992  0.68150  0.41003  Biso   1.000  N
  N41      1.0000 0.04951  0.21590  0.14255  Biso   1.000  N
  N42      1.0000 0.54951  0.71590  0.14255  Biso   1.000  N
  N43      1.0000 0.04951  0.78410  0.64255  Biso   1.000  N
  N44      1.0000 0.54951  0.28410  0.64255  Biso   1.000  N
  N45      1.0000 0.95049  0.78410  0.85745  Biso   1.000  N
  N46      1.0000 0.45049  0.28410  0.85745  Biso   1.000  N
  N47      1.0000 0.95049  0.21590  0.35745  Biso   1.000  N
  N48      1.0000 0.45049  0.71590  0.35745  Biso   1.000  N
  C65      1.0000 0.06450  0.32110  0.15519  Biso   1.000  C
  C66      1.0000 0.56450  0.82110  0.15519  Biso   1.000  C
  C67      1.0000 0.06450  0.67890  0.65519  Biso   1.000  C
  C68      1.0000 0.56450  0.17890  0.65519  Biso   1.000  C
  C69      1.0000 0.93550  0.67890  0.84481  Biso   1.000  C
  C70      1.0000 0.43550  0.17890  0.84481  Biso   1.000  C
  C71      1.0000 0.93550  0.32110  0.34481  Biso   1.000  C
  C72      1.0000 0.43550  0.82110  0.34481  Biso   1.000  C
  H65      1.0000 0.07160  0.34440  0.19210  Biso   1.000  H
  H66      1.0000 0.57160  0.84440  0.19210  Biso   1.000  H
  H67      1.0000 0.07160  0.65560  0.69210  Biso   1.000  H
  H68      1.0000 0.57160  0.15560  0.69210  Biso   1.000  H
  H69      1.0000 0.92840  0.65560  0.80790  Biso   1.000  H
  H70      1.0000 0.42840  0.15560  0.80790  Biso   1.000  H
  H71      1.0000 0.92840  0.34440  0.30790  Biso   1.000  H
  H72      1.0000 0.42840  0.84440  0.30790  Biso   1.000  H
  C73      1.0000 0.07040  0.39840  0.11759  Biso   1.000  C
  C74      1.0000 0.57040  0.89840  0.11759  Biso   1.000  C
  C75      1.0000 0.07040  0.60160  0.61759  Biso   1.000  C
  C76      1.0000 0.57040  0.10160  0.61759  Biso   1.000  C
  C77      1.0000 0.92960  0.60160  0.88241  Biso   1.000  C
  C78      1.0000 0.42960  0.10160  0.88241  Biso   1.000  C
  C79      1.0000 0.92960  0.39840  0.38241  Biso   1.000  C
  C80      1.0000 0.42960  0.89840  0.38241  Biso   1.000  C
  H73      1.0000 0.08100  0.47300  0.12820  Biso   1.000  H
  H74      1.0000 0.58100  0.97300  0.12820  Biso   1.000  H
  H75      1.0000 0.08100  0.52700  0.62820  Biso   1.000  H
  H76      1.0000 0.58100  0.02700  0.62820  Biso   1.000  H
  H77      1.0000 0.91900  0.52700  0.87180  Biso   1.000  H
  H78      1.0000 0.41900  0.02700  0.87180  Biso   1.000  H
  H79      1.0000 0.91900  0.47300  0.37180  Biso   1.000  H
  H80      1.0000 0.41900  0.97300  0.37180  Biso   1.000  H
  C81      1.0000 0.06040  0.36390  0.06489  Biso   1.000  C
  C82      1.0000 0.56040  0.86390  0.06489  Biso   1.000  C
  C83      1.0000 0.06040  0.63610  0.56489  Biso   1.000  C
  C84      1.0000 0.56040  0.13610  0.56489  Biso   1.000  C
  C85      1.0000 0.93960  0.63610  0.93511  Biso   1.000  C
  C86      1.0000 0.43960  0.13610  0.93511  Biso   1.000  C
  C87      1.0000 0.93960  0.36390  0.43511  Biso   1.000  C
  C88      1.0000 0.43960  0.86390  0.43511  Biso   1.000  C
  H81      1.0000 0.06360  0.41330  0.03730  Biso   1.000  H
  H82      1.0000 0.56360  0.91330  0.03730  Biso   1.000  H
  H83      1.0000 0.06360  0.58670  0.53730  Biso   1.000  H
  H84      1.0000 0.56360  0.08670  0.53730  Biso   1.000  H
  H85      1.0000 0.93640  0.58670  0.96270  Biso   1.000  H
  H86      1.0000 0.43640  0.08670  0.96270  Biso   1.000  H
  H87      1.0000 0.93640  0.41330  0.46270  Biso   1.000  H
  H88      1.0000 0.43640  0.91330  0.46270  Biso   1.000  H
  C89      1.0000 0.04545  0.25430  0.05332  Biso   1.000  C
  C90      1.0000 0.54545  0.75430  0.05332  Biso   1.000  C
  C91      1.0000 0.04545  0.74570  0.55332  Biso   1.000  C
  C92      1.0000 0.54545  0.24570  0.55332  Biso   1.000  C
  C93      1.0000 0.95455  0.74570  0.94668  Biso   1.000  C
  C94      1.0000 0.45455  0.24570  0.94668  Biso   1.000  C
  C95      1.0000 0.95455  0.25430  0.44668  Biso   1.000  C
  C96      1.0000 0.45455  0.75430  0.44668  Biso   1.000  C
  H89      1.0000 0.03850  0.22920  0.01670  Biso   1.000  H
  H90      1.0000 0.53850  0.72920  0.01670  Biso   1.000  H
  H91      1.0000 0.03850  0.77080  0.51670  Biso   1.000  H
  H92      1.0000 0.53850  0.27080  0.51670  Biso   1.000  H
  H93      1.0000 0.96150  0.77080  0.98330  Biso   1.000  H
  H94      1.0000 0.46150  0.27080  0.98330  Biso   1.000  H
  H95      1.0000 0.96150  0.22920  0.48330  Biso   1.000  H
  H96      1.0000 0.46150  0.72920  0.48330  Biso   1.000  H
  N49      1.0000 0.08870  0.14880  0.27292  Biso   1.000  N
  N50      1.0000 0.58870  0.64880  0.27292  Biso   1.000  N
  N51      1.0000 0.08870  0.85120  0.77292  Biso   1.000  N
  N52      1.0000 0.58870  0.35120  0.77292  Biso   1.000  N
  N53      1.0000 0.91130  0.85120  0.72708  Biso   1.000  N
  N54      1.0000 0.41130  0.35120  0.72708  Biso   1.000  N
  N55      1.0000 0.91130  0.14880  0.22708  Biso   1.000  N
  N56      1.0000 0.41130  0.64880  0.22708  Biso   1.000  N
  N57      1.0000 0.06619  0.16050  0.31552  Biso   1.000  N
  N58      1.0000 0.56619  0.66050  0.31552  Biso   1.000  N
  N59      1.0000 0.06619  0.83950  0.81552  Biso   1.000  N
  N60      1.0000 0.56619  0.33950  0.81552  Biso   1.000  N
  N61      1.0000 0.93381  0.83950  0.68448  Biso   1.000  N
  N62      1.0000 0.43381  0.33950  0.68448  Biso   1.000  N
  N63      1.0000 0.93381  0.16050  0.18448  Biso   1.000  N
  N64      1.0000 0.43381  0.66050  0.18448  Biso   1.000  N
  C97      1.0000 0.10588  0.19880  0.36325  Biso   1.000  C
  C98      1.0000 0.60588  0.69880  0.36325  Biso   1.000  C
  C99      1.0000 0.10588  0.80120  0.86325  Biso   1.000  C
  C100     1.0000 0.60588  0.30120  0.86325  Biso   1.000  C
  C101     1.0000 0.89412  0.80120  0.63675  Biso   1.000  C
  C102     1.0000 0.39412  0.30120  0.63675  Biso   1.000  C
  C103     1.0000 0.89412  0.19880  0.13675  Biso   1.000  C
  C104     1.0000 0.39412  0.69880  0.13675  Biso   1.000  C
  H97      1.0000 0.08910  0.20950  0.39240  Biso   1.000  H
  H98      1.0000 0.58910  0.70950  0.39240  Biso   1.000  H
  H99      1.0000 0.08910  0.79050  0.89240  Biso   1.000  H
  H100     1.0000 0.58910  0.29050  0.89240  Biso   1.000  H
  H101     1.0000 0.91090  0.79050  0.60760  Biso   1.000  H
  H102     1.0000 0.41090  0.29050  0.60760  Biso   1.000  H
  H103     1.0000 0.91090  0.20950  0.10760  Biso   1.000  H
  H104     1.0000 0.41090  0.70950  0.10760  Biso   1.000  H
  C105     1.0000 0.17083  0.22430  0.37338  Biso   1.000  C
  C106     1.0000 0.67083  0.72430  0.37338  Biso   1.000  C
  C107     1.0000 0.17083  0.77570  0.87338  Biso   1.000  C
  C108     1.0000 0.67083  0.27570  0.87338  Biso   1.000  C
  C109     1.0000 0.82917  0.77570  0.62662  Biso   1.000  C
  C110     1.0000 0.32917  0.27570  0.62662  Biso   1.000  C
  C111     1.0000 0.82917  0.22430  0.12662  Biso   1.000  C
  C112     1.0000 0.32917  0.72430  0.12662  Biso   1.000  C
  H105     1.0000 0.19800  0.25130  0.40840  Biso   1.000  H
  H106     1.0000 0.69800  0.75130  0.40840  Biso   1.000  H
  H107     1.0000 0.19800  0.74870  0.90840  Biso   1.000  H
  H108     1.0000 0.69800  0.24870  0.90840  Biso   1.000  H
  H109     1.0000 0.80200  0.74870  0.59160  Biso   1.000  H
  H110     1.0000 0.30200  0.24870  0.59160  Biso   1.000  H
  H111     1.0000 0.80200  0.25130  0.09160  Biso   1.000  H
  H112     1.0000 0.30200  0.75130  0.09160  Biso   1.000  H
  C113     1.0000 0.19384  0.20890  0.33061  Biso   1.000  C
  C114     1.0000 0.69384  0.70890  0.33061  Biso   1.000  C
  C115     1.0000 0.19384  0.79110  0.83061  Biso   1.000  C
  C116     1.0000 0.69384  0.29110  0.83061  Biso   1.000  C
  C117     1.0000 0.80616  0.79110  0.66939  Biso   1.000  C
  C118     1.0000 0.30616  0.29110  0.66939  Biso   1.000  C
  C119     1.0000 0.80616  0.20890  0.16939  Biso   1.000  C
  C120     1.0000 0.30616  0.70890  0.16939  Biso   1.000  C
  H113     1.0000 0.23800  0.22300  0.33500  Biso   1.000  H
  H114     1.0000 0.73800  0.72300  0.33500  Biso   1.000  H
  H115     1.0000 0.23800  0.77700  0.83500  Biso   1.000  H
  H116     1.0000 0.73800  0.27700  0.83500  Biso   1.000  H
  H117     1.0000 0.76200  0.77700  0.66500  Biso   1.000  H
  H118     1.0000 0.26200  0.27700  0.66500  Biso   1.000  H
  H119     1.0000 0.76200  0.22300  0.16500  Biso   1.000  H
  H120     1.0000 0.26200  0.72300  0.16500  Biso   1.000  H
  C121     1.0000 0.15016  0.17210  0.28083  Biso   1.000  C
  C122     1.0000 0.65016  0.67210  0.28083  Biso   1.000  C
  C123     1.0000 0.15016  0.82790  0.78083  Biso   1.000  C
  C124     1.0000 0.65016  0.32790  0.78083  Biso   1.000  C
  C125     1.0000 0.84984  0.82790  0.71917  Biso   1.000  C
  C126     1.0000 0.34984  0.32790  0.71917  Biso   1.000  C
  C127     1.0000 0.84984  0.17210  0.21917  Biso   1.000  C
  C128     1.0000 0.34984  0.67210  0.21917  Biso   1.000  C
  H121     1.0000 0.16520  0.16290  0.25060  Biso   1.000  H
  H122     1.0000 0.66520  0.66290  0.25060  Biso   1.000  H
  H123     1.0000 0.16520  0.83710  0.75060  Biso   1.000  H
  H124     1.0000 0.66520  0.33710  0.75060  Biso   1.000  H
  H125     1.0000 0.83480  0.83710  0.74940  Biso   1.000  H
  H126     1.0000 0.33480  0.33710  0.74940  Biso   1.000  H
  H127     1.0000 0.83480  0.16290  0.24940  Biso   1.000  H
  H128     1.0000 0.33480  0.66290  0.24940  Biso   1.000  H
  P1       1.0000 0.86339  0.35482  0.97944  Biso   1.000  P
  P2       1.0000 0.36339  0.85482  0.97944  Biso   1.000  P
  P3       1.0000 0.86339  0.64518  0.47944  Biso   1.000  P
  P4       1.0000 0.36339  0.14518  0.47944  Biso   1.000  P
  P5       1.0000 0.13661  0.64518  0.02056  Biso   1.000  P
  P6       1.0000 0.63661  0.14518  0.02056  Biso   1.000  P
  P7       1.0000 0.13661  0.35482  0.52056  Biso   1.000  P
  P8       1.0000 0.63661  0.85482  0.52056  Biso   1.000  P
  F1       1.0000 0.90270  0.42010  0.03158  Biso   1.000  F
  F2       1.0000 0.40270  0.92010  0.03158  Biso   1.000  F
  F3       1.0000 0.90270  0.57990  0.53158  Biso   1.000  F
  F4       1.0000 0.40270  0.07990  0.53158  Biso   1.000  F
  F5       1.0000 0.09730  0.57990  0.96842  Biso   1.000  F
  F6       1.0000 0.59730  0.07990  0.96842  Biso   1.000  F
  F7       1.0000 0.09730  0.42010  0.46842  Biso   1.000  F
  F8       1.0000 0.59730  0.92010  0.46842  Biso   1.000  F
  F9       1.0000 0.82704  0.46210  0.95140  Biso   1.000  F
  F10      1.0000 0.32704  0.96210  0.95140  Biso   1.000  F
  F11      1.0000 0.82704  0.53790  0.45140  Biso   1.000  F
  F12      1.0000 0.32704  0.03790  0.45140  Biso   1.000  F
  F13      1.0000 0.17296  0.53790  0.04860  Biso   1.000  F
  F14      1.0000 0.67296  0.03790  0.04860  Biso   1.000  F
  F15      1.0000 0.17296  0.46210  0.54860  Biso   1.000  F
  F16      1.0000 0.67296  0.96210  0.54860  Biso   1.000  F
  P9       1.0000 0.28050  0.00335  0.22906  Biso   1.000  P
  P10      1.0000 0.78050  0.50335  0.22906  Biso   1.000  P
  P11      1.0000 0.28050  0.99665  0.72906  Biso   1.000  P
  P12      1.0000 0.78050  0.49665  0.72906  Biso   1.000  P
  P13      1.0000 0.71950  0.99665  0.77094  Biso   1.000  P
  P14      1.0000 0.21950  0.49665  0.77094  Biso   1.000  P
  P15      1.0000 0.71950  0.00335  0.27094  Biso   1.000  P
  P16      1.0000 0.21950  0.50335  0.27094  Biso   1.000  P
  F17      1.0000 0.80637  0.33190  0.00225  Biso   1.000  F
  F18      1.0000 0.30637  0.83190  0.00225  Biso   1.000  F
  F19      1.0000 0.80637  0.66810  0.50225  Biso   1.000  F
  F20      1.0000 0.30637  0.16810  0.50225  Biso   1.000  F
  F21      1.0000 0.19363  0.66810  0.99775  Biso   1.000  F
  F22      1.0000 0.69363  0.16810  0.99775  Biso   1.000  F
  F23      1.0000 0.19363  0.33190  0.49775  Biso   1.000  F
  F24      1.0000 0.69363  0.83190  0.49775  Biso   1.000  F
  F25      1.0000 0.82567  0.28270  0.92665  Biso   1.000  F
  F26      1.0000 0.32567  0.78270  0.92665  Biso   1.000  F
  F27      1.0000 0.82567  0.71730  0.42665  Biso   1.000  F
  F28      1.0000 0.32567  0.21730  0.42665  Biso   1.000  F
  F29      1.0000 0.17433  0.71730  0.07335  Biso   1.000  F
  F30      1.0000 0.67433  0.21730  0.07335  Biso   1.000  F
  F31      1.0000 0.17433  0.28270  0.57335  Biso   1.000  F
  F32      1.0000 0.67433  0.78270  0.57335  Biso   1.000  F
  F33      1.0000 0.89943  0.24510  0.00709  Biso   1.000  F
  F34      1.0000 0.39943  0.74510  0.00709  Biso   1.000  F
  F35      1.0000 0.89943  0.75490  0.50709  Biso   1.000  F
  F36      1.0000 0.39943  0.25490  0.50709  Biso   1.000  F
  F37      1.0000 0.10057  0.75490  0.99291  Biso   1.000  F
  F38      1.0000 0.60057  0.25490  0.99291  Biso   1.000  F
  F39      1.0000 0.10057  0.24510  0.49291  Biso   1.000  F
  F40      1.0000 0.60057  0.74510  0.49291  Biso   1.000  F
  F41      1.0000 0.91960  0.37480  0.95485  Biso   1.000  F
  F42      1.0000 0.41960  0.87480  0.95485  Biso   1.000  F
  F43      1.0000 0.91960  0.62520  0.45485  Biso   1.000  F
  F44      1.0000 0.41960  0.12520  0.45485  Biso   1.000  F
  F45      1.0000 0.08040  0.62520  0.04515  Biso   1.000  F
  F46      1.0000 0.58040  0.12520  0.04515  Biso   1.000  F
  F47      1.0000 0.08040  0.37480  0.54515  Biso   1.000  F
  F48      1.0000 0.58040  0.87480  0.54515  Biso   1.000  F
  F49      1.0000 0.20381  0.99990  0.20708  Biso   1.000  F
  F50      1.0000 0.70381  0.49990  0.20708  Biso   1.000  F
  F51      1.0000 0.20381  0.00010  0.70708  Biso   1.000  F
  F52      1.0000 0.70381  0.50010  0.70708  Biso   1.000  F
  F53      1.0000 0.79619  0.00010  0.79292  Biso   1.000  F
  F54      1.0000 0.29619  0.50010  0.79292  Biso   1.000  F
  F55      1.0000 0.79619  0.99990  0.29292  Biso   1.000  F
  F56      1.0000 0.29619  0.49990  0.29292  Biso   1.000  F
  F57      1.0000 0.27920  0.12640  0.20964  Biso   1.000  F
  F58      1.0000 0.77920  0.62640  0.20964  Biso   1.000  F
  F59      1.0000 0.27920  0.87360  0.70964  Biso   1.000  F
  F60      1.0000 0.77920  0.37360  0.70964  Biso   1.000  F
  F61      1.0000 0.72080  0.87360  0.79036  Biso   1.000  F
  F62      1.0000 0.22080  0.37360  0.79036  Biso   1.000  F
  F63      1.0000 0.72080  0.12640  0.29036  Biso   1.000  F
  F64      1.0000 0.22080  0.62640  0.29036  Biso   1.000  F
  F65      1.0000 0.35775  0.00620  0.25214  Biso   1.000  F
  F66      1.0000 0.85775  0.50620  0.25214  Biso   1.000  F
  F67      1.0000 0.35775  0.99380  0.75214  Biso   1.000  F
  F68      1.0000 0.85775  0.49380  0.75214  Biso   1.000  F
  F69      1.0000 0.64225  0.99380  0.74786  Biso   1.000  F
  F70      1.0000 0.14225  0.49380  0.74786  Biso   1.000  F
  F71      1.0000 0.64225  0.00620  0.24786  Biso   1.000  F
  F72      1.0000 0.14225  0.50620  0.24786  Biso   1.000  F
  F73      1.0000 0.28058  0.96100  0.17030  Biso   1.000  F
  F74      1.0000 0.78058  0.46100  0.17030  Biso   1.000  F
  F75      1.0000 0.28058  0.03900  0.67030  Biso   1.000  F
  F76      1.0000 0.78058  0.53900  0.67030  Biso   1.000  F
  F77      1.0000 0.71942  0.03900  0.82970  Biso   1.000  F
  F78      1.0000 0.21942  0.53900  0.82970  Biso   1.000  F
  F79      1.0000 0.71942  0.96100  0.32970  Biso   1.000  F
  F80      1.0000 0.21942  0.46100  0.32970  Biso   1.000  F
  F81      1.0000 0.28400  0.87960  0.25054  Biso   1.000  F
  F82      1.0000 0.78400  0.37960  0.25054  Biso   1.000  F
  F83      1.0000 0.28400  0.12040  0.75054  Biso   1.000  F
  F84      1.0000 0.78400  0.62040  0.75054  Biso   1.000  F
  F85      1.0000 0.71600  0.12040  0.74946  Biso   1.000  F
  F86      1.0000 0.21600  0.62040  0.74946  Biso   1.000  F
  F87      1.0000 0.71600  0.87960  0.24946  Biso   1.000  F
  F88      1.0000 0.21600  0.37960  0.24946  Biso   1.000  F
  F89      1.0000 0.28065  0.04540  0.28791  Biso   1.000  F
  F90      1.0000 0.78065  0.54540  0.28791  Biso   1.000  F
  F91      1.0000 0.28065  0.95460  0.78791  Biso   1.000  F
  F92      1.0000 0.78065  0.45460  0.78791  Biso   1.000  F
  F93      1.0000 0.71935  0.95460  0.71209  Biso   1.000  F
  F94      1.0000 0.21935  0.45460  0.71209  Biso   1.000  F
  F95      1.0000 0.71935  0.04540  0.21209  Biso   1.000  F
  F96      1.0000 0.21935  0.54540  0.21209  Biso   1.000  F
  C129     1.0000 0.26030  0.84450  0.36950  Biso   1.000  C
  C130     1.0000 0.76030  0.34450  0.36950  Biso   1.000  C
  C131     1.0000 0.26030  0.15550  0.86950  Biso   1.000  C
  C132     1.0000 0.76030  0.65550  0.86950  Biso   1.000  C
  C133     1.0000 0.73970  0.15550  0.63050  Biso   1.000  C
  C134     1.0000 0.23970  0.65550  0.63050  Biso   1.000  C
  C135     1.0000 0.73970  0.84450  0.13050  Biso   1.000  C
  C136     1.0000 0.23970  0.34450  0.13050  Biso   1.000  C
  H129     1.0000 0.26170  0.79780  0.33830  Biso   1.000  H
  H130     1.0000 0.76170  0.29780  0.33830  Biso   1.000  H
  H131     1.0000 0.26170  0.20220  0.83830  Biso   1.000  H
  H132     1.0000 0.76170  0.70220  0.83830  Biso   1.000  H
  H133     1.0000 0.73830  0.20220  0.66170  Biso   1.000  H
  H134     1.0000 0.23830  0.70220  0.66170  Biso   1.000  H
  H135     1.0000 0.73830  0.79780  0.16170  Biso   1.000  H
  H136     1.0000 0.23830  0.29780  0.16170  Biso   1.000  H
  H137     1.0000 0.29270  0.90410  0.37470  Biso   1.000  H
  H138     1.0000 0.79270  0.40410  0.37470  Biso   1.000  H
  H139     1.0000 0.29270  0.09590  0.87470  Biso   1.000  H
  H140     1.0000 0.79270  0.59590  0.87470  Biso   1.000  H
  H141     1.0000 0.70730  0.09590  0.62530  Biso   1.000  H
  H142     1.0000 0.20730  0.59590  0.62530  Biso   1.000  H
  H143     1.0000 0.70730  0.90410  0.12530  Biso   1.000  H
  H144     1.0000 0.20730  0.40410  0.12530  Biso   1.000  H
  Cl1      1.0000 0.28009  0.76555  0.42927  Biso   1.000  Cl
  Cl2      1.0000 0.78009  0.26555  0.42927  Biso   1.000  Cl
  Cl3      1.0000 0.28009  0.23445  0.92927  Biso   1.000  Cl
  Cl4      1.0000 0.78009  0.73445  0.92927  Biso   1.000  Cl
  Cl5      1.0000 0.71991  0.23445  0.57073  Biso   1.000  Cl
  Cl6      1.0000 0.21991  0.73445  0.57073  Biso   1.000  Cl
  Cl7      1.0000 0.71991  0.76555  0.07073  Biso   1.000  Cl
  Cl8      1.0000 0.21991  0.26555  0.07073  Biso   1.000  Cl
  Cl9      1.0000 0.18240  0.90247  0.35314  Biso   1.000  Cl
  Cl10     1.0000 0.68240  0.40247  0.35314  Biso   1.000  Cl
  Cl11     1.0000 0.18240  0.09753  0.85314  Biso   1.000  Cl
  Cl12     1.0000 0.68240  0.59753  0.85314  Biso   1.000  Cl
  Cl13     1.0000 0.81760  0.09753  0.64686  Biso   1.000  Cl
  Cl14     1.0000 0.31760  0.59753  0.64686  Biso   1.000  Cl
  Cl15     1.0000 0.81760  0.90247  0.14686  Biso   1.000  Cl
  Cl16     1.0000 0.31760  0.40247  0.14686  Biso   1.000  Cl
  C137     1.0000 0.89430  0.60460  0.11900  Biso   1.000  C
  C138     1.0000 0.39430  0.10460  0.11900  Biso   1.000  C
  C139     1.0000 0.89430  0.39540  0.61900  Biso   1.000  C
  C140     1.0000 0.39430  0.89540  0.61900  Biso   1.000  C
  C141     1.0000 0.10570  0.39540  0.88100  Biso   1.000  C
  C142     1.0000 0.60570  0.89540  0.88100  Biso   1.000  C
  C143     1.0000 0.10570  0.60460  0.38100  Biso   1.000  C
  C144     1.0000 0.60570  0.10460  0.38100  Biso   1.000  C
  H145     1.0000 0.85850  0.62900  0.13150  Biso   1.000  H
  H146     1.0000 0.35850  0.12900  0.13150  Biso   1.000  H
  H147     1.0000 0.85850  0.37100  0.63150  Biso   1.000  H
  H148     1.0000 0.35850  0.87100  0.63150  Biso   1.000  H
  H149     1.0000 0.14150  0.37100  0.86850  Biso   1.000  H
  H150     1.0000 0.64150  0.87100  0.86850  Biso   1.000  H
  H151     1.0000 0.14150  0.62900  0.36850  Biso   1.000  H
  H152     1.0000 0.64150  0.12900  0.36850  Biso   1.000  H
  H153     1.0000 0.87840  0.54180  0.09330  Biso   1.000  H
  H154     1.0000 0.37840  0.04180  0.09330  Biso   1.000  H
  H155     1.0000 0.87840  0.45820  0.59330  Biso   1.000  H
  H156     1.0000 0.37840  0.95820  0.59330  Biso   1.000  H
  H157     1.0000 0.12160  0.45820  0.90670  Biso   1.000  H
  H158     1.0000 0.62160  0.95820  0.90670  Biso   1.000  H
  H159     1.0000 0.12160  0.54180  0.40670  Biso   1.000  H
  H160     1.0000 0.62160  0.04180  0.40670  Biso   1.000  H
  Cl17     1.0000 0.91689  0.71410  0.08383  Biso   1.000  Cl
  Cl18     1.0000 0.41689  0.21410  0.08383  Biso   1.000  Cl
  Cl19     1.0000 0.91689  0.28590  0.58383  Biso   1.000  Cl
  Cl20     1.0000 0.41689  0.78590  0.58383  Biso   1.000  Cl
  Cl21     1.0000 0.08311  0.28590  0.91617  Biso   1.000  Cl
  Cl22     1.0000 0.58311  0.78590  0.91617  Biso   1.000  Cl
  Cl23     1.0000 0.08311  0.71410  0.41617  Biso   1.000  Cl
  Cl24     1.0000 0.58311  0.21410  0.41617  Biso   1.000  Cl
  Cl25     1.0000 0.96072  0.56160  0.17663  Biso   1.000  Cl
  Cl26     1.0000 0.46072  0.06160  0.17663  Biso   1.000  Cl
  Cl27     1.0000 0.96072  0.43840  0.67663  Biso   1.000  Cl
  Cl28     1.0000 0.46072  0.93840  0.67663  Biso   1.000  Cl
  Cl29     1.0000 0.03928  0.43840  0.82337  Biso   1.000  Cl
  Cl30     1.0000 0.53928  0.93840  0.82337  Biso   1.000  Cl
  Cl31     1.0000 0.03928  0.56160  0.32337  Biso   1.000  Cl
  Cl32     1.0000 0.53928  0.06160  0.32337  Biso   1.000  Cl
