data_image0
_cell_length_a       10.904
_cell_length_b       15.087
_cell_length_c       15.303
_cell_angle_alpha    116.23
_cell_angle_beta     100.08
_cell_angle_gamma    94.4

_symmetry_space_group_name_H-M    "P 1"
_symmetry_int_tables_number       1

loop_
  _symmetry_equiv_pos_as_xyz
  'x, y, z'

loop_
  _atom_site_label
  _atom_site_occupancy
  _atom_site_fract_x
  _atom_site_fract_y
  _atom_site_fract_z
  _atom_site_thermal_displace_type
  _atom_site_B_iso_or_equiv
  _atom_site_type_symbol
  Cu1      1.0000 0.10971  0.56460  0.16200  Biso   1.000  Cu
  Cu2      1.0000 0.89029  0.43540  0.83800  Biso   1.000  Cu
  Cu3      1.0000 0.17094  0.55112  0.39420  Biso   1.000  Cu
  Cu4      1.0000 0.82906  0.44888  0.60580  Biso   1.000  Cu
  Cu5      1.0000 0.17027  0.86960  0.36580  Biso   1.000  Cu
  Cu6      1.0000 0.82973  0.13040  0.63420  Biso   1.000  Cu
  W1       1.0000 0.15412  0.87113  0.80731  Biso   1.000  W
  W2       1.0000 0.84588  0.12887  0.19269  Biso   1.000  W
  W3       1.0000 0.91559  0.73839  0.85537  Biso   1.000  W
  W4       1.0000 0.08441  0.26161  0.14463  Biso   1.000  W
  W5       1.0000 0.08466  0.84230  0.10582  Biso   1.000  W
  W6       1.0000 0.91534  0.15770  0.89418  Biso   1.000  W
  W7       1.0000 0.76392  0.86667  0.05048  Biso   1.000  W
  W8       1.0000 0.23608  0.13333  0.94952  Biso   1.000  W
  W9       1.0000 0.16596  0.10476  0.25258  Biso   1.000  W
  W10      1.0000 0.83404  0.89524  0.74742  Biso   1.000  W
  W11      1.0000 0.32109  0.97852  0.05994  Biso   1.000  W
  W12      1.0000 0.67891  0.02148  0.94006  Biso   1.000  W
  Si1      1.0000 0.00000  0.00000  0.00000  Biso   1.000  Si
  O1       1.0000 0.91410  0.84540  0.11330  Biso   1.000  O
  O2       1.0000 0.08590  0.15460  0.88670  Biso   1.000  O
  O3       1.0000 0.44820  0.83240  0.64450  Biso   1.000  O
  O4       1.0000 0.55180  0.16760  0.35550  Biso   1.000  O
  O5       1.0000 0.82570  0.77910  0.76760  Biso   1.000  O
  O6       1.0000 0.17430  0.22090  0.23240  Biso   1.000  O
  O7       1.0000 0.44510  0.73600  0.84790  Biso   1.000  O
  O8       1.0000 0.55490  0.26400  0.15210  Biso   1.000  O
  O9       1.0000 0.29990  0.07240  0.18850  Biso   1.000  O
  O10      1.0000 0.70010  0.92760  0.81150  Biso   1.000  O
  O11      1.0000 0.78810  0.76430  0.92760  Biso   1.000  O
  O12      1.0000 0.21190  0.23570  0.07240  Biso   1.000  O
  O13      1.0000 0.02790  0.75070  0.96930  Biso   1.000  O
  O14      1.0000 0.97210  0.24930  0.03070  Biso   1.000  O
  O15      1.0000 0.06340  0.76440  0.81450  Biso   1.000  O
  O16      1.0000 0.93660  0.23560  0.18550  Biso   1.000  O
  O17      1.0000 0.12330  0.97010  0.22270  Biso   1.000  O
  O18      1.0000 0.87670  0.02990  0.77730  Biso   1.000  O
  O19      1.0000 0.27440  0.89100  0.92090  Biso   1.000  O
  O20      1.0000 0.72560  0.10900  0.07910  Biso   1.000  O
  O21      1.0000 0.13020  0.99650  0.96980  Biso   1.000  O
  O22      1.0000 0.86980  0.00350  0.03020  Biso   1.000  O
  O23      1.0000 0.01580  0.09140  0.11360  Biso   1.000  O
  O24      1.0000 0.98420  0.90860  0.88640  Biso   1.000  O
  O25      1.0000 0.66360  0.91250  0.97010  Biso   1.000  O
  O26      1.0000 0.33640  0.08750  0.02990  Biso   1.000  O
  O27      1.0000 0.95190  0.89390  0.00410  Biso   1.000  O
  O28      1.0000 0.04810  0.10610  0.99590  Biso   1.000  O
  O29      1.0000 0.23850  0.87500  0.07790  Biso   1.000  O
  O30      1.0000 0.76150  0.12500  0.92210  Biso   1.000  O
  O31      1.0000 0.24400  0.15530  0.37380  Biso   1.000  O
  O32      1.0000 0.75600  0.84470  0.62620  Biso   1.000  O
  O33      1.0000 0.21270  0.00620  0.84020  Biso   1.000  O
  O34      1.0000 0.78730  0.99380  0.15980  Biso   1.000  O
  O35      1.0000 0.22370  0.80870  0.71420  Biso   1.000  O
  O36      1.0000 0.77630  0.19130  0.28580  Biso   1.000  O
  O37      1.0000 0.47110  0.97070  0.09160  Biso   1.000  O
  O38      1.0000 0.52890  0.02930  0.90840  Biso   1.000  O
  O39      1.0000 0.89010  0.01140  0.92320  Biso   1.000  O
  O40      1.0000 0.10990  0.98860  0.07680  Biso   1.000  O
  O41      1.0000 0.88080  0.61430  0.78730  Biso   1.000  O
  O42      1.0000 0.11920  0.38570  0.21270  Biso   1.000  O
  O43      1.0000 0.65440  0.80210  0.07340  Biso   1.000  O
  O44      1.0000 0.34560  0.19790  0.92660  Biso   1.000  O
  O45      1.0000 0.00030  0.87910  0.73210  Biso   1.000  O
  O46      1.0000 0.99970  0.12090  0.26790  Biso   1.000  O
  O47      1.0000 0.12840  0.76950  0.15910  Biso   1.000  O
  O48      1.0000 0.87160  0.23050  0.84090  Biso   1.000  O
  N1       1.0000 0.34870  0.54160  0.40180  Biso   1.000  N
  N2       1.0000 0.65130  0.45840  0.59820  Biso   1.000  N
  N3       1.0000 0.92870  0.55020  0.13440  Biso   1.000  N
  N4       1.0000 0.07130  0.44980  0.86560  Biso   1.000  N
  N5       1.0000 0.27580  0.55290  0.14070  Biso   1.000  N
  N6       1.0000 0.72420  0.44710  0.85930  Biso   1.000  N
  N7       1.0000 0.00090  0.88700  0.37930  Biso   1.000  N
  N8       1.0000 0.99910  0.11300  0.62070  Biso   1.000  N
  N9       1.0000 0.34970  0.89150  0.37590  Biso   1.000  N
  N10      1.0000 0.65030  0.10850  0.62410  Biso   1.000  N
  N11      1.0000 0.00090  0.54200  0.41540  Biso   1.000  N
  N12      1.0000 0.99910  0.45800  0.58460  Biso   1.000  N
  C1       1.0000 0.35300  0.63090  0.15380  Biso   1.000  C
  C2       1.0000 0.64700  0.36910  0.84620  Biso   1.000  C
  H1       1.0000 0.32080  0.68980  0.16800  Biso   1.000  H
  H2       1.0000 0.67920  0.31020  0.83200  Biso   1.000  H
  C3       1.0000 0.43210  0.62250  0.44500  Biso   1.000  C
  C4       1.0000 0.56790  0.37750  0.55500  Biso   1.000  C
  H3       1.0000 0.40440  0.68370  0.47320  Biso   1.000  H
  H4       1.0000 0.59560  0.31630  0.52680  Biso   1.000  H
  C5       1.0000 0.39500  0.45410  0.36380  Biso   1.000  C
  C6       1.0000 0.60500  0.54590  0.63620  Biso   1.000  C
  H5       1.0000 0.33800  0.39410  0.33360  Biso   1.000  H
  H6       1.0000 0.66200  0.60590  0.66640  Biso   1.000  H
  C7       1.0000 0.93640  0.83320  0.41080  Biso   1.000  C
  C8       1.0000 0.06360  0.16680  0.58920  Biso   1.000  C
  H7       1.0000 0.97780  0.79170  0.43140  Biso   1.000  H
  H8       1.0000 0.02220  0.20830  0.56860  Biso   1.000  H
  C9       1.0000 0.56030  0.62390  0.45180  Biso   1.000  C
  C10      1.0000 0.43970  0.37610  0.54820  Biso   1.000  C
  H9       1.0000 0.61550  0.68510  0.48590  Biso   1.000  H
  H10      1.0000 0.38450  0.31490  0.51410  Biso   1.000  H
  C11      1.0000 0.48110  0.63310  0.14810  Biso   1.000  C
  C12      1.0000 0.51890  0.36690  0.85190  Biso   1.000  C
  H11      1.0000 0.52870  0.69040  0.15440  Biso   1.000  H
  H12      1.0000 0.47130  0.30960  0.84560  Biso   1.000  H
  C13      1.0000 0.53260  0.55240  0.13380  Biso   1.000  C
  C14      1.0000 0.46740  0.44760  0.86620  Biso   1.000  C
  C15      1.0000 0.91430  0.46410  0.34960  Biso   1.000  C
  C16      1.0000 0.08570  0.53590  0.65040  Biso   1.000  C
  H13      1.0000 0.93930  0.40980  0.30100  Biso   1.000  H
  H14      1.0000 0.06070  0.59020  0.69900  Biso   1.000  H
  C17      1.0000 0.51960  0.44980  0.36770  Biso   1.000  C
  C18      1.0000 0.48040  0.55020  0.63230  Biso   1.000  C
  H15      1.0000 0.54690  0.38830  0.34220  Biso   1.000  H
  H16      1.0000 0.45310  0.61170  0.65780  Biso   1.000  H
  C19      1.0000 0.87490  0.63170  0.15400  Biso   1.000  C
  C20      1.0000 0.12510  0.36830  0.84600  Biso   1.000  C
  H17      1.0000 0.92620  0.69090  0.16830  Biso   1.000  H
  H18      1.0000 0.07380  0.30910  0.83170  Biso   1.000  H
  C21      1.0000 0.85200  0.46980  0.11370  Biso   1.000  C
  C22      1.0000 0.14800  0.53020  0.88630  Biso   1.000  C
  H19      1.0000 0.88530  0.41140  0.10020  Biso   1.000  H
  H20      1.0000 0.11470  0.58860  0.89980  Biso   1.000  H
  C23      1.0000 0.72210  0.46510  0.11020  Biso   1.000  C
  C24      1.0000 0.27790  0.53490  0.88980  Biso   1.000  C
  H21      1.0000 0.67250  0.40450  0.09390  Biso   1.000  H
  H22      1.0000 0.32750  0.59550  0.90610  Biso   1.000  H
  C25      1.0000 0.32810  0.47450  0.12320  Biso   1.000  C
  C26      1.0000 0.67190  0.52550  0.87680  Biso   1.000  C
  H23      1.0000 0.27730  0.41740  0.11440  Biso   1.000  H
  H24      1.0000 0.72270  0.58260  0.88560  Biso   1.000  H
  C27      1.0000 0.96230  0.61930  0.48240  Biso   1.000  C
  C28      1.0000 0.03770  0.38070  0.51760  Biso   1.000  C
  H25      1.0000 0.02220  0.67560  0.52790  Biso   1.000  H
  H26      1.0000 0.97780  0.32440  0.47210  Biso   1.000  H
  C29      1.0000 0.83730  0.62020  0.48770  Biso   1.000  C
  C30      1.0000 0.16270  0.37980  0.51230  Biso   1.000  C
  H27      1.0000 0.81540  0.67420  0.53870  Biso   1.000  H
  H28      1.0000 0.18460  0.32580  0.46130  Biso   1.000  H
  C31      1.0000 0.55550  0.87210  0.44710  Biso   1.000  C
  C32      1.0000 0.44450  0.12790  0.55290  Biso   1.000  C
  H29      1.0000 0.60460  0.85720  0.49330  Biso   1.000  H
  H30      1.0000 0.39540  0.14280  0.50670  Biso   1.000  H
  C33      1.0000 0.60630  0.53970  0.41080  Biso   1.000  C
  C34      1.0000 0.39370  0.46030  0.58920  Biso   1.000  C
  C35      1.0000 0.45140  0.46710  0.11650  Biso   1.000  C
  C36      1.0000 0.54860  0.53290  0.88350  Biso   1.000  C
  H31      1.0000 0.48010  0.40660  0.10070  Biso   1.000  H
  H32      1.0000 0.51990  0.59340  0.89930  Biso   1.000  H
  C37      1.0000 0.80880  0.83590  0.41450  Biso   1.000  C
  C38      1.0000 0.19120  0.16410  0.58550  Biso   1.000  C
  H33      1.0000 0.76760  0.79690  0.43730  Biso   1.000  H
  H34      1.0000 0.23240  0.20310  0.56270  Biso   1.000  H
  C39      1.0000 0.78780  0.46030  0.35060  Biso   1.000  C
  C40      1.0000 0.21220  0.53970  0.64940  Biso   1.000  C
  H35      1.0000 0.73080  0.40220  0.30520  Biso   1.000  H
  H36      1.0000 0.26920  0.59780  0.69480  Biso   1.000  H
  C41      1.0000 0.74390  0.53990  0.41650  Biso   1.000  C
  C42      1.0000 0.25610  0.46010  0.58350  Biso   1.000  C
  C43      1.0000 0.74920  0.63430  0.15460  Biso   1.000  C
  C44      1.0000 0.25080  0.36570  0.84540  Biso   1.000  C
  H37      1.0000 0.71870  0.69420  0.17130  Biso   1.000  H
  H38      1.0000 0.28130  0.30580  0.82870  Biso   1.000  H
  C45      1.0000 0.66850  0.54720  0.13010  Biso   1.000  C
  C46      1.0000 0.33150  0.45280  0.86990  Biso   1.000  C
  C47      1.0000 0.53100  0.91700  0.31370  Biso   1.000  C
  C48      1.0000 0.46900  0.08300  0.68630  Biso   1.000  C
  H39      1.0000 0.56390  0.93310  0.26940  Biso   1.000  H
  H40      1.0000 0.43610  0.06690  0.73060  Biso   1.000  H
  C49      1.0000 0.60750  0.89520  0.38190  Biso   1.000  C
  C50      1.0000 0.39250  0.10480  0.61810  Biso   1.000  C
  C51      1.0000 0.74610  0.89550  0.38470  Biso   1.000  C
  C52      1.0000 0.25390  0.10450  0.61530  Biso   1.000  C
  C53      1.0000 0.42650  0.87200  0.44030  Biso   1.000  C
  C54      1.0000 0.57350  0.12800  0.55970  Biso   1.000  C
  H41      1.0000 0.39130  0.85720  0.48440  Biso   1.000  H
  H42      1.0000 0.60870  0.14280  0.51560  Biso   1.000  H
  C55      1.0000 0.94020  0.94750  0.35430  Biso   1.000  C
  C56      1.0000 0.05980  0.05250  0.64570  Biso   1.000  C
  H43      1.0000 0.98410  0.98780  0.33430  Biso   1.000  H
  H44      1.0000 0.01590  0.01220  0.66570  Biso   1.000  H
  C57      1.0000 0.81300  0.95470  0.35600  Biso   1.000  C
  C58      1.0000 0.18700  0.04530  0.64400  Biso   1.000  C
  H45      1.0000 0.77470  0.99900  0.33790  Biso   1.000  H
  H46      1.0000 0.22530  0.00100  0.66210  Biso   1.000  H
  C59      1.0000 0.40200  0.91380  0.31430  Biso   1.000  C
  C60      1.0000 0.59800  0.08620  0.68570  Biso   1.000  C
  H47      1.0000 0.35010  0.92810  0.26880  Biso   1.000  H
  H48      1.0000 0.64990  0.07190  0.73120  Biso   1.000  H
  Cl1      1.0000 0.16160  0.68800  0.34590  Biso   1.000  Cl
  Cl2      1.0000 0.83840  0.31200  0.65410  Biso   1.000  Cl
