data_image0
_cell_length_a       7.436
_cell_length_b       8.9955
_cell_length_c       12.8669
_cell_angle_alpha    80.271
_cell_angle_beta     87.092
_cell_angle_gamma    72.335

_symmetry_space_group_name_H-M    "P 1"
_symmetry_int_tables_number       1

loop_
  _symmetry_equiv_pos_as_xyz
  'x, y, z'

loop_
  _atom_site_label
  _atom_site_occupancy
  _atom_site_fract_x
  _atom_site_fract_y
  _atom_site_fract_z
  _atom_site_thermal_displace_type
  _atom_site_B_iso_or_equiv
  _atom_site_type_symbol
  Cu1      1.0000 0.61157  0.15391  0.14170  Biso   1.000  Cu
  Cu2      1.0000 0.38843  0.84609  0.85830  Biso   1.000  Cu
  Cu3      1.0000 0.11580  0.46540  0.64017  Biso   1.000  Cu
  Cu4      1.0000 0.88420  0.53460  0.35983  Biso   1.000  Cu
  Cu5      1.0000 0.79726  0.74471  0.93024  Biso   1.000  Cu
  Cu6      1.0000 0.20274  0.25529  0.06976  Biso   1.000  Cu
  Cu7      1.0000 0.31672  0.88027  0.43475  Biso   1.000  Cu
  Cu8      1.0000 0.68328  0.11973  0.56525  Biso   1.000  Cu
  N1       1.0000 0.62340  0.37600  0.14285  Biso   1.000  N
  N2       1.0000 0.37660  0.62400  0.85715  Biso   1.000  N
  N3       1.0000 0.78610  0.38260  0.98546  Biso   1.000  N
  N4       1.0000 0.21390  0.61740  0.01454  Biso   1.000  N
  N5       1.0000 0.68420  0.61390  0.05604  Biso   1.000  N
  N6       1.0000 0.31580  0.38610  0.94396  Biso   1.000  N
  N7       1.0000 0.13440  0.23540  0.64359  Biso   1.000  N
  N8       1.0000 0.86560  0.76460  0.35641  Biso   1.000  N
  N9       1.0000 0.29220  0.22540  0.48433  Biso   1.000  N
  N10      1.0000 0.70780  0.77460  0.51567  Biso   1.000  N
  N11      1.0000 0.19680  0.00870  0.55785  Biso   1.000  N
  N12      1.0000 0.80320  0.99130  0.44215  Biso   1.000  N
  C1       1.0000 0.97310  0.56300  0.75100  Biso   1.000  C
  C2       1.0000 0.02690  0.43700  0.24900  Biso   1.000  C
  N13      1.0000 0.90200  0.63150  0.81880  Biso   1.000  N
  N14      1.0000 0.09800  0.36850  0.18120  Biso   1.000  N
  C3       1.0000 0.22550  0.57990  0.52957  Biso   1.000  C
  C4       1.0000 0.77450  0.42010  0.47043  Biso   1.000  C
  N15      1.0000 0.27490  0.68270  0.48214  Biso   1.000  N
  N16      1.0000 0.72510  0.31730  0.51786  Biso   1.000  N
  N17      1.0000 0.41100  0.99470  0.31883  Biso   1.000  N
  N18      1.0000 0.58900  0.00530  0.68117  Biso   1.000  N
  C5       1.0000 0.47840  0.06270  0.25117  Biso   1.000  C
  C6       1.0000 0.52160  0.93730  0.74883  Biso   1.000  C
  N19      1.0000 0.73070  0.04080  0.02926  Biso   1.000  N
  N20      1.0000 0.26930  0.95920  0.97074  Biso   1.000  N
  C7       1.0000 0.77260  0.93620  0.98143  Biso   1.000  C
  C8       1.0000 0.22740  0.06380  0.01857  Biso   1.000  C
  C9       1.0000 0.69640  0.45900  0.06308  Biso   1.000  C
  C10      1.0000 0.30360  0.54100  0.93692  Biso   1.000  C
  C11      1.0000 0.54030  0.45280  0.22158  Biso   1.000  C
  C12      1.0000 0.45970  0.54720  0.77842  Biso   1.000  C
  C13      1.0000 0.52530  0.60950  0.22257  Biso   1.000  C
  C14      1.0000 0.47470  0.39050  0.77743  Biso   1.000  C
  C15      1.0000 0.59850  0.68570  0.13638  Biso   1.000  C
  C16      1.0000 0.40150  0.31430  0.86362  Biso   1.000  C
  C17      1.0000 0.20580  0.15550  0.56287  Biso   1.000  C
  C18      1.0000 0.79420  0.84450  0.43713  Biso   1.000  C
  C19      1.0000 0.05330  0.16260  0.72263  Biso   1.000  C
  C20      1.0000 0.94670  0.83740  0.27737  Biso   1.000  C
  C21      1.0000 0.03700  0.01290  0.72385  Biso   1.000  C
  C22      1.0000 0.96300  0.98710  0.27615  Biso   1.000  C
  C23      1.0000 0.11140  0.94130  0.63799  Biso   1.000  C
  C24      1.0000 0.88860  0.05870  0.36201  Biso   1.000  C
  H1       1.0000 0.82100  0.43700  0.93500  Biso   1.000  H
  H2       1.0000 0.17900  0.56300  0.06500  Biso   1.000  H
  H3       1.0000 0.79400  0.28600  0.99000  Biso   1.000  H
  H4       1.0000 0.20600  0.71400  0.01000  Biso   1.000  H
  H5       1.0000 0.27900  0.32800  0.48400  Biso   1.000  H
  H6       1.0000 0.72100  0.67200  0.51600  Biso   1.000  H
  H7       1.0000 0.32200  0.18000  0.43500  Biso   1.000  H
  H8       1.0000 0.67800  0.82000  0.56500  Biso   1.000  H
  H9       1.0000 0.49400  0.39600  0.27600  Biso   1.000  H
  H10      1.0000 0.50600  0.60400  0.72400  Biso   1.000  H
  H11      1.0000 0.46500  0.66300  0.27600  Biso   1.000  H
  H12      1.0000 0.53500  0.33700  0.72400  Biso   1.000  H
  H13      1.0000 0.58400  0.79200  0.13200  Biso   1.000  H
  H14      1.0000 0.41600  0.20800  0.86800  Biso   1.000  H
  H15      1.0000 0.00300  0.22100  0.77700  Biso   1.000  H
  H16      1.0000 0.99700  0.77900  0.22300  Biso   1.000  H
  H17      1.0000 0.98400  0.96900  0.77700  Biso   1.000  H
  H18      1.0000 0.01600  0.03100  0.22300  Biso   1.000  H
  H19      1.0000 0.10600  0.84300  0.62900  Biso   1.000  H
  H20      1.0000 0.89400  0.15700  0.37100  Biso   1.000  H
