data_image0
_cell_length_a       12.3183
_cell_length_b       10.4748
_cell_length_c       9.1013
_cell_angle_alpha    90
_cell_angle_beta     116.854
_cell_angle_gamma    90

_symmetry_space_group_name_H-M    "P 1"
_symmetry_int_tables_number       1

loop_
  _symmetry_equiv_pos_as_xyz
  'x, y, z'

loop_
  _atom_site_label
  _atom_site_occupancy
  _atom_site_fract_x
  _atom_site_fract_y
  _atom_site_fract_z
  _atom_site_thermal_displace_type
  _atom_site_B_iso_or_equiv
  _atom_site_type_symbol
  Cu1      1.0000 0.38713  0.58943  0.07197  Biso   1.000  Cu
  Cu2      1.0000 0.88713  0.08943  0.07197  Biso   1.000  Cu
  Cu3      1.0000 0.61287  0.58943  0.42803  Biso   1.000  Cu
  Cu4      1.0000 0.11287  0.08943  0.42803  Biso   1.000  Cu
  Cu5      1.0000 0.61287  0.41057  0.92803  Biso   1.000  Cu
  Cu6      1.0000 0.11287  0.91057  0.92803  Biso   1.000  Cu
  Cu7      1.0000 0.38713  0.41057  0.57197  Biso   1.000  Cu
  Cu8      1.0000 0.88713  0.91057  0.57197  Biso   1.000  Cu
  N1       1.0000 0.35612  0.51838  0.24700  Biso   1.000  N
  N2       1.0000 0.85612  0.01838  0.24700  Biso   1.000  N
  N3       1.0000 0.64388  0.51838  0.25300  Biso   1.000  N
  N4       1.0000 0.14388  0.01838  0.25300  Biso   1.000  N
  N5       1.0000 0.64388  0.48162  0.75300  Biso   1.000  N
  N6       1.0000 0.14388  0.98162  0.75300  Biso   1.000  N
  N7       1.0000 0.35612  0.48162  0.74700  Biso   1.000  N
  N8       1.0000 0.85612  0.98162  0.74700  Biso   1.000  N
  C1       1.0000 0.35862  0.47395  0.36450  Biso   1.000  C
  C2       1.0000 0.85862  0.97395  0.36450  Biso   1.000  C
  C3       1.0000 0.64138  0.47395  0.13550  Biso   1.000  C
  C4       1.0000 0.14138  0.97395  0.13550  Biso   1.000  C
  C5       1.0000 0.64138  0.52605  0.63550  Biso   1.000  C
  C6       1.0000 0.14138  0.02605  0.63550  Biso   1.000  C
  C7       1.0000 0.35862  0.52605  0.86450  Biso   1.000  C
  C8       1.0000 0.85862  0.02605  0.86450  Biso   1.000  C
  N9       1.0000 0.45518  0.76454  0.16880  Biso   1.000  N
  N10      1.0000 0.95518  0.26454  0.16880  Biso   1.000  N
  N11      1.0000 0.54482  0.76454  0.33120  Biso   1.000  N
  N12      1.0000 0.04482  0.26454  0.33120  Biso   1.000  N
  N13      1.0000 0.54482  0.23546  0.83120  Biso   1.000  N
  N14      1.0000 0.04482  0.73546  0.83120  Biso   1.000  N
  N15      1.0000 0.45518  0.23546  0.66880  Biso   1.000  N
  N16      1.0000 0.95518  0.73546  0.66880  Biso   1.000  N
  C9       1.0000 0.41366  0.87350  0.09410  Biso   1.000  C
  C10      1.0000 0.91366  0.37350  0.09410  Biso   1.000  C
  C11      1.0000 0.58634  0.87350  0.40590  Biso   1.000  C
  C12      1.0000 0.08634  0.37350  0.40590  Biso   1.000  C
  C13      1.0000 0.58634  0.12650  0.90590  Biso   1.000  C
  C14      1.0000 0.08634  0.62650  0.90590  Biso   1.000  C
  C15      1.0000 0.41366  0.12650  0.59410  Biso   1.000  C
  C16      1.0000 0.91366  0.62650  0.59410  Biso   1.000  C
  H1       1.0000 0.35270  0.87130  0.98280  Biso   1.000  H
  H2       1.0000 0.85270  0.37130  0.98280  Biso   1.000  H
  H3       1.0000 0.64730  0.87130  0.51720  Biso   1.000  H
  H4       1.0000 0.14730  0.37130  0.51720  Biso   1.000  H
  H5       1.0000 0.64730  0.12870  0.01720  Biso   1.000  H
  H6       1.0000 0.14730  0.62870  0.01720  Biso   1.000  H
  H7       1.0000 0.35270  0.12870  0.48280  Biso   1.000  H
  H8       1.0000 0.85270  0.62870  0.48280  Biso   1.000  H
  C17      1.0000 0.45391  0.99511  0.16870  Biso   1.000  C
  C18      1.0000 0.95391  0.49511  0.16870  Biso   1.000  C
  C19      1.0000 0.54609  0.99511  0.33130  Biso   1.000  C
  C20      1.0000 0.04609  0.49511  0.33130  Biso   1.000  C
  C21      1.0000 0.54609  0.00489  0.83130  Biso   1.000  C
  C22      1.0000 0.04609  0.50489  0.83130  Biso   1.000  C
  C23      1.0000 0.45391  0.00489  0.66870  Biso   1.000  C
  C24      1.0000 0.95391  0.50489  0.66870  Biso   1.000  C
  C25      1.0000 0.40684  0.11200  0.08620  Biso   1.000  C
  C26      1.0000 0.90684  0.61200  0.08620  Biso   1.000  C
  C27      1.0000 0.59316  0.11200  0.41380  Biso   1.000  C
  C28      1.0000 0.09316  0.61200  0.41380  Biso   1.000  C
  C29      1.0000 0.59316  0.88800  0.91380  Biso   1.000  C
  C30      1.0000 0.09316  0.38800  0.91380  Biso   1.000  C
  C31      1.0000 0.40684  0.88800  0.58620  Biso   1.000  C
  C32      1.0000 0.90684  0.38800  0.58620  Biso   1.000  C
  H9       1.0000 0.34430  0.11270  0.97590  Biso   1.000  H
  H10      1.0000 0.84430  0.61270  0.97590  Biso   1.000  H
  H11      1.0000 0.65570  0.11270  0.52410  Biso   1.000  H
  H12      1.0000 0.15570  0.61270  0.52410  Biso   1.000  H
  H13      1.0000 0.65570  0.88730  0.02410  Biso   1.000  H
  H14      1.0000 0.15570  0.38730  0.02410  Biso   1.000  H
  H15      1.0000 0.34430  0.88730  0.47590  Biso   1.000  H
  H16      1.0000 0.84430  0.38730  0.47590  Biso   1.000  H
  C33      1.0000 0.45334  0.22413  0.16860  Biso   1.000  C
  C34      1.0000 0.95334  0.72413  0.16860  Biso   1.000  C
  C35      1.0000 0.54666  0.22413  0.33140  Biso   1.000  C
  C36      1.0000 0.04666  0.72413  0.33140  Biso   1.000  C
  C37      1.0000 0.54666  0.77587  0.83140  Biso   1.000  C
  C38      1.0000 0.04666  0.27587  0.83140  Biso   1.000  C
  C39      1.0000 0.45334  0.77587  0.66860  Biso   1.000  C
  C40      1.0000 0.95334  0.27587  0.66860  Biso   1.000  C
  H17      1.0000 0.42200  0.30310  0.11470  Biso   1.000  H
  H18      1.0000 0.92200  0.80310  0.11470  Biso   1.000  H
  H19      1.0000 0.57800  0.30310  0.38530  Biso   1.000  H
  H20      1.0000 0.07800  0.80310  0.38530  Biso   1.000  H
  H21      1.0000 0.57800  0.69690  0.88530  Biso   1.000  H
  H22      1.0000 0.07800  0.19690  0.88530  Biso   1.000  H
  H23      1.0000 0.42200  0.69690  0.61470  Biso   1.000  H
  H24      1.0000 0.92200  0.19690  0.61470  Biso   1.000  H
