data_image0
_cell_length_a       6.928
_cell_length_b       14.6097
_cell_length_c       8.0592
_cell_angle_alpha    90
_cell_angle_beta     109.201
_cell_angle_gamma    90

_symmetry_space_group_name_H-M    "P 1"
_symmetry_int_tables_number       1

loop_
  _symmetry_equiv_pos_as_xyz
  'x, y, z'

loop_
  _atom_site_label
  _atom_site_occupancy
  _atom_site_fract_x
  _atom_site_fract_y
  _atom_site_fract_z
  _atom_site_thermal_displace_type
  _atom_site_B_iso_or_equiv
  _atom_site_type_symbol
  Cu1      1.0000 0.12570  0.06757  0.07807  Biso   1.000  Cu
  Cu2      1.0000 0.62570  0.56757  0.07807  Biso   1.000  Cu
  Cu3      1.0000 0.87430  0.06757  0.42193  Biso   1.000  Cu
  Cu4      1.0000 0.37430  0.56757  0.42193  Biso   1.000  Cu
  Cu5      1.0000 0.87430  0.93243  0.92193  Biso   1.000  Cu
  Cu6      1.0000 0.37430  0.43243  0.92193  Biso   1.000  Cu
  Cu7      1.0000 0.12570  0.93243  0.57807  Biso   1.000  Cu
  Cu8      1.0000 0.62570  0.43243  0.57807  Biso   1.000  Cu
  N1       1.0000 0.01770  0.05471  0.82540  Biso   1.000  N
  N2       1.0000 0.51770  0.55471  0.82540  Biso   1.000  N
  N3       1.0000 0.98230  0.05471  0.67460  Biso   1.000  N
  N4       1.0000 0.48230  0.55471  0.67460  Biso   1.000  N
  N5       1.0000 0.98230  0.94529  0.17460  Biso   1.000  N
  N6       1.0000 0.48230  0.44529  0.17460  Biso   1.000  N
  N7       1.0000 0.01770  0.94529  0.32540  Biso   1.000  N
  N8       1.0000 0.51770  0.44529  0.32540  Biso   1.000  N
  N9       1.0000 0.41250  0.07100  0.21100  Biso   1.000  N
  N10      1.0000 0.91250  0.57100  0.21100  Biso   1.000  N
  N11      1.0000 0.58750  0.07100  0.28900  Biso   1.000  N
  N12      1.0000 0.08750  0.57100  0.28900  Biso   1.000  N
  N13      1.0000 0.58750  0.92900  0.78900  Biso   1.000  N
  N14      1.0000 0.08750  0.42900  0.78900  Biso   1.000  N
  N15      1.0000 0.41250  0.92900  0.71100  Biso   1.000  N
  N16      1.0000 0.91250  0.42900  0.71100  Biso   1.000  N
  N17      1.0000 0.00920  0.18090  0.16910  Biso   1.000  N
  N18      1.0000 0.50920  0.68090  0.16910  Biso   1.000  N
  N19      1.0000 0.99080  0.18090  0.33090  Biso   1.000  N
  N20      1.0000 0.49080  0.68090  0.33090  Biso   1.000  N
  N21      1.0000 0.99080  0.81910  0.83090  Biso   1.000  N
  N22      1.0000 0.49080  0.31910  0.83090  Biso   1.000  N
  N23      1.0000 0.00920  0.81910  0.66910  Biso   1.000  N
  N24      1.0000 0.50920  0.31910  0.66910  Biso   1.000  N
  C1       1.0000 0.01350  0.26055  0.09000  Biso   1.000  C
  C2       1.0000 0.51350  0.76055  0.09000  Biso   1.000  C
  C3       1.0000 0.98650  0.26055  0.41000  Biso   1.000  C
  C4       1.0000 0.48650  0.76055  0.41000  Biso   1.000  C
  C5       1.0000 0.98650  0.73945  0.91000  Biso   1.000  C
  C6       1.0000 0.48650  0.23945  0.91000  Biso   1.000  C
  C7       1.0000 0.01350  0.73945  0.59000  Biso   1.000  C
  C8       1.0000 0.51350  0.23945  0.59000  Biso   1.000  C
  C9       1.0000 0.00550  0.34528  0.16650  Biso   1.000  C
  C10      1.0000 0.50550  0.84528  0.16650  Biso   1.000  C
  C11      1.0000 0.99450  0.34528  0.33350  Biso   1.000  C
  C12      1.0000 0.49450  0.84528  0.33350  Biso   1.000  C
  C13      1.0000 0.99450  0.65472  0.83350  Biso   1.000  C
  C14      1.0000 0.49450  0.15472  0.83350  Biso   1.000  C
  C15      1.0000 0.00550  0.65472  0.66650  Biso   1.000  C
  C16      1.0000 0.50550  0.15472  0.66650  Biso   1.000  C
  H1       1.0000 0.01800  0.25720  0.97600  Biso   1.000  H
  H2       1.0000 0.51800  0.75720  0.97600  Biso   1.000  H
  H3       1.0000 0.98200  0.25720  0.52400  Biso   1.000  H
  H4       1.0000 0.48200  0.75720  0.52400  Biso   1.000  H
  H5       1.0000 0.98200  0.74280  0.02400  Biso   1.000  H
  H6       1.0000 0.48200  0.24280  0.02400  Biso   1.000  H
  H7       1.0000 0.01800  0.74280  0.47600  Biso   1.000  H
  H8       1.0000 0.51800  0.24280  0.47600  Biso   1.000  H
  H9       1.0000 0.00500  0.39900  0.10700  Biso   1.000  H
  H10      1.0000 0.50500  0.89900  0.10700  Biso   1.000  H
  H11      1.0000 0.99500  0.39900  0.39300  Biso   1.000  H
  H12      1.0000 0.49500  0.89900  0.39300  Biso   1.000  H
  H13      1.0000 0.99500  0.60100  0.89300  Biso   1.000  H
  H14      1.0000 0.49500  0.10100  0.89300  Biso   1.000  H
  H15      1.0000 0.00500  0.60100  0.60700  Biso   1.000  H
  H16      1.0000 0.50500  0.10100  0.60700  Biso   1.000  H
