data_image0
_cell_length_a       6.9992
_cell_length_b       14.9522
_cell_length_c       8.0418
_cell_angle_alpha    90
_cell_angle_beta     91.873
_cell_angle_gamma    90

_symmetry_space_group_name_H-M    "P 1"
_symmetry_int_tables_number       1

loop_
  _symmetry_equiv_pos_as_xyz
  'x, y, z'

loop_
  _atom_site_label
  _atom_site_occupancy
  _atom_site_fract_x
  _atom_site_fract_y
  _atom_site_fract_z
  _atom_site_thermal_displace_type
  _atom_site_B_iso_or_equiv
  _atom_site_type_symbol
  Cu1      1.0000 0.96191  0.55914  0.09815  Biso   1.000  Cu
  Cu2      1.0000 0.03809  0.05914  0.40185  Biso   1.000  Cu
  Cu3      1.0000 0.03809  0.44086  0.90185  Biso   1.000  Cu
  Cu4      1.0000 0.96191  0.94086  0.59815  Biso   1.000  Cu
  Cu5      1.0000 0.47027  0.43463  0.41422  Biso   1.000  Cu
  Cu6      1.0000 0.52973  0.93463  0.08578  Biso   1.000  Cu
  Cu7      1.0000 0.52973  0.56537  0.58578  Biso   1.000  Cu
  Cu8      1.0000 0.47027  0.06537  0.91422  Biso   1.000  Cu
  N1       1.0000 0.28760  0.43501  0.22480  Biso   1.000  N
  N2       1.0000 0.71240  0.93501  0.27520  Biso   1.000  N
  N3       1.0000 0.71240  0.56499  0.77520  Biso   1.000  N
  N4       1.0000 0.28760  0.06499  0.72480  Biso   1.000  N
  N5       1.0000 0.78200  0.55720  0.27750  Biso   1.000  N
  N6       1.0000 0.21800  0.05720  0.22250  Biso   1.000  N
  N7       1.0000 0.21800  0.44280  0.72250  Biso   1.000  N
  N8       1.0000 0.78200  0.94280  0.77750  Biso   1.000  N
  N9       1.0000 0.35840  0.82407  0.08470  Biso   1.000  N
  N10      1.0000 0.64160  0.32407  0.41530  Biso   1.000  N
  N11      1.0000 0.64160  0.17593  0.91530  Biso   1.000  N
  N12      1.0000 0.35840  0.67593  0.58470  Biso   1.000  N
  N13      1.0000 0.13790  0.66863  0.10730  Biso   1.000  N
  N14      1.0000 0.86210  0.16863  0.39270  Biso   1.000  N
  N15      1.0000 0.86210  0.33137  0.89270  Biso   1.000  N
  N16      1.0000 0.13790  0.83137  0.60730  Biso   1.000  N
  N17      1.0000 0.60410  0.74011  0.97860  Biso   1.000  N
  N18      1.0000 0.39590  0.24011  0.52140  Biso   1.000  N
  N19      1.0000 0.39590  0.25989  0.02140  Biso   1.000  N
  N20      1.0000 0.60410  0.75989  0.47860  Biso   1.000  N
  H1       1.0000 0.67280  0.78920  0.97120  Biso   1.000  H
  H2       1.0000 0.32720  0.28920  0.52880  Biso   1.000  H
  H3       1.0000 0.32720  0.21080  0.02880  Biso   1.000  H
  H4       1.0000 0.67280  0.71080  0.47120  Biso   1.000  H
  H5       1.0000 0.65140  0.68850  0.94730  Biso   1.000  H
  H6       1.0000 0.34860  0.18850  0.55270  Biso   1.000  H
  H7       1.0000 0.34860  0.31150  0.05270  Biso   1.000  H
  H8       1.0000 0.65140  0.81150  0.44730  Biso   1.000  H
  C1       1.0000 0.16980  0.45228  0.12570  Biso   1.000  C
  C2       1.0000 0.83020  0.95228  0.37430  Biso   1.000  C
  C3       1.0000 0.83020  0.54772  0.87430  Biso   1.000  C
  C4       1.0000 0.16980  0.04772  0.62570  Biso   1.000  C
  C5       1.0000 0.66800  0.54404  0.37480  Biso   1.000  C
  C6       1.0000 0.33200  0.04404  0.12520  Biso   1.000  C
  C7       1.0000 0.33200  0.45596  0.62520  Biso   1.000  C
  C8       1.0000 0.66800  0.95596  0.87480  Biso   1.000  C
  C9       1.0000 0.42580  0.74407  0.03810  Biso   1.000  C
  C10      1.0000 0.57420  0.24407  0.46190  Biso   1.000  C
  C11      1.0000 0.57420  0.25593  0.96190  Biso   1.000  C
  C12      1.0000 0.42580  0.75593  0.53810  Biso   1.000  C
  C13      1.0000 0.31330  0.66644  0.05150  Biso   1.000  C
  C14      1.0000 0.68670  0.16644  0.44850  Biso   1.000  C
  C15      1.0000 0.68670  0.33356  0.94850  Biso   1.000  C
  C16      1.0000 0.31330  0.83356  0.55150  Biso   1.000  C
  H9       1.0000 0.36530  0.61060  0.01930  Biso   1.000  H
  H10      1.0000 0.63470  0.11060  0.48070  Biso   1.000  H
  H11      1.0000 0.63470  0.38940  0.98070  Biso   1.000  H
  H12      1.0000 0.36530  0.88940  0.51930  Biso   1.000  H
  C17      1.0000 0.06930  0.74949  0.15190  Biso   1.000  C
  C18      1.0000 0.93070  0.24949  0.34810  Biso   1.000  C
  C19      1.0000 0.93070  0.25051  0.84810  Biso   1.000  C
  C20      1.0000 0.06930  0.75051  0.65190  Biso   1.000  C
  H13      1.0000 0.94350  0.75370  0.19220  Biso   1.000  H
  H14      1.0000 0.05650  0.25370  0.30780  Biso   1.000  H
  H15      1.0000 0.05650  0.24630  0.80780  Biso   1.000  H
  H16      1.0000 0.94350  0.74630  0.69220  Biso   1.000  H
  C21      1.0000 0.17810  0.82575  0.14010  Biso   1.000  C
  C22      1.0000 0.82190  0.32575  0.35990  Biso   1.000  C
  C23      1.0000 0.82190  0.17425  0.85990  Biso   1.000  C
  C24      1.0000 0.17810  0.67425  0.64010  Biso   1.000  C
  H17      1.0000 0.12480  0.88140  0.17190  Biso   1.000  H
  H18      1.0000 0.87520  0.38140  0.32810  Biso   1.000  H
  H19      1.0000 0.87520  0.11860  0.82810  Biso   1.000  H
  H20      1.0000 0.12480  0.61860  0.67190  Biso   1.000  H
