data_image0
_cell_length_a       3.6804
_cell_length_b       16.4431
_cell_length_c       16.9043
_cell_angle_alpha    90
_cell_angle_beta     90.707
_cell_angle_gamma    90

_symmetry_space_group_name_H-M    "P 1"
_symmetry_int_tables_number       1

loop_
  _symmetry_equiv_pos_as_xyz
  'x, y, z'

loop_
  _atom_site_label
  _atom_site_occupancy
  _atom_site_fract_x
  _atom_site_fract_y
  _atom_site_fract_z
  _atom_site_thermal_displace_type
  _atom_site_B_iso_or_equiv
  _atom_site_type_symbol
  Cu1      1.0000 0.28668  0.21866  0.02547  Biso   1.000  Cu
  Cu2      1.0000 0.71332  0.71866  0.47453  Biso   1.000  Cu
  Cu3      1.0000 0.71332  0.78134  0.97453  Biso   1.000  Cu
  Cu4      1.0000 0.28668  0.28134  0.52547  Biso   1.000  Cu
  Cu5      1.0000 0.82776  0.50187  0.05769  Biso   1.000  Cu
  Cu6      1.0000 0.17224  0.00187  0.44231  Biso   1.000  Cu
  Cu7      1.0000 0.17224  0.49813  0.94231  Biso   1.000  Cu
  Cu8      1.0000 0.82776  0.99813  0.55769  Biso   1.000  Cu
  Cu9      1.0000 0.99949  0.99478  0.21200  Biso   1.000  Cu
  Cu10     1.0000 0.00051  0.49478  0.28800  Biso   1.000  Cu
  Cu11     1.0000 0.00051  0.00522  0.78800  Biso   1.000  Cu
  Cu12     1.0000 0.99949  0.50522  0.71200  Biso   1.000  Cu
  C1       1.0000 0.18970  0.13810  0.10130  Biso   1.000  C
  C2       1.0000 0.81030  0.63810  0.39870  Biso   1.000  C
  C3       1.0000 0.81030  0.86190  0.89870  Biso   1.000  C
  C4       1.0000 0.18970  0.36190  0.60130  Biso   1.000  C
  N1       1.0000 0.12050  0.08550  0.14400  Biso   1.000  N
  N2       1.0000 0.87950  0.58550  0.35600  Biso   1.000  N
  N3       1.0000 0.87950  0.91450  0.85600  Biso   1.000  N
  N4       1.0000 0.12050  0.41450  0.64400  Biso   1.000  N
  N5       1.0000 0.51180  0.50730  0.14490  Biso   1.000  N
  N6       1.0000 0.48820  0.00730  0.35510  Biso   1.000  N
  N7       1.0000 0.48820  0.49270  0.85510  Biso   1.000  N
  N8       1.0000 0.51180  0.99270  0.64490  Biso   1.000  N
  C5       1.0000 0.32920  0.50460  0.20070  Biso   1.000  C
  C6       1.0000 0.67080  0.00460  0.29930  Biso   1.000  C
  C7       1.0000 0.67080  0.49540  0.79930  Biso   1.000  C
  C8       1.0000 0.32920  0.99540  0.70070  Biso   1.000  C
  N9       1.0000 0.13740  0.33160  0.02080  Biso   1.000  N
  N10      1.0000 0.86260  0.83160  0.47920  Biso   1.000  N
  N11      1.0000 0.86260  0.66840  0.97920  Biso   1.000  N
  N12      1.0000 0.13740  0.16840  0.52080  Biso   1.000  N
  C9       1.0000 0.06450  0.39870  0.01360  Biso   1.000  C
  C10      1.0000 0.93550  0.89870  0.48640  Biso   1.000  C
  C11      1.0000 0.93550  0.60130  0.98640  Biso   1.000  C
  C12      1.0000 0.06450  0.10130  0.51360  Biso   1.000  C
  N13      1.0000 0.55510  0.20440  0.92190  Biso   1.000  N
  N14      1.0000 0.44490  0.70440  0.57810  Biso   1.000  N
  N15      1.0000 0.44490  0.79560  0.07810  Biso   1.000  N
  N16      1.0000 0.55510  0.29560  0.42190  Biso   1.000  N
  N17      1.0000 0.82760  0.11970  0.82280  Biso   1.000  N
  N18      1.0000 0.17240  0.61970  0.67720  Biso   1.000  N
  N19      1.0000 0.17240  0.88030  0.17720  Biso   1.000  N
  N20      1.0000 0.82760  0.38030  0.32280  Biso   1.000  N
  N21      1.0000 0.66180  0.06890  0.94400  Biso   1.000  N
  N22      1.0000 0.33820  0.56890  0.55600  Biso   1.000  N
  N23      1.0000 0.33820  0.93110  0.05600  Biso   1.000  N
  N24      1.0000 0.66180  0.43110  0.44400  Biso   1.000  N
  H1       1.0000 0.56860  0.07480  0.99130  Biso   1.000  H
  H2       1.0000 0.43140  0.57480  0.50870  Biso   1.000  H
  H3       1.0000 0.43140  0.92520  0.00870  Biso   1.000  H
  H4       1.0000 0.56860  0.42520  0.49130  Biso   1.000  H
  H5       1.0000 0.74190  0.02110  0.92870  Biso   1.000  H
  H6       1.0000 0.25810  0.52110  0.57130  Biso   1.000  H
  H7       1.0000 0.25810  0.97890  0.07130  Biso   1.000  H
  H8       1.0000 0.74190  0.47890  0.42870  Biso   1.000  H
  N25      1.0000 0.98260  0.17420  0.70160  Biso   1.000  N
  N26      1.0000 0.01740  0.67420  0.79840  Biso   1.000  N
  N27      1.0000 0.01740  0.82580  0.29840  Biso   1.000  N
  N28      1.0000 0.98260  0.32580  0.20160  Biso   1.000  N
  H9       1.0000 0.05740  0.12570  0.68710  Biso   1.000  H
  H10      1.0000 0.94260  0.62570  0.81290  Biso   1.000  H
  H11      1.0000 0.94260  0.87430  0.31290  Biso   1.000  H
  H12      1.0000 0.05740  0.37430  0.18710  Biso   1.000  H
  H13      1.0000 0.99770  0.21550  0.66860  Biso   1.000  H
  H14      1.0000 0.00230  0.71550  0.83140  Biso   1.000  H
  H15      1.0000 0.00230  0.78450  0.33140  Biso   1.000  H
  H16      1.0000 0.99770  0.28450  0.16860  Biso   1.000  H
  C13      1.0000 0.68190  0.13320  0.89500  Biso   1.000  C
  C14      1.0000 0.31810  0.63320  0.60500  Biso   1.000  C
  C15      1.0000 0.31810  0.86680  0.10500  Biso   1.000  C
  C16      1.0000 0.68190  0.36680  0.39500  Biso   1.000  C
  C17      1.0000 0.84620  0.18520  0.77360  Biso   1.000  C
  C18      1.0000 0.15380  0.68520  0.72640  Biso   1.000  C
  C19      1.0000 0.15380  0.81480  0.22640  Biso   1.000  C
  C20      1.0000 0.84620  0.31480  0.27360  Biso   1.000  C
  C21      1.0000 0.72760  0.26280  0.79830  Biso   1.000  C
  C22      1.0000 0.27240  0.76280  0.70170  Biso   1.000  C
  C23      1.0000 0.27240  0.73720  0.20170  Biso   1.000  C
  C24      1.0000 0.72760  0.23720  0.29830  Biso   1.000  C
  H17      1.0000 0.74630  0.30890  0.76470  Biso   1.000  H
  H18      1.0000 0.25370  0.80890  0.73530  Biso   1.000  H
  H19      1.0000 0.25370  0.69110  0.23530  Biso   1.000  H
  H20      1.0000 0.74630  0.19110  0.26470  Biso   1.000  H
  C25      1.0000 0.58750  0.26890  0.87100  Biso   1.000  C
  C26      1.0000 0.41250  0.76890  0.62900  Biso   1.000  C
  C27      1.0000 0.41250  0.73110  0.12900  Biso   1.000  C
  C28      1.0000 0.58750  0.23110  0.37100  Biso   1.000  C
  H21      1.0000 0.50630  0.32080  0.88820  Biso   1.000  H
  H22      1.0000 0.49370  0.82080  0.61180  Biso   1.000  H
  H23      1.0000 0.49370  0.67920  0.11180  Biso   1.000  H
  H24      1.0000 0.50630  0.17920  0.38820  Biso   1.000  H
