data_image0
_cell_length_a       9.0092
_cell_length_b       9.2401
_cell_length_c       10.0496
_cell_angle_alpha    106.253
_cell_angle_beta     115.356
_cell_angle_gamma    97.651

_symmetry_space_group_name_H-M    "P 1"
_symmetry_int_tables_number       1

loop_
  _symmetry_equiv_pos_as_xyz
  'x, y, z'

loop_
  _atom_site_label
  _atom_site_occupancy
  _atom_site_fract_x
  _atom_site_fract_y
  _atom_site_fract_z
  _atom_site_thermal_displace_type
  _atom_site_B_iso_or_equiv
  _atom_site_type_symbol
  Cu1      1.0000 0.19371  0.53642  0.27868  Biso   1.000  Cu
  Cu2      1.0000 0.80629  0.46358  0.72132  Biso   1.000  Cu
  Cu3      1.0000 0.36473  0.60891  0.14894  Biso   1.000  Cu
  Cu4      1.0000 0.63527  0.39109  0.85106  Biso   1.000  Cu
  Cu5      1.0000 0.54626  0.12457  0.13582  Biso   1.000  Cu
  Cu6      1.0000 0.45374  0.87543  0.86418  Biso   1.000  Cu
  Cu7      1.0000 0.71451  0.84789  0.77798  Biso   1.000  Cu
  Cu8      1.0000 0.28549  0.15211  0.22202  Biso   1.000  Cu
  N1       1.0000 0.04710  0.50850  0.06440  Biso   1.000  N
  N2       1.0000 0.95290  0.49150  0.93560  Biso   1.000  N
  C1       1.0000 0.42460  0.42010  0.12720  Biso   1.000  C
  C2       1.0000 0.57540  0.57990  0.87280  Biso   1.000  C
  N3       1.0000 0.46580  0.30680  0.12560  Biso   1.000  N
  N4       1.0000 0.53420  0.69320  0.87440  Biso   1.000  N
  N5       1.0000 0.39830  0.80630  0.13380  Biso   1.000  N
  N6       1.0000 0.60170  0.19370  0.86620  Biso   1.000  N
  C3       1.0000 0.44390  0.92320  0.12190  Biso   1.000  C
  C4       1.0000 0.55610  0.07680  0.87810  Biso   1.000  C
  N7       1.0000 0.53750  0.73610  0.57020  Biso   1.000  N
  N8       1.0000 0.46250  0.26390  0.42980  Biso   1.000  N
  C5       1.0000 0.41370  0.66180  0.45090  Biso   1.000  C
  C6       1.0000 0.58630  0.33820  0.54910  Biso   1.000  C
  N9       1.0000 0.06790  0.03720  0.05080  Biso   1.000  N
  N10      1.0000 0.93210  0.96280  0.94920  Biso   1.000  N
  N11      1.0000 0.81570  0.21860  0.29120  Biso   1.000  N
  N12      1.0000 0.18430  0.78140  0.70880  Biso   1.000  N
  N13      1.0000 0.07390  0.39830  0.35210  Biso   1.000  N
  N14      1.0000 0.92610  0.60170  0.64790  Biso   1.000  N
  C7       1.0000 0.90500  0.31220  0.25710  Biso   1.000  C
  C8       1.0000 0.09500  0.68780  0.74290  Biso   1.000  C
  H1       1.0000 0.84640  0.32090  0.15670  Biso   1.000  H
  H2       1.0000 0.15360  0.67910  0.84330  Biso   1.000  H
  C9       1.0000 0.15570  0.38860  0.49250  Biso   1.000  C
  C10      1.0000 0.84430  0.61140  0.50750  Biso   1.000  C
  H3       1.0000 0.27290  0.44800  0.56140  Biso   1.000  H
  H4       1.0000 0.72710  0.55200  0.43860  Biso   1.000  H
  C11      1.0000 0.07460  0.29290  0.54340  Biso   1.000  C
  C12      1.0000 0.92540  0.70710  0.45660  Biso   1.000  C
  C13      1.0000 0.16000  0.28220  0.69550  Biso   1.000  C
  C14      1.0000 0.84000  0.71780  0.30450  Biso   1.000  C
  H5       1.0000 0.27680  0.34120  0.76750  Biso   1.000  H
  H6       1.0000 0.72320  0.65880  0.23250  Biso   1.000  H
  C15      1.0000 0.07310  0.18690  0.73720  Biso   1.000  C
  C16      1.0000 0.92690  0.81310  0.26280  Biso   1.000  C
  H7       1.0000 0.12960  0.17900  0.83810  Biso   1.000  H
  H8       1.0000 0.87040  0.82100  0.16190  Biso   1.000  H
  C17      1.0000 0.89980  0.10050  0.63050  Biso   1.000  C
  C18      1.0000 0.10020  0.89950  0.36950  Biso   1.000  C
  H9       1.0000 0.84080  0.03540  0.66140  Biso   1.000  H
  H10      1.0000 0.15920  0.96460  0.33860  Biso   1.000  H
  C19      1.0000 0.81310  0.10750  0.48250  Biso   1.000  C
  C20      1.0000 0.18690  0.89250  0.51750  Biso   1.000  C
  H11      1.0000 0.69640  0.04730  0.41220  Biso   1.000  H
  H12      1.0000 0.30360  0.95270  0.58780  Biso   1.000  H
  C21      1.0000 0.90000  0.20520  0.43700  Biso   1.000  C
  C22      1.0000 0.10000  0.79480  0.56300  Biso   1.000  C
