data_image0
_cell_length_a       10.6409
_cell_length_b       10.804
_cell_length_c       12.5718
_cell_angle_alpha    90
_cell_angle_beta     108.429
_cell_angle_gamma    90

_symmetry_space_group_name_H-M    "P 1"
_symmetry_int_tables_number       1

loop_
  _symmetry_equiv_pos_as_xyz
  'x, y, z'

loop_
  _atom_site_label
  _atom_site_occupancy
  _atom_site_fract_x
  _atom_site_fract_y
  _atom_site_fract_z
  _atom_site_thermal_displace_type
  _atom_site_B_iso_or_equiv
  _atom_site_type_symbol
  Cu1      1.0000 0.11659  0.65664  0.64144  Biso   1.000  Cu
  Cu2      1.0000 0.38341  0.15664  0.85856  Biso   1.000  Cu
  Cu3      1.0000 0.88341  0.34336  0.35856  Biso   1.000  Cu
  Cu4      1.0000 0.61659  0.84336  0.14144  Biso   1.000  Cu
  Cu5      1.0000 0.08391  0.47095  0.20664  Biso   1.000  Cu
  Cu6      1.0000 0.41609  0.97095  0.29336  Biso   1.000  Cu
  Cu7      1.0000 0.91609  0.52905  0.79336  Biso   1.000  Cu
  Cu8      1.0000 0.58391  0.02905  0.70664  Biso   1.000  Cu
  Cu9      1.0000 0.39021  0.73246  0.40202  Biso   1.000  Cu
  Cu10     1.0000 0.10979  0.23246  0.09798  Biso   1.000  Cu
  Cu11     1.0000 0.60979  0.26754  0.59798  Biso   1.000  Cu
  Cu12     1.0000 0.89021  0.76754  0.90202  Biso   1.000  Cu
  Cu13     1.0000 0.50000  0.50000  0.50000  Biso   1.000  Cu
  Cu14     1.0000 0.00000  0.00000  0.00000  Biso   1.000  Cu
  N1       1.0000 0.28330  0.71850  0.49170  Biso   1.000  N
  N2       1.0000 0.21670  0.21850  0.00830  Biso   1.000  N
  N3       1.0000 0.71670  0.28150  0.50830  Biso   1.000  N
  N4       1.0000 0.78330  0.78150  0.99170  Biso   1.000  N
  C1       1.0000 0.21660  0.69720  0.54660  Biso   1.000  C
  C2       1.0000 0.28340  0.19720  0.95340  Biso   1.000  C
  C3       1.0000 0.78340  0.30280  0.45340  Biso   1.000  C
  C4       1.0000 0.71660  0.80280  0.04660  Biso   1.000  C
  N5       1.0000 0.48960  0.73670  0.30540  Biso   1.000  N
  N6       1.0000 0.01040  0.23670  0.19460  Biso   1.000  N
  N7       1.0000 0.51040  0.26330  0.69460  Biso   1.000  N
  N8       1.0000 0.98960  0.76330  0.80540  Biso   1.000  N
  C5       1.0000 0.54150  0.76680  0.24130  Biso   1.000  C
  C6       1.0000 0.95850  0.26680  0.25870  Biso   1.000  C
  C7       1.0000 0.45850  0.23320  0.75870  Biso   1.000  C
  C8       1.0000 0.04150  0.73320  0.74130  Biso   1.000  C
  N9       1.0000 0.35400  0.44790  0.38560  Biso   1.000  N
  N10      1.0000 0.14600  0.94790  0.11440  Biso   1.000  N
  N11      1.0000 0.64600  0.55210  0.61440  Biso   1.000  N
  N12      1.0000 0.85400  0.05210  0.88560  Biso   1.000  N
  C9       1.0000 0.25260  0.44260  0.31560  Biso   1.000  C
  C10      1.0000 0.24740  0.94260  0.18440  Biso   1.000  C
  C11      1.0000 0.74740  0.55740  0.68440  Biso   1.000  C
  C12      1.0000 0.75260  0.05740  0.81560  Biso   1.000  C
  N13      1.0000 0.48010  0.99360  0.45172  Biso   1.000  N
  N14      1.0000 0.01990  0.49360  0.04828  Biso   1.000  N
  N15      1.0000 0.51990  0.00640  0.54828  Biso   1.000  N
  N16      1.0000 0.98010  0.50640  0.95172  Biso   1.000  N
  N17      1.0000 0.97450  0.57985  0.28435  Biso   1.000  N
  N18      1.0000 0.52550  0.07985  0.21565  Biso   1.000  N
  N19      1.0000 0.02550  0.42015  0.71565  Biso   1.000  N
  N20      1.0000 0.47450  0.92015  0.78435  Biso   1.000  N
  N21      1.0000 0.91570  0.53087  0.35876  Biso   1.000  N
  N22      1.0000 0.58430  0.03087  0.14124  Biso   1.000  N
  N23      1.0000 0.08430  0.46913  0.64124  Biso   1.000  N
  N24      1.0000 0.41570  0.96913  0.85876  Biso   1.000  N
  C13      1.0000 0.86600  0.60590  0.41710  Biso   1.000  C
  C14      1.0000 0.63400  0.10590  0.08290  Biso   1.000  C
  C15      1.0000 0.13400  0.39410  0.58290  Biso   1.000  C
  C16      1.0000 0.36600  0.89410  0.91710  Biso   1.000  C
  H1       1.0000 0.82770  0.57000  0.46860  Biso   1.000  H
  H2       1.0000 0.67230  0.07000  0.03140  Biso   1.000  H
  H3       1.0000 0.17230  0.43000  0.53140  Biso   1.000  H
  H4       1.0000 0.32770  0.93000  0.96860  Biso   1.000  H
  C17      1.0000 0.86540  0.73630  0.40900  Biso   1.000  C
  C18      1.0000 0.63460  0.23630  0.09100  Biso   1.000  C
  C19      1.0000 0.13460  0.26370  0.59100  Biso   1.000  C
  C20      1.0000 0.36540  0.76370  0.90900  Biso   1.000  C
  C21      1.0000 0.80990  0.81590  0.47160  Biso   1.000  C
  C22      1.0000 0.69010  0.31590  0.02840  Biso   1.000  C
  C23      1.0000 0.19010  0.18410  0.52840  Biso   1.000  C
  C24      1.0000 0.30990  0.68410  0.97160  Biso   1.000  C
  H5       1.0000 0.77240  0.78300  0.52490  Biso   1.000  H
  H6       1.0000 0.72760  0.28300  0.97510  Biso   1.000  H
  H7       1.0000 0.22760  0.21700  0.47510  Biso   1.000  H
  H8       1.0000 0.27240  0.71700  0.02490  Biso   1.000  H
  C25      1.0000 0.81090  0.94040  0.45450  Biso   1.000  C
  C26      1.0000 0.68910  0.44040  0.04550  Biso   1.000  C
  C27      1.0000 0.18910  0.05960  0.54550  Biso   1.000  C
  C28      1.0000 0.31090  0.55960  0.95450  Biso   1.000  C
  H9       1.0000 0.77420  0.99440  0.49650  Biso   1.000  H
  H10      1.0000 0.72580  0.49440  0.00350  Biso   1.000  H
  H11      1.0000 0.22580  0.00560  0.50350  Biso   1.000  H
  H12      1.0000 0.27420  0.50560  0.99650  Biso   1.000  H
  C29      1.0000 0.86550  0.99010  0.37540  Biso   1.000  C
  C30      1.0000 0.63450  0.49010  0.12460  Biso   1.000  C
  C31      1.0000 0.13450  0.00990  0.62460  Biso   1.000  C
  C32      1.0000 0.36550  0.50990  0.87540  Biso   1.000  C
  H13      1.0000 0.86410  0.07710  0.36430  Biso   1.000  H
  H14      1.0000 0.63590  0.57710  0.13570  Biso   1.000  H
  H15      1.0000 0.13590  0.92290  0.63570  Biso   1.000  H
  H16      1.0000 0.36410  0.42290  0.86430  Biso   1.000  H
  C33      1.0000 0.92060  0.91510  0.31390  Biso   1.000  C
  C34      1.0000 0.57940  0.41510  0.18610  Biso   1.000  C
  C35      1.0000 0.07940  0.08490  0.68610  Biso   1.000  C
  C36      1.0000 0.42060  0.58490  0.81390  Biso   1.000  C
  H17      1.0000 0.95800  0.94970  0.26130  Biso   1.000  H
  H18      1.0000 0.54200  0.44970  0.23870  Biso   1.000  H
  H19      1.0000 0.04200  0.05030  0.73870  Biso   1.000  H
  H20      1.0000 0.45800  0.55030  0.76130  Biso   1.000  H
  C37      1.0000 0.92100  0.78630  0.32990  Biso   1.000  C
  C38      1.0000 0.57900  0.28630  0.17010  Biso   1.000  C
  C39      1.0000 0.07900  0.21370  0.67010  Biso   1.000  C
  C40      1.0000 0.42100  0.71370  0.82990  Biso   1.000  C
  C41      1.0000 0.97530  0.69990  0.27150  Biso   1.000  C
  C42      1.0000 0.52470  0.19990  0.22850  Biso   1.000  C
  C43      1.0000 0.02470  0.30010  0.72850  Biso   1.000  C
  C44      1.0000 0.47530  0.80010  0.77150  Biso   1.000  C
  H21      1.0000 0.01510  0.73160  0.21930  Biso   1.000  H
  H22      1.0000 0.48490  0.23160  0.28070  Biso   1.000  H
  H23      1.0000 0.98490  0.26840  0.78070  Biso   1.000  H
  H24      1.0000 0.51510  0.76840  0.71930  Biso   1.000  H
