data_image0
_cell_length_a       8.3799
_cell_length_b       14.331
_cell_length_c       14.1163
_cell_angle_alpha    90
_cell_angle_beta     96.151
_cell_angle_gamma    90

_symmetry_space_group_name_H-M    "P 1"
_symmetry_int_tables_number       1

loop_
  _symmetry_equiv_pos_as_xyz
  'x, y, z'

loop_
  _atom_site_label
  _atom_site_occupancy
  _atom_site_fract_x
  _atom_site_fract_y
  _atom_site_fract_z
  _atom_site_thermal_displace_type
  _atom_site_B_iso_or_equiv
  _atom_site_type_symbol
  Cu1      1.0000 0.17049  0.61528  0.13754  Biso   1.000  Cu
  Cu2      1.0000 0.32951  0.11528  0.36246  Biso   1.000  Cu
  Cu3      1.0000 0.82951  0.38472  0.86246  Biso   1.000  Cu
  Cu4      1.0000 0.67049  0.88472  0.63754  Biso   1.000  Cu
  Cu5      1.0000 0.15934  0.38134  0.09924  Biso   1.000  Cu
  Cu6      1.0000 0.34066  0.88134  0.40076  Biso   1.000  Cu
  Cu7      1.0000 0.84066  0.61866  0.90076  Biso   1.000  Cu
  Cu8      1.0000 0.65934  0.11866  0.59924  Biso   1.000  Cu
  Cu9      1.0000 0.31980  0.84841  0.89644  Biso   1.000  Cu
  Cu10     1.0000 0.18020  0.34841  0.60356  Biso   1.000  Cu
  Cu11     1.0000 0.68020  0.15159  0.10356  Biso   1.000  Cu
  Cu12     1.0000 0.81980  0.65159  0.39644  Biso   1.000  Cu
  Cu13     1.0000 0.47751  0.15863  0.92736  Biso   1.000  Cu
  Cu14     1.0000 0.02249  0.65863  0.57264  Biso   1.000  Cu
  Cu15     1.0000 0.52249  0.84137  0.07264  Biso   1.000  Cu
  Cu16     1.0000 0.97751  0.34137  0.42736  Biso   1.000  Cu
  Cu17     1.0000 0.96359  0.76760  0.89935  Biso   1.000  Cu
  Cu18     1.0000 0.53641  0.26760  0.60065  Biso   1.000  Cu
  Cu19     1.0000 0.03641  0.23240  0.10065  Biso   1.000  Cu
  Cu20     1.0000 0.46359  0.73240  0.39935  Biso   1.000  Cu
  N1       1.0000 0.50470  0.03890  0.98620  Biso   1.000  N
  N2       1.0000 0.99530  0.53890  0.51380  Biso   1.000  N
  N3       1.0000 0.49530  0.96110  0.01380  Biso   1.000  N
  N4       1.0000 0.00470  0.46110  0.48620  Biso   1.000  N
  N5       1.0000 0.46590  0.97500  0.47230  Biso   1.000  N
  N6       1.0000 0.03410  0.47500  0.02770  Biso   1.000  N
  N7       1.0000 0.53410  0.02500  0.52770  Biso   1.000  N
  N8       1.0000 0.96590  0.52500  0.97230  Biso   1.000  N
  N9       1.0000 0.21100  0.70870  0.04040  Biso   1.000  N
  N10      1.0000 0.28900  0.20870  0.45960  Biso   1.000  N
  N11      1.0000 0.78900  0.29130  0.95960  Biso   1.000  N
  N12      1.0000 0.71100  0.79130  0.54040  Biso   1.000  N
  C1       1.0000 0.25430  0.76100  0.98700  Biso   1.000  C
  C2       1.0000 0.24570  0.26100  0.51300  Biso   1.000  C
  C3       1.0000 0.74570  0.23900  0.01300  Biso   1.000  C
  C4       1.0000 0.75430  0.73900  0.48700  Biso   1.000  C
  N13      1.0000 0.95250  0.64070  0.29580  Biso   1.000  N
  N14      1.0000 0.54750  0.14070  0.20420  Biso   1.000  N
  N15      1.0000 0.04750  0.35930  0.70420  Biso   1.000  N
  N16      1.0000 0.45250  0.85930  0.79580  Biso   1.000  N
  C5       1.0000 0.03690  0.62960  0.23480  Biso   1.000  C
  C6       1.0000 0.46310  0.12960  0.26520  Biso   1.000  C
  C7       1.0000 0.96310  0.37040  0.76520  Biso   1.000  C
  C8       1.0000 0.53690  0.87040  0.73480  Biso   1.000  C
  N17      1.0000 0.31380  0.23460  0.97710  Biso   1.000  N
  N18      1.0000 0.18620  0.73460  0.52290  Biso   1.000  N
  N19      1.0000 0.68620  0.76540  0.02290  Biso   1.000  N
  N20      1.0000 0.81380  0.26540  0.47710  Biso   1.000  N
  N21      1.0000 0.00990  0.32240  0.29540  Biso   1.000  N
  N22      1.0000 0.49010  0.82240  0.20460  Biso   1.000  N
  N23      1.0000 0.99010  0.67760  0.70460  Biso   1.000  N
  N24      1.0000 0.50990  0.17760  0.79540  Biso   1.000  N
  N25      1.0000 0.37760  0.53680  0.13730  Biso   1.000  N
  N26      1.0000 0.12240  0.03680  0.36270  Biso   1.000  N
  N27      1.0000 0.62240  0.46320  0.86270  Biso   1.000  N
  N28      1.0000 0.87760  0.96320  0.63730  Biso   1.000  N
  N29      1.0000 0.37730  0.44240  0.12970  Biso   1.000  N
  N30      1.0000 0.12270  0.94240  0.37030  Biso   1.000  N
  N31      1.0000 0.62270  0.55760  0.87030  Biso   1.000  N
  N32      1.0000 0.87730  0.05760  0.62970  Biso   1.000  N
  N33      1.0000 0.98440  0.90560  0.88900  Biso   1.000  N
  N34      1.0000 0.51560  0.40560  0.61100  Biso   1.000  N
  N35      1.0000 0.01560  0.09440  0.11100  Biso   1.000  N
  N36      1.0000 0.48440  0.59440  0.38900  Biso   1.000  N
  N37      1.0000 0.12740  0.94330  0.87590  Biso   1.000  N
  N38      1.0000 0.37260  0.44330  0.62410  Biso   1.000  N
  N39      1.0000 0.87260  0.05670  0.12410  Biso   1.000  N
  N40      1.0000 0.62740  0.55670  0.37590  Biso   1.000  N
  C9       1.0000 0.21180  0.25980  0.02050  Biso   1.000  C
  C10      1.0000 0.28820  0.75980  0.47950  Biso   1.000  C
  C11      1.0000 0.78820  0.74020  0.97950  Biso   1.000  C
  C12      1.0000 0.71180  0.24020  0.52050  Biso   1.000  C
  C13      1.0000 0.02840  0.30740  0.21690  Biso   1.000  C
  C14      1.0000 0.47160  0.80740  0.28310  Biso   1.000  C
  C15      1.0000 0.97160  0.69260  0.78310  Biso   1.000  C
  C16      1.0000 0.52840  0.19260  0.71690  Biso   1.000  C
  C17      1.0000 0.51480  0.58270  0.13710  Biso   1.000  C
  C18      1.0000 0.98520  0.08270  0.36290  Biso   1.000  C
  C19      1.0000 0.48520  0.41730  0.86290  Biso   1.000  C
  C20      1.0000 0.01480  0.91730  0.63710  Biso   1.000  C
  H1       1.0000 0.51350  0.64870  0.14300  Biso   1.000  H
  H2       1.0000 0.98650  0.14870  0.35700  Biso   1.000  H
  H3       1.0000 0.48650  0.35130  0.85700  Biso   1.000  H
  H4       1.0000 0.01350  0.85130  0.64300  Biso   1.000  H
  C21      1.0000 0.66110  0.53870  0.12850  Biso   1.000  C
  C22      1.0000 0.83890  0.03870  0.37150  Biso   1.000  C
  C23      1.0000 0.33890  0.46130  0.87150  Biso   1.000  C
  C24      1.0000 0.16110  0.96130  0.62850  Biso   1.000  C
  H5       1.0000 0.75730  0.57370  0.12770  Biso   1.000  H
  H6       1.0000 0.74270  0.07370  0.37230  Biso   1.000  H
  H7       1.0000 0.24270  0.42630  0.87230  Biso   1.000  H
  H8       1.0000 0.25730  0.92630  0.62770  Biso   1.000  H
  C25      1.0000 0.66140  0.44490  0.12150  Biso   1.000  C
  C26      1.0000 0.83860  0.94490  0.37850  Biso   1.000  C
  C27      1.0000 0.33860  0.55510  0.87850  Biso   1.000  C
  C28      1.0000 0.16140  0.05510  0.62150  Biso   1.000  C
  H9       1.0000 0.75780  0.41140  0.11620  Biso   1.000  H
  H10      1.0000 0.74220  0.91140  0.38380  Biso   1.000  H
  H11      1.0000 0.24220  0.58860  0.88380  Biso   1.000  H
  H12      1.0000 0.25780  0.08860  0.61620  Biso   1.000  H
  C29      1.0000 0.51450  0.39890  0.12230  Biso   1.000  C
  C30      1.0000 0.98550  0.89890  0.37770  Biso   1.000  C
  C31      1.0000 0.48550  0.60110  0.87770  Biso   1.000  C
  C32      1.0000 0.01450  0.10110  0.62230  Biso   1.000  C
  H13      1.0000 0.51320  0.33280  0.11720  Biso   1.000  H
  H14      1.0000 0.98680  0.83280  0.38280  Biso   1.000  H
  H15      1.0000 0.48680  0.66720  0.88280  Biso   1.000  H
  H16      1.0000 0.01320  0.16720  0.61720  Biso   1.000  H
  C33      1.0000 0.85450  0.96060  0.88600  Biso   1.000  C
  C34      1.0000 0.64550  0.46060  0.61400  Biso   1.000  C
  C35      1.0000 0.14550  0.03940  0.11400  Biso   1.000  C
  C36      1.0000 0.35450  0.53940  0.38600  Biso   1.000  C
  H17      1.0000 0.75400  0.93320  0.89490  Biso   1.000  H
  H18      1.0000 0.74600  0.43320  0.60510  Biso   1.000  H
  H19      1.0000 0.24600  0.06680  0.10510  Biso   1.000  H
  H20      1.0000 0.25400  0.56680  0.39490  Biso   1.000  H
  C37      1.0000 0.86150  0.05560  0.87040  Biso   1.000  C
  C38      1.0000 0.63850  0.55560  0.62960  Biso   1.000  C
  C39      1.0000 0.13850  0.94440  0.12960  Biso   1.000  C
  C40      1.0000 0.36150  0.44440  0.37040  Biso   1.000  C
  H21      1.0000 0.76790  0.09320  0.86870  Biso   1.000  H
  H22      1.0000 0.73210  0.59320  0.63130  Biso   1.000  H
  H23      1.0000 0.23210  0.90680  0.13130  Biso   1.000  H
  H24      1.0000 0.26790  0.40680  0.36870  Biso   1.000  H
  C41      1.0000 0.00710  0.09380  0.85750  Biso   1.000  C
  C42      1.0000 0.49290  0.59380  0.64250  Biso   1.000  C
  C43      1.0000 0.99290  0.90620  0.14250  Biso   1.000  C
  C44      1.0000 0.50710  0.40620  0.35750  Biso   1.000  C
  H25      1.0000 0.01860  0.15890  0.84750  Biso   1.000  H
  H26      1.0000 0.48140  0.65890  0.65250  Biso   1.000  H
  H27      1.0000 0.98140  0.84110  0.15250  Biso   1.000  H
  H28      1.0000 0.51860  0.34110  0.34750  Biso   1.000  H
  C45      1.0000 0.13650  0.03420  0.85960  Biso   1.000  C
  C46      1.0000 0.36350  0.53420  0.64040  Biso   1.000  C
  C47      1.0000 0.86350  0.96580  0.14040  Biso   1.000  C
  C48      1.0000 0.63650  0.46580  0.35960  Biso   1.000  C
  H29      1.0000 0.23770  0.05950  0.84880  Biso   1.000  H
  H30      1.0000 0.26230  0.55950  0.65120  Biso   1.000  H
  H31      1.0000 0.76230  0.94050  0.15120  Biso   1.000  H
  H32      1.0000 0.73770  0.44050  0.34880  Biso   1.000  H
