data_image0
_cell_length_a       6.7878
_cell_length_b       8.7739
_cell_length_c       9.3384
_cell_angle_alpha    91.846
_cell_angle_beta     97.939
_cell_angle_gamma    108.815

_symmetry_space_group_name_H-M    "P 1"
_symmetry_int_tables_number       1

loop_
  _symmetry_equiv_pos_as_xyz
  'x, y, z'

loop_
  _atom_site_label
  _atom_site_occupancy
  _atom_site_fract_x
  _atom_site_fract_y
  _atom_site_fract_z
  _atom_site_thermal_displace_type
  _atom_site_B_iso_or_equiv
  _atom_site_type_symbol
  Cu1      1.0000 0.28167  0.47224  0.52126  Biso   1.000  Cu
  Cu2      1.0000 0.71833  0.52776  0.47874  Biso   1.000  Cu
  Cu3      1.0000 0.65418  0.96442  0.08619  Biso   1.000  Cu
  Cu4      1.0000 0.34582  0.03558  0.91381  Biso   1.000  Cu
  Cu5      1.0000 0.24501  0.29975  0.01624  Biso   1.000  Cu
  Cu6      1.0000 0.75499  0.70025  0.98376  Biso   1.000  Cu
  Cu7      1.0000 0.00000  0.50000  0.00000  Biso   1.000  Cu
  N1       1.0000 0.91810  0.98650  0.01930  Biso   1.000  N
  N2       1.0000 0.08190  0.01350  0.98070  Biso   1.000  N
  N3       1.0000 0.24430  0.39840  0.70980  Biso   1.000  N
  N4       1.0000 0.75570  0.60160  0.29020  Biso   1.000  N
  C1       1.0000 0.24400  0.36100  0.82550  Biso   1.000  C
  C2       1.0000 0.75600  0.63900  0.17450  Biso   1.000  C
  N5       1.0000 0.23290  0.68710  0.03030  Biso   1.000  N
  N6       1.0000 0.76710  0.31290  0.96970  Biso   1.000  N
  C3       1.0000 0.38260  0.80070  0.04440  Biso   1.000  C
  C4       1.0000 0.61740  0.19930  0.95560  Biso   1.000  C
  N7       1.0000 0.26400  0.33340  0.21730  Biso   1.000  N
  N8       1.0000 0.73600  0.66660  0.78270  Biso   1.000  N
  C5       1.0000 0.27270  0.38210  0.33510  Biso   1.000  C
  C6       1.0000 0.72730  0.61790  0.66490  Biso   1.000  C
  N9       1.0000 0.72960  0.29310  0.45900  Biso   1.000  N
  N10      1.0000 0.27040  0.70690  0.54100  Biso   1.000  N
  N11      1.0000 0.70920  0.07170  0.29820  Biso   1.000  N
  N12      1.0000 0.29080  0.92830  0.70180  Biso   1.000  N
  C7       1.0000 0.74300  0.98950  0.41380  Biso   1.000  C
  C8       1.0000 0.25700  0.01050  0.58620  Biso   1.000  C
  H1       1.0000 0.74720  0.88310  0.39800  Biso   1.000  H
  H2       1.0000 0.25280  0.11690  0.60200  Biso   1.000  H
  C9       1.0000 0.77180  0.05640  0.55480  Biso   1.000  C
  C10      1.0000 0.22820  0.94360  0.44520  Biso   1.000  C
  H3       1.0000 0.79680  0.99850  0.63570  Biso   1.000  H
  H4       1.0000 0.20320  0.00150  0.36430  Biso   1.000  H
  C11      1.0000 0.76270  0.21000  0.57280  Biso   1.000  C
  C12      1.0000 0.23730  0.79000  0.42720  Biso   1.000  C
  H5       1.0000 0.78020  0.25850  0.66820  Biso   1.000  H
  H6       1.0000 0.21980  0.74150  0.33180  Biso   1.000  H
  C13      1.0000 0.70490  0.21950  0.32690  Biso   1.000  C
  C14      1.0000 0.29510  0.78050  0.67310  Biso   1.000  C
  H7       1.0000 0.68220  0.27850  0.24630  Biso   1.000  H
  H8       1.0000 0.31780  0.72150  0.75370  Biso   1.000  H
