data_image0
_cell_length_a       7.3433
_cell_length_b       8.5921
_cell_length_c       12.889
_cell_angle_alpha    90
_cell_angle_beta     90
_cell_angle_gamma    90

_symmetry_space_group_name_H-M    "P 1"
_symmetry_int_tables_number       1

loop_
  _symmetry_equiv_pos_as_xyz
  'x, y, z'

loop_
  _atom_site_label
  _atom_site_occupancy
  _atom_site_fract_x
  _atom_site_fract_y
  _atom_site_fract_z
  _atom_site_thermal_displace_type
  _atom_site_B_iso_or_equiv
  _atom_site_type_symbol
  Cu1      1.0000 0.75000  0.36292  0.92858  Biso   1.000  Cu
  Cu2      1.0000 0.25000  0.63708  0.92858  Biso   1.000  Cu
  Cu3      1.0000 0.75000  0.86292  0.42858  Biso   1.000  Cu
  Cu4      1.0000 0.25000  0.13708  0.42858  Biso   1.000  Cu
  Cu5      1.0000 0.00000  0.00000  0.99253  Biso   1.000  Cu
  Cu6      1.0000 0.50000  0.00000  0.99253  Biso   1.000  Cu
  Cu7      1.0000 0.00000  0.50000  0.49253  Biso   1.000  Cu
  Cu8      1.0000 0.50000  0.50000  0.49253  Biso   1.000  Cu
  S1       1.0000 0.75000  0.09797  0.91507  Biso   1.000  S
  S2       1.0000 0.25000  0.90203  0.91507  Biso   1.000  S
  S3       1.0000 0.75000  0.59797  0.41507  Biso   1.000  S
  S4       1.0000 0.25000  0.40203  0.41507  Biso   1.000  S
  S5       1.0000 0.00000  0.50000  0.85871  Biso   1.000  S
  S6       1.0000 0.50000  0.50000  0.85871  Biso   1.000  S
  S7       1.0000 0.00000  0.00000  0.35871  Biso   1.000  S
  S8       1.0000 0.50000  0.00000  0.35871  Biso   1.000  S
  N1       1.0000 0.75000  0.93850  0.57680  Biso   1.000  N
  N2       1.0000 0.25000  0.06150  0.57680  Biso   1.000  N
  N3       1.0000 0.75000  0.43850  0.07680  Biso   1.000  N
  N4       1.0000 0.25000  0.56150  0.07680  Biso   1.000  N
  N5       1.0000 0.00000  0.50000  0.64190  Biso   1.000  N
  N6       1.0000 0.50000  0.50000  0.64190  Biso   1.000  N
  N7       1.0000 0.00000  0.00000  0.14190  Biso   1.000  N
  N8       1.0000 0.50000  0.00000  0.14190  Biso   1.000  N
  C1       1.0000 0.75000  0.83800  0.65640  Biso   1.000  C
  C2       1.0000 0.25000  0.16200  0.65640  Biso   1.000  C
  C3       1.0000 0.75000  0.33800  0.15640  Biso   1.000  C
  C4       1.0000 0.25000  0.66200  0.15640  Biso   1.000  C
  H1       1.0000 0.75000  0.73220  0.64130  Biso   1.000  H
  H2       1.0000 0.25000  0.26780  0.64130  Biso   1.000  H
  H3       1.0000 0.75000  0.23220  0.14130  Biso   1.000  H
  H4       1.0000 0.25000  0.76780  0.14130  Biso   1.000  H
  C5       1.0000 0.75000  0.88150  0.75810  Biso   1.000  C
  C6       1.0000 0.25000  0.11850  0.75810  Biso   1.000  C
  C7       1.0000 0.75000  0.38150  0.25810  Biso   1.000  C
  C8       1.0000 0.25000  0.61850  0.25810  Biso   1.000  C
  H5       1.0000 0.75000  0.80640  0.81000  Biso   1.000  H
  H6       1.0000 0.25000  0.19360  0.81000  Biso   1.000  H
  H7       1.0000 0.75000  0.30640  0.31000  Biso   1.000  H
  H8       1.0000 0.25000  0.69360  0.31000  Biso   1.000  H
  C9       1.0000 0.75000  0.03650  0.78340  Biso   1.000  C
  C10      1.0000 0.25000  0.96350  0.78340  Biso   1.000  C
  C11      1.0000 0.75000  0.53650  0.28340  Biso   1.000  C
  C12      1.0000 0.25000  0.46350  0.28340  Biso   1.000  C
  C13      1.0000 0.75000  0.14170  0.70310  Biso   1.000  C
  C14      1.0000 0.25000  0.85830  0.70310  Biso   1.000  C
  C15      1.0000 0.75000  0.64170  0.20310  Biso   1.000  C
  C16      1.0000 0.25000  0.35830  0.20310  Biso   1.000  C
  H9       1.0000 0.75000  0.24800  0.71690  Biso   1.000  H
  H10      1.0000 0.25000  0.75200  0.71690  Biso   1.000  H
  H11      1.0000 0.75000  0.74800  0.21690  Biso   1.000  H
  H12      1.0000 0.25000  0.25200  0.21690  Biso   1.000  H
  C17      1.0000 0.75000  0.08900  0.60190  Biso   1.000  C
  C18      1.0000 0.25000  0.91100  0.60190  Biso   1.000  C
  C19      1.0000 0.75000  0.58900  0.10190  Biso   1.000  C
  C20      1.0000 0.25000  0.41100  0.10190  Biso   1.000  C
  H13      1.0000 0.75000  0.16210  0.54870  Biso   1.000  H
  H14      1.0000 0.25000  0.83790  0.54870  Biso   1.000  H
  H15      1.0000 0.75000  0.66210  0.04870  Biso   1.000  H
  H16      1.0000 0.25000  0.33790  0.04870  Biso   1.000  H
  C21      1.0000 0.00000  0.50000  0.73060  Biso   1.000  C
  C22      1.0000 0.50000  0.50000  0.73060  Biso   1.000  C
  C23      1.0000 0.00000  0.00000  0.23060  Biso   1.000  C
  C24      1.0000 0.50000  0.00000  0.23060  Biso   1.000  C
