data_image0
_cell_length_a       22.106
_cell_length_b       4.1222
_cell_length_c       15.5059
_cell_angle_alpha    90
_cell_angle_beta     97.947
_cell_angle_gamma    90

_symmetry_space_group_name_H-M    "P 1"
_symmetry_int_tables_number       1

loop_
  _symmetry_equiv_pos_as_xyz
  'x, y, z'

loop_
  _atom_site_label
  _atom_site_occupancy
  _atom_site_fract_x
  _atom_site_fract_y
  _atom_site_fract_z
  _atom_site_thermal_displace_type
  _atom_site_B_iso_or_equiv
  _atom_site_type_symbol
  I1       1.0000 0.26234  0.00000  0.37475  Biso   1.000  I
  I2       1.0000 0.76234  0.50000  0.37475  Biso   1.000  I
  I3       1.0000 0.73766  0.00000  0.62525  Biso   1.000  I
  I4       1.0000 0.23766  0.50000  0.62525  Biso   1.000  I
  I5       1.0000 0.09102  0.00000  0.48049  Biso   1.000  I
  I6       1.0000 0.59102  0.50000  0.48049  Biso   1.000  I
  I7       1.0000 0.90898  0.00000  0.51951  Biso   1.000  I
  I8       1.0000 0.40898  0.50000  0.51951  Biso   1.000  I
  I9       1.0000 0.09529  0.00000  0.03099  Biso   1.000  I
  I10      1.0000 0.59529  0.50000  0.03099  Biso   1.000  I
  I11      1.0000 0.90471  0.00000  0.96901  Biso   1.000  I
  I12      1.0000 0.40471  0.50000  0.96901  Biso   1.000  I
  I13      1.0000 0.26440  0.50000  0.13044  Biso   1.000  I
  I14      1.0000 0.76440  0.00000  0.13044  Biso   1.000  I
  I15      1.0000 0.73560  0.50000  0.86956  Biso   1.000  I
  I16      1.0000 0.23560  0.00000  0.86956  Biso   1.000  I
  Cu1      1.0000 0.20757  0.00000  0.51730  Biso   1.000  Cu
  Cu2      1.0000 0.70757  0.50000  0.51730  Biso   1.000  Cu
  Cu3      1.0000 0.79243  0.00000  0.48270  Biso   1.000  Cu
  Cu4      1.0000 0.29243  0.50000  0.48270  Biso   1.000  Cu
  Cu5      1.0000 0.14339  0.00000  0.33520  Biso   1.000  Cu
  Cu6      1.0000 0.64339  0.50000  0.33520  Biso   1.000  Cu
  Cu7      1.0000 0.85661  0.00000  0.66480  Biso   1.000  Cu
  Cu8      1.0000 0.35661  0.50000  0.66480  Biso   1.000  Cu
  Cu9      1.0000 0.14243  0.50000  0.12612  Biso   1.000  Cu
  Cu10     1.0000 0.64243  0.00000  0.12612  Biso   1.000  Cu
  Cu11     1.0000 0.85757  0.50000  0.87388  Biso   1.000  Cu
  Cu12     1.0000 0.35757  0.00000  0.87388  Biso   1.000  Cu
  Cu13     1.0000 0.21359  0.00000  0.03550  Biso   1.000  Cu
  Cu14     1.0000 0.71359  0.50000  0.03550  Biso   1.000  Cu
  Cu15     1.0000 0.78641  0.00000  0.96450  Biso   1.000  Cu
  Cu16     1.0000 0.28641  0.50000  0.96450  Biso   1.000  Cu
  S1       1.0000 0.11608  0.50000  0.26360  Biso   1.000  S
  S2       1.0000 0.61608  0.00000  0.26360  Biso   1.000  S
  S3       1.0000 0.88392  0.50000  0.73640  Biso   1.000  S
  S4       1.0000 0.38392  0.00000  0.73640  Biso   1.000  S
  N1       1.0000 0.99600  0.50000  0.17920  Biso   1.000  N
  N2       1.0000 0.49600  0.00000  0.17920  Biso   1.000  N
  N3       1.0000 0.00400  0.50000  0.82080  Biso   1.000  N
  N4       1.0000 0.50400  0.00000  0.82080  Biso   1.000  N
  H1       1.0000 0.01000  0.50000  0.13020  Biso   1.000  H
  H2       1.0000 0.51000  0.00000  0.13020  Biso   1.000  H
  H3       1.0000 0.99000  0.50000  0.86980  Biso   1.000  H
  H4       1.0000 0.49000  0.00000  0.86980  Biso   1.000  H
  C1       1.0000 0.03610  0.50000  0.25470  Biso   1.000  C
  C2       1.0000 0.53610  0.00000  0.25470  Biso   1.000  C
  C3       1.0000 0.96390  0.50000  0.74530  Biso   1.000  C
  C4       1.0000 0.46390  0.00000  0.74530  Biso   1.000  C
  C5       1.0000 0.01210  0.50000  0.33000  Biso   1.000  C
  C6       1.0000 0.51210  0.00000  0.33000  Biso   1.000  C
  C7       1.0000 0.98790  0.50000  0.67000  Biso   1.000  C
  C8       1.0000 0.48790  0.00000  0.67000  Biso   1.000  C
  H5       1.0000 0.03820  0.50000  0.38240  Biso   1.000  H
  H6       1.0000 0.53820  0.00000  0.38240  Biso   1.000  H
  H7       1.0000 0.96180  0.50000  0.61760  Biso   1.000  H
  H8       1.0000 0.46180  0.00000  0.61760  Biso   1.000  H
  C9       1.0000 0.94850  0.50000  0.33170  Biso   1.000  C
  C10      1.0000 0.44850  0.00000  0.33170  Biso   1.000  C
  C11      1.0000 0.05150  0.50000  0.66830  Biso   1.000  C
  C12      1.0000 0.55150  0.00000  0.66830  Biso   1.000  C
  H9       1.0000 0.93390  0.50000  0.38520  Biso   1.000  H
  H10      1.0000 0.43390  0.00000  0.38520  Biso   1.000  H
  H11      1.0000 0.06610  0.50000  0.61480  Biso   1.000  H
  H12      1.0000 0.56610  0.00000  0.61480  Biso   1.000  H
  C13      1.0000 0.91100  0.50000  0.26330  Biso   1.000  C
  C14      1.0000 0.41100  0.00000  0.26330  Biso   1.000  C
  C15      1.0000 0.08900  0.50000  0.73670  Biso   1.000  C
  C16      1.0000 0.58900  0.00000  0.73670  Biso   1.000  C
  H13      1.0000 0.86920  0.50000  0.26620  Biso   1.000  H
  H14      1.0000 0.36920  0.00000  0.26620  Biso   1.000  H
  H15      1.0000 0.13080  0.50000  0.73380  Biso   1.000  H
  H16      1.0000 0.63080  0.00000  0.73380  Biso   1.000  H
  C17      1.0000 0.93340  0.50000  0.17950  Biso   1.000  C
  C18      1.0000 0.43340  0.00000  0.17950  Biso   1.000  C
  C19      1.0000 0.06660  0.50000  0.82050  Biso   1.000  C
  C20      1.0000 0.56660  0.00000  0.82050  Biso   1.000  C
  H17      1.0000 0.90660  0.50000  0.12770  Biso   1.000  H
  H18      1.0000 0.40660  0.00000  0.12770  Biso   1.000  H
  H19      1.0000 0.09340  0.50000  0.87230  Biso   1.000  H
  H20      1.0000 0.59340  0.00000  0.87230  Biso   1.000  H
