data_image0
_cell_length_a       14.2925
_cell_length_b       21.7939
_cell_length_c       19.689
_cell_angle_alpha    90
_cell_angle_beta     100.709
_cell_angle_gamma    90

_symmetry_space_group_name_H-M    "P 1"
_symmetry_int_tables_number       1

loop_
  _symmetry_equiv_pos_as_xyz
  'x, y, z'

loop_
  _atom_site_label
  _atom_site_occupancy
  _atom_site_fract_x
  _atom_site_fract_y
  _atom_site_fract_z
  _atom_site_thermal_displace_type
  _atom_site_B_iso_or_equiv
  _atom_site_type_symbol
  Cu1      1.0000 0.20316  0.33932  0.45789  Biso   1.000  Cu
  Cu2      1.0000 0.70316  0.83932  0.45789  Biso   1.000  Cu
  Cu3      1.0000 0.79684  0.33932  0.04211  Biso   1.000  Cu
  Cu4      1.0000 0.29684  0.83932  0.04211  Biso   1.000  Cu
  Cu5      1.0000 0.79684  0.66068  0.54211  Biso   1.000  Cu
  Cu6      1.0000 0.29684  0.16068  0.54211  Biso   1.000  Cu
  Cu7      1.0000 0.20316  0.66068  0.95789  Biso   1.000  Cu
  Cu8      1.0000 0.70316  0.16068  0.95789  Biso   1.000  Cu
  Cu9      1.0000 0.15704  0.72430  0.07447  Biso   1.000  Cu
  Cu10     1.0000 0.65704  0.22430  0.07447  Biso   1.000  Cu
  Cu11     1.0000 0.84296  0.72430  0.42553  Biso   1.000  Cu
  Cu12     1.0000 0.34296  0.22430  0.42553  Biso   1.000  Cu
  Cu13     1.0000 0.84296  0.27570  0.92553  Biso   1.000  Cu
  Cu14     1.0000 0.34296  0.77570  0.92553  Biso   1.000  Cu
  Cu15     1.0000 0.15704  0.27570  0.57447  Biso   1.000  Cu
  Cu16     1.0000 0.65704  0.77570  0.57447  Biso   1.000  Cu
  Cu17     1.0000 0.36436  0.70132  0.06388  Biso   1.000  Cu
  Cu18     1.0000 0.86436  0.20132  0.06388  Biso   1.000  Cu
  Cu19     1.0000 0.63564  0.70132  0.43612  Biso   1.000  Cu
  Cu20     1.0000 0.13564  0.20132  0.43612  Biso   1.000  Cu
  Cu21     1.0000 0.63564  0.29868  0.93612  Biso   1.000  Cu
  Cu22     1.0000 0.13564  0.79868  0.93612  Biso   1.000  Cu
  Cu23     1.0000 0.36436  0.29868  0.56388  Biso   1.000  Cu
  Cu24     1.0000 0.86436  0.79868  0.56388  Biso   1.000  Cu
  Cu25     1.0000 0.34677  0.63695  0.24110  Biso   1.000  Cu
  Cu26     1.0000 0.84677  0.13695  0.24110  Biso   1.000  Cu
  Cu27     1.0000 0.65323  0.63695  0.25890  Biso   1.000  Cu
  Cu28     1.0000 0.15323  0.13695  0.25890  Biso   1.000  Cu
  Cu29     1.0000 0.65323  0.36305  0.75890  Biso   1.000  Cu
  Cu30     1.0000 0.15323  0.86305  0.75890  Biso   1.000  Cu
  Cu31     1.0000 0.34677  0.36305  0.74110  Biso   1.000  Cu
  Cu32     1.0000 0.84677  0.86305  0.74110  Biso   1.000  Cu
  Cu33     1.0000 0.28218  0.37488  0.29361  Biso   1.000  Cu
  Cu34     1.0000 0.78218  0.87488  0.29361  Biso   1.000  Cu
  Cu35     1.0000 0.71782  0.37488  0.20639  Biso   1.000  Cu
  Cu36     1.0000 0.21782  0.87488  0.20639  Biso   1.000  Cu
  Cu37     1.0000 0.71782  0.62512  0.70639  Biso   1.000  Cu
  Cu38     1.0000 0.21782  0.12512  0.70639  Biso   1.000  Cu
  Cu39     1.0000 0.28218  0.62512  0.79361  Biso   1.000  Cu
  Cu40     1.0000 0.78218  0.12512  0.79361  Biso   1.000  Cu
  Cu41     1.0000 0.53802  0.87043  0.33290  Biso   1.000  Cu
  Cu42     1.0000 0.03802  0.37043  0.33290  Biso   1.000  Cu
  Cu43     1.0000 0.46198  0.87043  0.16710  Biso   1.000  Cu
  Cu44     1.0000 0.96198  0.37043  0.16710  Biso   1.000  Cu
  Cu45     1.0000 0.46198  0.12957  0.66710  Biso   1.000  Cu
  Cu46     1.0000 0.96198  0.62957  0.66710  Biso   1.000  Cu
  Cu47     1.0000 0.53802  0.12957  0.83290  Biso   1.000  Cu
  Cu48     1.0000 0.03802  0.62957  0.83290  Biso   1.000  Cu
  Cu49     1.0000 0.40089  0.11950  0.24558  Biso   1.000  Cu
  Cu50     1.0000 0.90089  0.61950  0.24558  Biso   1.000  Cu
  Cu51     1.0000 0.59911  0.11950  0.25442  Biso   1.000  Cu
  Cu52     1.0000 0.09911  0.61950  0.25442  Biso   1.000  Cu
  Cu53     1.0000 0.59911  0.88050  0.75442  Biso   1.000  Cu
  Cu54     1.0000 0.09911  0.38050  0.75442  Biso   1.000  Cu
  Cu55     1.0000 0.40089  0.88050  0.74558  Biso   1.000  Cu
  Cu56     1.0000 0.90089  0.38050  0.74558  Biso   1.000  Cu
  Cu57     1.0000 0.50000  0.37952  0.25000  Biso   1.000  Cu
  Cu58     1.0000 0.00000  0.87952  0.25000  Biso   1.000  Cu
  Cu59     1.0000 0.50000  0.62048  0.75000  Biso   1.000  Cu
  Cu60     1.0000 0.00000  0.12048  0.75000  Biso   1.000  Cu
  S1       1.0000 0.26479  0.65462  0.12219  Biso   1.000  S
  S2       1.0000 0.76479  0.15462  0.12219  Biso   1.000  S
  S3       1.0000 0.73521  0.65462  0.37781  Biso   1.000  S
  S4       1.0000 0.23521  0.15462  0.37781  Biso   1.000  S
  S5       1.0000 0.73521  0.34538  0.87781  Biso   1.000  S
  S6       1.0000 0.23521  0.84538  0.87781  Biso   1.000  S
  S7       1.0000 0.26479  0.34538  0.62219  Biso   1.000  S
  S8       1.0000 0.76479  0.84538  0.62219  Biso   1.000  S
  S9       1.0000 0.06578  0.29394  0.41210  Biso   1.000  S
  S10      1.0000 0.56578  0.79394  0.41210  Biso   1.000  S
  S11      1.0000 0.93422  0.29394  0.08790  Biso   1.000  S
  S12      1.0000 0.43422  0.79394  0.08790  Biso   1.000  S
  S13      1.0000 0.93422  0.70606  0.58790  Biso   1.000  S
  S14      1.0000 0.43422  0.20606  0.58790  Biso   1.000  S
  S15      1.0000 0.06578  0.70606  0.91210  Biso   1.000  S
  S16      1.0000 0.56578  0.20606  0.91210  Biso   1.000  S
  S17      1.0000 0.32288  0.32588  0.39899  Biso   1.000  S
  S18      1.0000 0.82288  0.82588  0.39899  Biso   1.000  S
  S19      1.0000 0.67712  0.32588  0.10101  Biso   1.000  S
  S20      1.0000 0.17712  0.82588  0.10101  Biso   1.000  S
  S21      1.0000 0.67712  0.67412  0.60101  Biso   1.000  S
  S22      1.0000 0.17712  0.17412  0.60101  Biso   1.000  S
  S23      1.0000 0.32288  0.67412  0.89899  Biso   1.000  S
  S24      1.0000 0.82288  0.17412  0.89899  Biso   1.000  S
  S25      1.0000 0.50000  0.59574  0.25000  Biso   1.000  S
  S26      1.0000 0.00000  0.09574  0.25000  Biso   1.000  S
  S27      1.0000 0.50000  0.40426  0.75000  Biso   1.000  S
  S28      1.0000 0.00000  0.90426  0.75000  Biso   1.000  S
  S29      1.0000 0.37651  0.85092  0.25598  Biso   1.000  S
  S30      1.0000 0.87651  0.35092  0.25598  Biso   1.000  S
  S31      1.0000 0.62349  0.85092  0.24402  Biso   1.000  S
  S32      1.0000 0.12349  0.35092  0.24402  Biso   1.000  S
  S33      1.0000 0.62349  0.14908  0.74402  Biso   1.000  S
  S34      1.0000 0.12349  0.64908  0.74402  Biso   1.000  S
  S35      1.0000 0.37651  0.14908  0.75598  Biso   1.000  S
  S36      1.0000 0.87651  0.64908  0.75598  Biso   1.000  S
  S37      1.0000 0.25106  0.59072  0.30934  Biso   1.000  S
  S38      1.0000 0.75106  0.09072  0.30934  Biso   1.000  S
  S39      1.0000 0.74894  0.59072  0.19066  Biso   1.000  S
  S40      1.0000 0.24894  0.09072  0.19066  Biso   1.000  S
  S41      1.0000 0.74894  0.40928  0.69066  Biso   1.000  S
  S42      1.0000 0.24894  0.90928  0.69066  Biso   1.000  S
  S43      1.0000 0.25106  0.40928  0.80934  Biso   1.000  S
  S44      1.0000 0.75106  0.90928  0.80934  Biso   1.000  S
  S45      1.0000 0.49091  0.08390  0.34546  Biso   1.000  S
  S46      1.0000 0.99091  0.58390  0.34546  Biso   1.000  S
  S47      1.0000 0.50909  0.08390  0.15454  Biso   1.000  S
  S48      1.0000 0.00909  0.58390  0.15454  Biso   1.000  S
  S49      1.0000 0.50909  0.91610  0.65454  Biso   1.000  S
  S50      1.0000 0.00909  0.41610  0.65454  Biso   1.000  S
  S51      1.0000 0.49091  0.91610  0.84546  Biso   1.000  S
  S52      1.0000 0.99091  0.41610  0.84546  Biso   1.000  S
  S53      1.0000 0.36139  0.33398  0.20645  Biso   1.000  S
  S54      1.0000 0.86139  0.83398  0.20645  Biso   1.000  S
  S55      1.0000 0.63861  0.33398  0.29355  Biso   1.000  S
  S56      1.0000 0.13861  0.83398  0.29355  Biso   1.000  S
  S57      1.0000 0.63861  0.66602  0.79355  Biso   1.000  S
  S58      1.0000 0.13861  0.16602  0.79355  Biso   1.000  S
  S59      1.0000 0.36139  0.66602  0.70645  Biso   1.000  S
  S60      1.0000 0.86139  0.16602  0.70645  Biso   1.000  S
  N1       1.0000 0.21080  0.58300  0.01250  Biso   1.000  N
  N2       1.0000 0.71080  0.08300  0.01250  Biso   1.000  N
  N3       1.0000 0.78920  0.58300  0.48750  Biso   1.000  N
  N4       1.0000 0.28920  0.08300  0.48750  Biso   1.000  N
  N5       1.0000 0.78920  0.41700  0.98750  Biso   1.000  N
  N6       1.0000 0.28920  0.91700  0.98750  Biso   1.000  N
  N7       1.0000 0.21080  0.41700  0.51250  Biso   1.000  N
  N8       1.0000 0.71080  0.91700  0.51250  Biso   1.000  N
  N9       1.0000 0.01690  0.28820  0.53640  Biso   1.000  N
  N10      1.0000 0.51690  0.78820  0.53640  Biso   1.000  N
  N11      1.0000 0.98310  0.28820  0.96360  Biso   1.000  N
  N12      1.0000 0.48310  0.78820  0.96360  Biso   1.000  N
  N13      1.0000 0.98310  0.71180  0.46360  Biso   1.000  N
  N14      1.0000 0.48310  0.21180  0.46360  Biso   1.000  N
  N15      1.0000 0.01690  0.71180  0.03640  Biso   1.000  N
  N16      1.0000 0.51690  0.21180  0.03640  Biso   1.000  N
  N17      1.0000 0.44660  0.35190  0.51480  Biso   1.000  N
  N18      1.0000 0.94660  0.85190  0.51480  Biso   1.000  N
  N19      1.0000 0.55340  0.35190  0.98520  Biso   1.000  N
  N20      1.0000 0.05340  0.85190  0.98520  Biso   1.000  N
  N21      1.0000 0.55340  0.64810  0.48520  Biso   1.000  N
  N22      1.0000 0.05340  0.14810  0.48520  Biso   1.000  N
  N23      1.0000 0.44660  0.64810  0.01480  Biso   1.000  N
  N24      1.0000 0.94660  0.14810  0.01480  Biso   1.000  N
  N25      1.0000 0.36890  0.72270  0.26570  Biso   1.000  N
  N26      1.0000 0.86890  0.22270  0.26570  Biso   1.000  N
  N27      1.0000 0.63110  0.72270  0.23430  Biso   1.000  N
  N28      1.0000 0.13110  0.22270  0.23430  Biso   1.000  N
  N29      1.0000 0.63110  0.27730  0.73430  Biso   1.000  N
  N30      1.0000 0.13110  0.77730  0.73430  Biso   1.000  N
  N31      1.0000 0.36890  0.27730  0.76570  Biso   1.000  N
  N32      1.0000 0.86890  0.77730  0.76570  Biso   1.000  N
  N33      1.0000 0.50000  0.46770  0.25000  Biso   1.000  N
  N34      1.0000 0.00000  0.96770  0.25000  Biso   1.000  N
  N35      1.0000 0.50000  0.53230  0.75000  Biso   1.000  N
  N36      1.0000 0.00000  0.03230  0.75000  Biso   1.000  N
  N37      1.0000 0.27810  0.46400  0.29770  Biso   1.000  N
  N38      1.0000 0.77810  0.96400  0.29770  Biso   1.000  N
  N39      1.0000 0.72190  0.46400  0.20230  Biso   1.000  N
  N40      1.0000 0.22190  0.96400  0.20230  Biso   1.000  N
  N41      1.0000 0.72190  0.53600  0.70230  Biso   1.000  N
  N42      1.0000 0.22190  0.03600  0.70230  Biso   1.000  N
  N43      1.0000 0.27810  0.53600  0.79770  Biso   1.000  N
  N44      1.0000 0.77810  0.03600  0.79770  Biso   1.000  N
  N45      1.0000 0.51570  0.95670  0.34000  Biso   1.000  N
  N46      1.0000 0.01570  0.45670  0.34000  Biso   1.000  N
  N47      1.0000 0.48430  0.95670  0.16000  Biso   1.000  N
  N48      1.0000 0.98430  0.45670  0.16000  Biso   1.000  N
  N49      1.0000 0.48430  0.04330  0.66000  Biso   1.000  N
  N50      1.0000 0.98430  0.54330  0.66000  Biso   1.000  N
  N51      1.0000 0.51570  0.04330  0.84000  Biso   1.000  N
  N52      1.0000 0.01570  0.54330  0.84000  Biso   1.000  N
  N53      1.0000 0.38740  0.20930  0.24220  Biso   1.000  N
  N54      1.0000 0.88740  0.70930  0.24220  Biso   1.000  N
  N55      1.0000 0.61260  0.20930  0.25780  Biso   1.000  N
  N56      1.0000 0.11260  0.70930  0.25780  Biso   1.000  N
  N57      1.0000 0.61260  0.79070  0.75780  Biso   1.000  N
  N58      1.0000 0.11260  0.29070  0.75780  Biso   1.000  N
  N59      1.0000 0.38740  0.79070  0.74220  Biso   1.000  N
  N60      1.0000 0.88740  0.29070  0.74220  Biso   1.000  N
  C1       1.0000 0.23590  0.58310  0.08120  Biso   1.000  C
  C2       1.0000 0.73590  0.08310  0.08120  Biso   1.000  C
  C3       1.0000 0.76410  0.58310  0.41880  Biso   1.000  C
  C4       1.0000 0.26410  0.08310  0.41880  Biso   1.000  C
  C5       1.0000 0.76410  0.41690  0.91880  Biso   1.000  C
  C6       1.0000 0.26410  0.91690  0.91880  Biso   1.000  C
  C7       1.0000 0.23590  0.41690  0.58120  Biso   1.000  C
  C8       1.0000 0.73590  0.91690  0.58120  Biso   1.000  C
  C9       1.0000 0.23720  0.52950  0.11940  Biso   1.000  C
  C10      1.0000 0.73720  0.02950  0.11940  Biso   1.000  C
  C11      1.0000 0.76280  0.52950  0.38060  Biso   1.000  C
  C12      1.0000 0.26280  0.02950  0.38060  Biso   1.000  C
  C13      1.0000 0.76280  0.47050  0.88060  Biso   1.000  C
  C14      1.0000 0.26280  0.97050  0.88060  Biso   1.000  C
  C15      1.0000 0.23720  0.47050  0.61940  Biso   1.000  C
  C16      1.0000 0.73720  0.97050  0.61940  Biso   1.000  C
  H1       1.0000 0.25580  0.53030  0.16730  Biso   1.000  H
  H2       1.0000 0.75580  0.03030  0.16730  Biso   1.000  H
  H3       1.0000 0.74420  0.53030  0.33270  Biso   1.000  H
  H4       1.0000 0.24420  0.03030  0.33270  Biso   1.000  H
  H5       1.0000 0.74420  0.46970  0.83270  Biso   1.000  H
  H6       1.0000 0.24420  0.96970  0.83270  Biso   1.000  H
  H7       1.0000 0.25580  0.46970  0.66730  Biso   1.000  H
  H8       1.0000 0.75580  0.96970  0.66730  Biso   1.000  H
  C17      1.0000 0.21070  0.47560  0.08610  Biso   1.000  C
  C18      1.0000 0.71070  0.97560  0.08610  Biso   1.000  C
  C19      1.0000 0.78930  0.47560  0.41390  Biso   1.000  C
  C20      1.0000 0.28930  0.97560  0.41390  Biso   1.000  C
  C21      1.0000 0.78930  0.52440  0.91390  Biso   1.000  C
  C22      1.0000 0.28930  0.02440  0.91390  Biso   1.000  C
  C23      1.0000 0.21070  0.52440  0.58610  Biso   1.000  C
  C24      1.0000 0.71070  0.02440  0.58610  Biso   1.000  C
  H9       1.0000 0.21060  0.43940  0.11120  Biso   1.000  H
  H10      1.0000 0.71060  0.93940  0.11120  Biso   1.000  H
  H11      1.0000 0.78940  0.43940  0.38880  Biso   1.000  H
  H12      1.0000 0.28940  0.93940  0.38880  Biso   1.000  H
  H13      1.0000 0.78940  0.56060  0.88880  Biso   1.000  H
  H14      1.0000 0.28940  0.06060  0.88880  Biso   1.000  H
  H15      1.0000 0.21060  0.56060  0.61120  Biso   1.000  H
  H16      1.0000 0.71060  0.06060  0.61120  Biso   1.000  H
  C25      1.0000 0.18470  0.47510  0.01610  Biso   1.000  C
  C26      1.0000 0.68470  0.97510  0.01610  Biso   1.000  C
  C27      1.0000 0.81530  0.47510  0.48390  Biso   1.000  C
  C28      1.0000 0.31530  0.97510  0.48390  Biso   1.000  C
  C29      1.0000 0.81530  0.52490  0.98390  Biso   1.000  C
  C30      1.0000 0.31530  0.02490  0.98390  Biso   1.000  C
  C31      1.0000 0.18470  0.52490  0.51610  Biso   1.000  C
  C32      1.0000 0.68470  0.02490  0.51610  Biso   1.000  C
  H17      1.0000 0.16550  0.43890  0.99280  Biso   1.000  H
  H18      1.0000 0.66550  0.93890  0.99280  Biso   1.000  H
  H19      1.0000 0.83450  0.43890  0.50720  Biso   1.000  H
  H20      1.0000 0.33450  0.93890  0.50720  Biso   1.000  H
  H21      1.0000 0.83450  0.56110  0.00720  Biso   1.000  H
  H22      1.0000 0.33450  0.06110  0.00720  Biso   1.000  H
  H23      1.0000 0.16550  0.56110  0.49280  Biso   1.000  H
  H24      1.0000 0.66550  0.06110  0.49280  Biso   1.000  H
  C33      1.0000 0.18700  0.52920  0.98040  Biso   1.000  C
  C34      1.0000 0.68700  0.02920  0.98040  Biso   1.000  C
  C35      1.0000 0.81300  0.52920  0.51960  Biso   1.000  C
  C36      1.0000 0.31300  0.02920  0.51960  Biso   1.000  C
  C37      1.0000 0.81300  0.47080  0.01960  Biso   1.000  C
  C38      1.0000 0.31300  0.97080  0.01960  Biso   1.000  C
  C39      1.0000 0.18700  0.47080  0.48040  Biso   1.000  C
  C40      1.0000 0.68700  0.97080  0.48040  Biso   1.000  C
  H25      1.0000 0.17150  0.52850  0.93240  Biso   1.000  H
  H26      1.0000 0.67150  0.02850  0.93240  Biso   1.000  H
  H27      1.0000 0.82850  0.52850  0.56760  Biso   1.000  H
  H28      1.0000 0.32850  0.02850  0.56760  Biso   1.000  H
  H29      1.0000 0.82850  0.47150  0.06760  Biso   1.000  H
  H30      1.0000 0.32850  0.97150  0.06760  Biso   1.000  H
  H31      1.0000 0.17150  0.47150  0.43240  Biso   1.000  H
  H32      1.0000 0.67150  0.97150  0.43240  Biso   1.000  H
  C41      1.0000 0.98400  0.29900  0.46940  Biso   1.000  C
  C42      1.0000 0.48400  0.79900  0.46940  Biso   1.000  C
  C43      1.0000 0.01600  0.29900  0.03060  Biso   1.000  C
  C44      1.0000 0.51600  0.79900  0.03060  Biso   1.000  C
  C45      1.0000 0.01600  0.70100  0.53060  Biso   1.000  C
  C46      1.0000 0.51600  0.20100  0.53060  Biso   1.000  C
  C47      1.0000 0.98400  0.70100  0.96940  Biso   1.000  C
  C48      1.0000 0.48400  0.20100  0.96940  Biso   1.000  C
  C49      1.0000 0.88850  0.31050  0.44510  Biso   1.000  C
  C50      1.0000 0.38850  0.81050  0.44510  Biso   1.000  C
  C51      1.0000 0.11150  0.31050  0.05490  Biso   1.000  C
  C52      1.0000 0.61150  0.81050  0.05490  Biso   1.000  C
  C53      1.0000 0.11150  0.68950  0.55490  Biso   1.000  C
  C54      1.0000 0.61150  0.18950  0.55490  Biso   1.000  C
  C55      1.0000 0.88850  0.68950  0.94510  Biso   1.000  C
  C56      1.0000 0.38850  0.18950  0.94510  Biso   1.000  C
  H33      1.0000 0.86700  0.31850  0.39840  Biso   1.000  H
  H34      1.0000 0.36700  0.81850  0.39840  Biso   1.000  H
  H35      1.0000 0.13300  0.31850  0.10160  Biso   1.000  H
  H36      1.0000 0.63300  0.81850  0.10160  Biso   1.000  H
  H37      1.0000 0.13300  0.68150  0.60160  Biso   1.000  H
  H38      1.0000 0.63300  0.18150  0.60160  Biso   1.000  H
  H39      1.0000 0.86700  0.68150  0.89840  Biso   1.000  H
  H40      1.0000 0.36700  0.18150  0.89840  Biso   1.000  H
  C57      1.0000 0.82510  0.31010  0.48990  Biso   1.000  C
  C58      1.0000 0.32510  0.81010  0.48990  Biso   1.000  C
  C59      1.0000 0.17490  0.31010  0.01010  Biso   1.000  C
  C60      1.0000 0.67490  0.81010  0.01010  Biso   1.000  C
  C61      1.0000 0.17490  0.68990  0.51010  Biso   1.000  C
  C62      1.0000 0.67490  0.18990  0.51010  Biso   1.000  C
  C63      1.0000 0.82510  0.68990  0.98990  Biso   1.000  C
  C64      1.0000 0.32510  0.18990  0.98990  Biso   1.000  C
  H41      1.0000 0.76080  0.31790  0.47400  Biso   1.000  H
  H42      1.0000 0.26080  0.81790  0.47400  Biso   1.000  H
  H43      1.0000 0.23920  0.31790  0.02600  Biso   1.000  H
  H44      1.0000 0.73920  0.81790  0.02600  Biso   1.000  H
  H45      1.0000 0.23920  0.68210  0.52600  Biso   1.000  H
  H46      1.0000 0.73920  0.18210  0.52600  Biso   1.000  H
  H47      1.0000 0.76080  0.68210  0.97400  Biso   1.000  H
  H48      1.0000 0.26080  0.18210  0.97400  Biso   1.000  H
  C65      1.0000 0.85870  0.29800  0.55820  Biso   1.000  C
  C66      1.0000 0.35870  0.79800  0.55820  Biso   1.000  C
  C67      1.0000 0.14130  0.29800  0.94180  Biso   1.000  C
  C68      1.0000 0.64130  0.79800  0.94180  Biso   1.000  C
  C69      1.0000 0.14130  0.70200  0.44180  Biso   1.000  C
  C70      1.0000 0.64130  0.20200  0.44180  Biso   1.000  C
  C71      1.0000 0.85870  0.70200  0.05820  Biso   1.000  C
  C72      1.0000 0.35870  0.20200  0.05820  Biso   1.000  C
  H49      1.0000 0.81770  0.29670  0.58980  Biso   1.000  H
  H50      1.0000 0.31770  0.79670  0.58980  Biso   1.000  H
  H51      1.0000 0.18230  0.29670  0.91020  Biso   1.000  H
  H52      1.0000 0.68230  0.79670  0.91020  Biso   1.000  H
  H53      1.0000 0.18230  0.70330  0.41020  Biso   1.000  H
  H54      1.0000 0.68230  0.20330  0.41020  Biso   1.000  H
  H55      1.0000 0.81770  0.70330  0.08980  Biso   1.000  H
  H56      1.0000 0.31770  0.20330  0.08980  Biso   1.000  H
  C73      1.0000 0.95440  0.28780  0.57890  Biso   1.000  C
  C74      1.0000 0.45440  0.78780  0.57890  Biso   1.000  C
  C75      1.0000 0.04560  0.28780  0.92110  Biso   1.000  C
  C76      1.0000 0.54560  0.78780  0.92110  Biso   1.000  C
  C77      1.0000 0.04560  0.71220  0.42110  Biso   1.000  C
  C78      1.0000 0.54560  0.21220  0.42110  Biso   1.000  C
  C79      1.0000 0.95440  0.71220  0.07890  Biso   1.000  C
  C80      1.0000 0.45440  0.21220  0.07890  Biso   1.000  C
  H57      1.0000 0.97720  0.28010  0.62550  Biso   1.000  H
  H58      1.0000 0.47720  0.78010  0.62550  Biso   1.000  H
  H59      1.0000 0.02280  0.28010  0.87450  Biso   1.000  H
  H60      1.0000 0.52280  0.78010  0.87450  Biso   1.000  H
  H61      1.0000 0.02280  0.71990  0.37450  Biso   1.000  H
  H62      1.0000 0.52280  0.21990  0.37450  Biso   1.000  H
  H63      1.0000 0.97720  0.71990  0.12550  Biso   1.000  H
  H64      1.0000 0.47720  0.21990  0.12550  Biso   1.000  H
  C81      1.0000 0.42190  0.36550  0.44780  Biso   1.000  C
  C82      1.0000 0.92190  0.86550  0.44780  Biso   1.000  C
  C83      1.0000 0.57810  0.36550  0.05220  Biso   1.000  C
  C84      1.0000 0.07810  0.86550  0.05220  Biso   1.000  C
  C85      1.0000 0.57810  0.63450  0.55220  Biso   1.000  C
  C86      1.0000 0.07810  0.13450  0.55220  Biso   1.000  C
  C87      1.0000 0.42190  0.63450  0.94780  Biso   1.000  C
  C88      1.0000 0.92190  0.13450  0.94780  Biso   1.000  C
  C89      1.0000 0.47280  0.40790  0.41580  Biso   1.000  C
  C90      1.0000 0.97280  0.90790  0.41580  Biso   1.000  C
  C91      1.0000 0.52720  0.40790  0.08420  Biso   1.000  C
  C92      1.0000 0.02720  0.90790  0.08420  Biso   1.000  C
  C93      1.0000 0.52720  0.59210  0.58420  Biso   1.000  C
  C94      1.0000 0.02720  0.09210  0.58420  Biso   1.000  C
  C95      1.0000 0.47280  0.59210  0.91580  Biso   1.000  C
  C96      1.0000 0.97280  0.09210  0.91580  Biso   1.000  C
  H65      1.0000 0.45420  0.41710  0.36910  Biso   1.000  H
  H66      1.0000 0.95420  0.91710  0.36910  Biso   1.000  H
  H67      1.0000 0.54580  0.41710  0.13090  Biso   1.000  H
  H68      1.0000 0.04580  0.91710  0.13090  Biso   1.000  H
  H69      1.0000 0.54580  0.58290  0.63090  Biso   1.000  H
  H70      1.0000 0.04580  0.08290  0.63090  Biso   1.000  H
  H71      1.0000 0.45420  0.58290  0.86910  Biso   1.000  H
  H72      1.0000 0.95420  0.08290  0.86910  Biso   1.000  H
  C97      1.0000 0.55110  0.43550  0.45500  Biso   1.000  C
  C98      1.0000 0.05110  0.93550  0.45500  Biso   1.000  C
  C99      1.0000 0.44890  0.43550  0.04500  Biso   1.000  C
  C100     1.0000 0.94890  0.93550  0.04500  Biso   1.000  C
  C101     1.0000 0.44890  0.56450  0.54500  Biso   1.000  C
  C102     1.0000 0.94890  0.06450  0.54500  Biso   1.000  C
  C103     1.0000 0.55110  0.56450  0.95500  Biso   1.000  C
  C104     1.0000 0.05110  0.06450  0.95500  Biso   1.000  C
  H73      1.0000 0.58540  0.46470  0.43530  Biso   1.000  H
  H74      1.0000 0.08540  0.96470  0.43530  Biso   1.000  H
  H75      1.0000 0.41460  0.46470  0.06470  Biso   1.000  H
  H76      1.0000 0.91460  0.96470  0.06470  Biso   1.000  H
  H77      1.0000 0.41460  0.53530  0.56470  Biso   1.000  H
  H78      1.0000 0.91460  0.03530  0.56470  Biso   1.000  H
  H79      1.0000 0.58540  0.53530  0.93530  Biso   1.000  H
  H80      1.0000 0.08540  0.03530  0.93530  Biso   1.000  H
  C105     1.0000 0.57780  0.42020  0.52220  Biso   1.000  C
  C106     1.0000 0.07780  0.92020  0.52220  Biso   1.000  C
  C107     1.0000 0.42220  0.42020  0.97780  Biso   1.000  C
  C108     1.0000 0.92220  0.92020  0.97780  Biso   1.000  C
  C109     1.0000 0.42220  0.57980  0.47780  Biso   1.000  C
  C110     1.0000 0.92220  0.07980  0.47780  Biso   1.000  C
  C111     1.0000 0.57780  0.57980  0.02220  Biso   1.000  C
  C112     1.0000 0.07780  0.07980  0.02220  Biso   1.000  C
  H81      1.0000 0.63220  0.43720  0.54880  Biso   1.000  H
  H82      1.0000 0.13220  0.93720  0.54880  Biso   1.000  H
  H83      1.0000 0.36780  0.43720  0.95120  Biso   1.000  H
  H84      1.0000 0.86780  0.93720  0.95120  Biso   1.000  H
  H85      1.0000 0.36780  0.56280  0.45120  Biso   1.000  H
  H86      1.0000 0.86780  0.06280  0.45120  Biso   1.000  H
  H87      1.0000 0.63220  0.56280  0.04880  Biso   1.000  H
  H88      1.0000 0.13220  0.06280  0.04880  Biso   1.000  H
  C113     1.0000 0.52410  0.37940  0.55060  Biso   1.000  C
  C114     1.0000 0.02410  0.87940  0.55060  Biso   1.000  C
  C115     1.0000 0.47590  0.37940  0.94940  Biso   1.000  C
  C116     1.0000 0.97590  0.87940  0.94940  Biso   1.000  C
  C117     1.0000 0.47590  0.62060  0.44940  Biso   1.000  C
  C118     1.0000 0.97590  0.12060  0.44940  Biso   1.000  C
  C119     1.0000 0.52410  0.62060  0.05060  Biso   1.000  C
  C120     1.0000 0.02410  0.12060  0.05060  Biso   1.000  C
  H89      1.0000 0.54220  0.37010  0.59730  Biso   1.000  H
  H90      1.0000 0.04220  0.87010  0.59730  Biso   1.000  H
  H91      1.0000 0.45780  0.37010  0.90270  Biso   1.000  H
  H92      1.0000 0.95780  0.87010  0.90270  Biso   1.000  H
  H93      1.0000 0.45780  0.62990  0.40270  Biso   1.000  H
  H94      1.0000 0.95780  0.12990  0.40270  Biso   1.000  H
  H95      1.0000 0.54220  0.62990  0.09730  Biso   1.000  H
  H96      1.0000 0.04220  0.12990  0.09730  Biso   1.000  H
  C121     1.0000 0.37160  0.77510  0.26030  Biso   1.000  C
  C122     1.0000 0.87160  0.27510  0.26030  Biso   1.000  C
  C123     1.0000 0.62840  0.77510  0.23970  Biso   1.000  C
  C124     1.0000 0.12840  0.27510  0.23970  Biso   1.000  C
  C125     1.0000 0.62840  0.22490  0.73970  Biso   1.000  C
  C126     1.0000 0.12840  0.72490  0.73970  Biso   1.000  C
  C127     1.0000 0.37160  0.22490  0.76030  Biso   1.000  C
  C128     1.0000 0.87160  0.72490  0.76030  Biso   1.000  C
  C129     1.0000 0.50000  0.51950  0.25000  Biso   1.000  C
  C130     1.0000 0.00000  0.01950  0.25000  Biso   1.000  C
  C131     1.0000 0.50000  0.48050  0.75000  Biso   1.000  C
  C132     1.0000 0.00000  0.98050  0.75000  Biso   1.000  C
  C133     1.0000 0.26630  0.51630  0.30260  Biso   1.000  C
  C134     1.0000 0.76630  0.01630  0.30260  Biso   1.000  C
  C135     1.0000 0.73370  0.51630  0.19740  Biso   1.000  C
  C136     1.0000 0.23370  0.01630  0.19740  Biso   1.000  C
  C137     1.0000 0.73370  0.48370  0.69740  Biso   1.000  C
  C138     1.0000 0.23370  0.98370  0.69740  Biso   1.000  C
  C139     1.0000 0.26630  0.48370  0.80260  Biso   1.000  C
  C140     1.0000 0.76630  0.98370  0.80260  Biso   1.000  C
  C141     1.0000 0.50290  0.00880  0.33950  Biso   1.000  C
  C142     1.0000 0.00290  0.50880  0.33950  Biso   1.000  C
  C143     1.0000 0.49710  0.00880  0.16050  Biso   1.000  C
  C144     1.0000 0.99710  0.50880  0.16050  Biso   1.000  C
  C145     1.0000 0.49710  0.99120  0.66050  Biso   1.000  C
  C146     1.0000 0.99710  0.49120  0.66050  Biso   1.000  C
  C147     1.0000 0.50290  0.99120  0.83950  Biso   1.000  C
  C148     1.0000 0.00290  0.49120  0.83950  Biso   1.000  C
  C149     1.0000 0.37760  0.26040  0.22930  Biso   1.000  C
  C150     1.0000 0.87760  0.76040  0.22930  Biso   1.000  C
  C151     1.0000 0.62240  0.26040  0.27070  Biso   1.000  C
  C152     1.0000 0.12240  0.76040  0.27070  Biso   1.000  C
  C153     1.0000 0.62240  0.73960  0.77070  Biso   1.000  C
  C154     1.0000 0.12240  0.23960  0.77070  Biso   1.000  C
  C155     1.0000 0.37760  0.73960  0.72930  Biso   1.000  C
  C156     1.0000 0.87760  0.23960  0.72930  Biso   1.000  C
