data_image0
_cell_length_a       12.344
_cell_length_b       12.344
_cell_length_c       12.344
_cell_angle_alpha    90
_cell_angle_beta     90
_cell_angle_gamma    90

_symmetry_space_group_name_H-M    "P 1"
_symmetry_int_tables_number       1

loop_
  _symmetry_equiv_pos_as_xyz
  'x, y, z'

loop_
  _atom_site_label
  _atom_site_occupancy
  _atom_site_fract_x
  _atom_site_fract_y
  _atom_site_fract_z
  _atom_site_thermal_displace_type
  _atom_site_B_iso_or_equiv
  _atom_site_type_symbol
  Cu1      1.0000 0.18168  0.18168  0.18168  Biso   1.000  Cu
  Cu2      1.0000 0.31832  0.81832  0.68168  Biso   1.000  Cu
  Cu3      1.0000 0.68168  0.31832  0.81832  Biso   1.000  Cu
  Cu4      1.0000 0.81832  0.68168  0.31832  Biso   1.000  Cu
  Cu5      1.0000 0.81832  0.81832  0.81832  Biso   1.000  Cu
  Cu6      1.0000 0.68168  0.18168  0.31832  Biso   1.000  Cu
  Cu7      1.0000 0.31832  0.68168  0.18168  Biso   1.000  Cu
  Cu8      1.0000 0.18168  0.31832  0.68168  Biso   1.000  Cu
  Cl1      1.0000 0.28723  0.28723  0.28723  Biso   1.000  Cl
  Cl2      1.0000 0.21277  0.71277  0.78723  Biso   1.000  Cl
  Cl3      1.0000 0.78723  0.21277  0.71277  Biso   1.000  Cl
  Cl4      1.0000 0.71277  0.78723  0.21277  Biso   1.000  Cl
  Cl5      1.0000 0.71277  0.71277  0.71277  Biso   1.000  Cl
  Cl6      1.0000 0.78723  0.28723  0.21277  Biso   1.000  Cl
  Cl7      1.0000 0.21277  0.78723  0.28723  Biso   1.000  Cl
  Cl8      1.0000 0.28723  0.21277  0.78723  Biso   1.000  Cl
  N1       1.0000 0.00056  0.92880  0.34402  Biso   1.000  N
  N2       1.0000 0.49944  0.07120  0.84402  Biso   1.000  N
  N3       1.0000 0.50056  0.57120  0.65598  Biso   1.000  N
  N4       1.0000 0.99944  0.42880  0.15598  Biso   1.000  N
  N5       1.0000 0.34402  0.00056  0.92880  Biso   1.000  N
  N6       1.0000 0.92880  0.34402  0.00056  Biso   1.000  N
  N7       1.0000 0.15598  0.99944  0.42880  Biso   1.000  N
  N8       1.0000 0.07120  0.84402  0.49944  Biso   1.000  N
  N9       1.0000 0.84402  0.49944  0.07120  Biso   1.000  N
  N10      1.0000 0.57120  0.65598  0.50056  Biso   1.000  N
  N11      1.0000 0.65598  0.50056  0.57120  Biso   1.000  N
  N12      1.0000 0.42880  0.15598  0.99944  Biso   1.000  N
  N13      1.0000 0.99944  0.07120  0.65598  Biso   1.000  N
  N14      1.0000 0.50056  0.92880  0.15598  Biso   1.000  N
  N15      1.0000 0.49944  0.42880  0.34402  Biso   1.000  N
  N16      1.0000 0.00056  0.57120  0.84402  Biso   1.000  N
  N17      1.0000 0.65598  0.99944  0.07120  Biso   1.000  N
  N18      1.0000 0.07120  0.65598  0.99944  Biso   1.000  N
  N19      1.0000 0.84402  0.00056  0.57120  Biso   1.000  N
  N20      1.0000 0.92880  0.15598  0.50056  Biso   1.000  N
  N21      1.0000 0.15598  0.50056  0.92880  Biso   1.000  N
  N22      1.0000 0.42880  0.34402  0.49944  Biso   1.000  N
  N23      1.0000 0.34402  0.49944  0.42880  Biso   1.000  N
  N24      1.0000 0.57120  0.84402  0.00056  Biso   1.000  N
  N25      1.0000 0.07591  0.07289  0.26377  Biso   1.000  N
  N26      1.0000 0.42409  0.92711  0.76377  Biso   1.000  N
  N27      1.0000 0.57591  0.42711  0.73623  Biso   1.000  N
  N28      1.0000 0.92409  0.57289  0.23623  Biso   1.000  N
  N29      1.0000 0.26377  0.07591  0.07289  Biso   1.000  N
  N30      1.0000 0.07289  0.26377  0.07591  Biso   1.000  N
  N31      1.0000 0.23623  0.92409  0.57289  Biso   1.000  N
  N32      1.0000 0.92711  0.76377  0.42409  Biso   1.000  N
  N33      1.0000 0.76377  0.42409  0.92711  Biso   1.000  N
  N34      1.0000 0.42711  0.73623  0.57591  Biso   1.000  N
  N35      1.0000 0.73623  0.57591  0.42711  Biso   1.000  N
  N36      1.0000 0.57289  0.23623  0.92409  Biso   1.000  N
  N37      1.0000 0.92409  0.92711  0.73623  Biso   1.000  N
  N38      1.0000 0.57591  0.07289  0.23623  Biso   1.000  N
  N39      1.0000 0.42409  0.57289  0.26377  Biso   1.000  N
  N40      1.0000 0.07591  0.42711  0.76377  Biso   1.000  N
  N41      1.0000 0.73623  0.92409  0.92711  Biso   1.000  N
  N42      1.0000 0.92711  0.73623  0.92409  Biso   1.000  N
  N43      1.0000 0.76377  0.07591  0.42711  Biso   1.000  N
  N44      1.0000 0.07289  0.23623  0.57591  Biso   1.000  N
  N45      1.0000 0.23623  0.57591  0.07289  Biso   1.000  N
  N46      1.0000 0.57289  0.26377  0.42409  Biso   1.000  N
  N47      1.0000 0.26377  0.42409  0.57289  Biso   1.000  N
  N48      1.0000 0.42711  0.76377  0.07591  Biso   1.000  N
  C1       1.0000 0.08247  0.00414  0.34455  Biso   1.000  C
  C2       1.0000 0.41753  0.99586  0.84455  Biso   1.000  C
  C3       1.0000 0.58247  0.49586  0.65545  Biso   1.000  C
  C4       1.0000 0.91753  0.50414  0.15545  Biso   1.000  C
  C5       1.0000 0.34455  0.08247  0.00414  Biso   1.000  C
  C6       1.0000 0.00414  0.34455  0.08247  Biso   1.000  C
  C7       1.0000 0.15545  0.91753  0.50414  Biso   1.000  C
  C8       1.0000 0.99586  0.84455  0.41753  Biso   1.000  C
  C9       1.0000 0.84455  0.41753  0.99586  Biso   1.000  C
  C10      1.0000 0.49586  0.65545  0.58247  Biso   1.000  C
  C11      1.0000 0.65545  0.58247  0.49586  Biso   1.000  C
  C12      1.0000 0.50414  0.15545  0.91753  Biso   1.000  C
  C13      1.0000 0.91753  0.99586  0.65545  Biso   1.000  C
  C14      1.0000 0.58247  0.00414  0.15545  Biso   1.000  C
  C15      1.0000 0.41753  0.50414  0.34455  Biso   1.000  C
  C16      1.0000 0.08247  0.49586  0.84455  Biso   1.000  C
  C17      1.0000 0.65545  0.91753  0.99586  Biso   1.000  C
  C18      1.0000 0.99586  0.65545  0.91753  Biso   1.000  C
  C19      1.0000 0.84455  0.08247  0.49586  Biso   1.000  C
  C20      1.0000 0.00414  0.15545  0.58247  Biso   1.000  C
  C21      1.0000 0.15545  0.58247  0.00414  Biso   1.000  C
  C22      1.0000 0.50414  0.34455  0.41753  Biso   1.000  C
  C23      1.0000 0.34455  0.41753  0.50414  Biso   1.000  C
  C24      1.0000 0.49586  0.84455  0.08247  Biso   1.000  C
  C25      1.0000 0.98232  0.04068  0.20834  Biso   1.000  C
  C26      1.0000 0.51768  0.95932  0.70834  Biso   1.000  C
  C27      1.0000 0.48232  0.45932  0.79166  Biso   1.000  C
  C28      1.0000 0.01768  0.54068  0.29166  Biso   1.000  C
  C29      1.0000 0.20834  0.98232  0.04068  Biso   1.000  C
  C30      1.0000 0.04068  0.20834  0.98232  Biso   1.000  C
  C31      1.0000 0.29166  0.01768  0.54068  Biso   1.000  C
  C32      1.0000 0.95932  0.70834  0.51768  Biso   1.000  C
  C33      1.0000 0.70834  0.51768  0.95932  Biso   1.000  C
  C34      1.0000 0.45932  0.79166  0.48232  Biso   1.000  C
  C35      1.0000 0.79166  0.48232  0.45932  Biso   1.000  C
  C36      1.0000 0.54068  0.29166  0.01768  Biso   1.000  C
  C37      1.0000 0.01768  0.95932  0.79166  Biso   1.000  C
  C38      1.0000 0.48232  0.04068  0.29166  Biso   1.000  C
  C39      1.0000 0.51768  0.54068  0.20834  Biso   1.000  C
  C40      1.0000 0.98232  0.45932  0.70834  Biso   1.000  C
  C41      1.0000 0.79166  0.01768  0.95932  Biso   1.000  C
  C42      1.0000 0.95932  0.79166  0.01768  Biso   1.000  C
  C43      1.0000 0.70834  0.98232  0.45932  Biso   1.000  C
  C44      1.0000 0.04068  0.29166  0.48232  Biso   1.000  C
  C45      1.0000 0.29166  0.48232  0.04068  Biso   1.000  C
  C46      1.0000 0.54068  0.20834  0.51768  Biso   1.000  C
  C47      1.0000 0.20834  0.51768  0.54068  Biso   1.000  C
  C48      1.0000 0.45932  0.70834  0.98232  Biso   1.000  C
  H1       1.0000 0.95539  0.07540  0.14714  Biso   1.000  H
  H2       1.0000 0.54461  0.92460  0.64714  Biso   1.000  H
  H3       1.0000 0.45539  0.42460  0.85286  Biso   1.000  H
  H4       1.0000 0.04461  0.57540  0.35286  Biso   1.000  H
  H5       1.0000 0.14714  0.95539  0.07540  Biso   1.000  H
  H6       1.0000 0.07540  0.14714  0.95539  Biso   1.000  H
  H7       1.0000 0.35286  0.04461  0.57540  Biso   1.000  H
  H8       1.0000 0.92460  0.64714  0.54461  Biso   1.000  H
  H9       1.0000 0.64714  0.54461  0.92460  Biso   1.000  H
  H10      1.0000 0.42460  0.85286  0.45539  Biso   1.000  H
  H11      1.0000 0.85286  0.45539  0.42460  Biso   1.000  H
  H12      1.0000 0.57540  0.35286  0.04461  Biso   1.000  H
  H13      1.0000 0.04461  0.92460  0.85286  Biso   1.000  H
  H14      1.0000 0.45539  0.07540  0.35286  Biso   1.000  H
  H15      1.0000 0.54461  0.57540  0.14714  Biso   1.000  H
  H16      1.0000 0.95539  0.42460  0.64714  Biso   1.000  H
  H17      1.0000 0.85286  0.04461  0.92460  Biso   1.000  H
  H18      1.0000 0.92460  0.85286  0.04461  Biso   1.000  H
  H19      1.0000 0.64714  0.95539  0.42460  Biso   1.000  H
  H20      1.0000 0.07540  0.35286  0.45539  Biso   1.000  H
  H21      1.0000 0.35286  0.45539  0.07540  Biso   1.000  H
  H22      1.0000 0.57540  0.14714  0.54461  Biso   1.000  H
  H23      1.0000 0.14714  0.54461  0.57540  Biso   1.000  H
  H24      1.0000 0.42460  0.64714  0.95539  Biso   1.000  H
  C49      1.0000 0.93558  0.95234  0.25497  Biso   1.000  C
  C50      1.0000 0.56442  0.04766  0.75497  Biso   1.000  C
  C51      1.0000 0.43558  0.54766  0.74503  Biso   1.000  C
  C52      1.0000 0.06442  0.45234  0.24503  Biso   1.000  C
  C53      1.0000 0.25497  0.93558  0.95234  Biso   1.000  C
  C54      1.0000 0.95234  0.25497  0.93558  Biso   1.000  C
  C55      1.0000 0.24503  0.06442  0.45234  Biso   1.000  C
  C56      1.0000 0.04766  0.75497  0.56442  Biso   1.000  C
  C57      1.0000 0.75497  0.56442  0.04766  Biso   1.000  C
  C58      1.0000 0.54766  0.74503  0.43558  Biso   1.000  C
  C59      1.0000 0.74503  0.43558  0.54766  Biso   1.000  C
  C60      1.0000 0.45234  0.24503  0.06442  Biso   1.000  C
  C61      1.0000 0.06442  0.04766  0.74503  Biso   1.000  C
  C62      1.0000 0.43558  0.95234  0.24503  Biso   1.000  C
  C63      1.0000 0.56442  0.45234  0.25497  Biso   1.000  C
  C64      1.0000 0.93558  0.54766  0.75497  Biso   1.000  C
  C65      1.0000 0.74503  0.06442  0.04766  Biso   1.000  C
  C66      1.0000 0.04766  0.74503  0.06442  Biso   1.000  C
  C67      1.0000 0.75497  0.93558  0.54766  Biso   1.000  C
  C68      1.0000 0.95234  0.24503  0.43558  Biso   1.000  C
  C69      1.0000 0.24503  0.43558  0.95234  Biso   1.000  C
  C70      1.0000 0.45234  0.25497  0.56442  Biso   1.000  C
  C71      1.0000 0.25497  0.56442  0.45234  Biso   1.000  C
  C72      1.0000 0.54766  0.75497  0.93558  Biso   1.000  C
  H25      1.0000 0.87376  0.91575  0.23228  Biso   1.000  H
  H26      1.0000 0.62624  0.08425  0.73228  Biso   1.000  H
  H27      1.0000 0.37376  0.58425  0.76772  Biso   1.000  H
  H28      1.0000 0.12624  0.41575  0.26772  Biso   1.000  H
  H29      1.0000 0.23228  0.87376  0.91575  Biso   1.000  H
  H30      1.0000 0.91575  0.23228  0.87376  Biso   1.000  H
  H31      1.0000 0.26772  0.12624  0.41575  Biso   1.000  H
  H32      1.0000 0.08425  0.73228  0.62624  Biso   1.000  H
  H33      1.0000 0.73228  0.62624  0.08425  Biso   1.000  H
  H34      1.0000 0.58425  0.76772  0.37376  Biso   1.000  H
  H35      1.0000 0.76772  0.37376  0.58425  Biso   1.000  H
  H36      1.0000 0.41575  0.26772  0.12624  Biso   1.000  H
  H37      1.0000 0.12624  0.08425  0.76772  Biso   1.000  H
  H38      1.0000 0.37376  0.91575  0.26772  Biso   1.000  H
  H39      1.0000 0.62624  0.41575  0.23228  Biso   1.000  H
  H40      1.0000 0.87376  0.58425  0.73228  Biso   1.000  H
  H41      1.0000 0.76772  0.12624  0.08425  Biso   1.000  H
  H42      1.0000 0.08425  0.76772  0.12624  Biso   1.000  H
  H43      1.0000 0.73228  0.87376  0.58425  Biso   1.000  H
  H44      1.0000 0.91575  0.26772  0.37376  Biso   1.000  H
  H45      1.0000 0.26772  0.37376  0.91575  Biso   1.000  H
  H46      1.0000 0.41575  0.23228  0.62624  Biso   1.000  H
  H47      1.0000 0.23228  0.62624  0.41575  Biso   1.000  H
  H48      1.0000 0.58425  0.73228  0.87376  Biso   1.000  H
