data_image0
_cell_length_a       4.2909
_cell_length_b       11.7965
_cell_length_c       12.085
_cell_angle_alpha    75.056
_cell_angle_beta     86.538
_cell_angle_gamma    81.685

_symmetry_space_group_name_H-M    "P 1"
_symmetry_int_tables_number       1

loop_
  _symmetry_equiv_pos_as_xyz
  'x, y, z'

loop_
  _atom_site_label
  _atom_site_occupancy
  _atom_site_fract_x
  _atom_site_fract_y
  _atom_site_fract_z
  _atom_site_thermal_displace_type
  _atom_site_B_iso_or_equiv
  _atom_site_type_symbol
  I1       1.0000 0.34753  0.87513  0.44108  Biso   1.000  I
  I2       1.0000 0.65247  0.12487  0.55892  Biso   1.000  I
  Cu1      1.0000 0.84639  0.90346  0.56172  Biso   1.000  Cu
  Cu2      1.0000 0.15361  0.09654  0.43828  Biso   1.000  Cu
  N1       1.0000 0.05100  0.85100  0.85040  Biso   1.000  N
  N2       1.0000 0.94900  0.14900  0.14960  Biso   1.000  N
  N3       1.0000 0.78370  0.69120  0.88840  Biso   1.000  N
  N4       1.0000 0.21630  0.30880  0.11160  Biso   1.000  N
  C1       1.0000 0.83310  0.61570  0.17830  Biso   1.000  C
  C2       1.0000 0.16690  0.38430  0.82170  Biso   1.000  C
  H1       1.0000 0.79421  0.57262  0.25267  Biso   1.000  H
  H2       1.0000 0.20579  0.42738  0.74733  Biso   1.000  H
  C3       1.0000 0.83000  0.67010  0.00190  Biso   1.000  C
  C4       1.0000 0.17000  0.32990  0.99810  Biso   1.000  C
  N5       1.0000 0.99360  0.74220  0.03630  Biso   1.000  N
  N6       1.0000 0.00640  0.25780  0.96370  Biso   1.000  N
  N7       1.0000 0.28550  0.90250  0.98180  Biso   1.000  N
  N8       1.0000 0.71450  0.09750  0.01820  Biso   1.000  N
  C5       1.0000 0.62530  0.63450  0.82970  Biso   1.000  C
  C6       1.0000 0.37470  0.36550  0.17030  Biso   1.000  C
  H3       1.0000 0.52805  0.56720  0.85949  Biso   1.000  H
  H4       1.0000 0.47195  0.43280  0.14051  Biso   1.000  H
  C7       1.0000 0.33600  0.97410  0.87650  Biso   1.000  C
  C8       1.0000 0.66400  0.02590  0.12350  Biso   1.000  C
  H5       1.0000 0.45388  0.03674  0.86316  Biso   1.000  H
  H6       1.0000 0.54612  0.96326  0.13684  Biso   1.000  H
  N9       1.0000 0.73110  0.59240  0.08360  Biso   1.000  N
  N10      1.0000 0.26890  0.40760  0.91640  Biso   1.000  N
  N11      1.0000 0.80270  0.78790  0.70960  Biso   1.000  N
  N12      1.0000 0.19730  0.21210  0.29040  Biso   1.000  N
  C9       1.0000 0.88490  0.78170  0.81140  Biso   1.000  C
  C10      1.0000 0.11510  0.21830  0.18860  Biso   1.000  C
  C11      1.0000 0.11380  0.83240  0.96170  Biso   1.000  C
  C12      1.0000 0.88620  0.16760  0.03830  Biso   1.000  C
  C13      1.0000 0.19790  0.94440  0.79510  Biso   1.000  C
  C14      1.0000 0.80210  0.05560  0.20490  Biso   1.000  C
  H7       1.0000 0.20112  0.97998  0.71694  Biso   1.000  H
  H8       1.0000 0.79888  0.02002  0.28306  Biso   1.000  H
  C15      1.0000 0.63850  0.69480  0.72220  Biso   1.000  C
  C16      1.0000 0.36150  0.30520  0.27780  Biso   1.000  C
  H9       1.0000 0.54745  0.67621  0.66230  Biso   1.000  H
  H10      1.0000 0.45255  0.32379  0.33770  Biso   1.000  H
  C17      1.0000 0.99320  0.70610  0.15270  Biso   1.000  C
  C18      1.0000 0.00680  0.29390  0.84730  Biso   1.000  C
  H11      1.0000 0.08596  0.73833  0.20302  Biso   1.000  H
  H12      1.0000 0.91404  0.26167  0.79698  Biso   1.000  H
  I3       1.0000 0.09335  0.60626  0.48079  Biso   1.000  I
  I4       1.0000 0.90665  0.39374  0.51921  Biso   1.000  I
