data_image0
_cell_length_a       7.1652
_cell_length_b       7.6387
_cell_length_c       29.683
_cell_angle_alpha    90
_cell_angle_beta     90
_cell_angle_gamma    90

_symmetry_space_group_name_H-M    "P 1"
_symmetry_int_tables_number       1

loop_
  _symmetry_equiv_pos_as_xyz
  'x, y, z'

loop_
  _atom_site_label
  _atom_site_occupancy
  _atom_site_fract_x
  _atom_site_fract_y
  _atom_site_fract_z
  _atom_site_thermal_displace_type
  _atom_site_B_iso_or_equiv
  _atom_site_type_symbol
  Cu1      1.0000 0.30441  0.34570  0.07211  Biso   1.000  Cu
  Cu2      1.0000 0.19559  0.65430  0.57211  Biso   1.000  Cu
  Cu3      1.0000 0.69559  0.84570  0.42789  Biso   1.000  Cu
  Cu4      1.0000 0.80441  0.15430  0.92789  Biso   1.000  Cu
  Cu5      1.0000 0.49584  0.72207  0.06870  Biso   1.000  Cu
  Cu6      1.0000 0.00416  0.27793  0.56870  Biso   1.000  Cu
  Cu7      1.0000 0.50416  0.22207  0.43130  Biso   1.000  Cu
  Cu8      1.0000 0.99584  0.77793  0.93130  Biso   1.000  Cu
  Cu9      1.0000 0.71724  0.27896  0.17778  Biso   1.000  Cu
  Cu10     1.0000 0.78276  0.72104  0.67778  Biso   1.000  Cu
  Cu11     1.0000 0.28276  0.77896  0.32222  Biso   1.000  Cu
  Cu12     1.0000 0.21724  0.22104  0.82222  Biso   1.000  Cu
  Cu13     1.0000 0.90849  0.65403  0.18264  Biso   1.000  Cu
  Cu14     1.0000 0.59151  0.34597  0.68264  Biso   1.000  Cu
  Cu15     1.0000 0.09151  0.15403  0.31736  Biso   1.000  Cu
  Cu16     1.0000 0.40849  0.84597  0.81736  Biso   1.000  Cu
  N1       1.0000 0.38310  0.10740  0.06780  Biso   1.000  N
  N2       1.0000 0.11690  0.89260  0.56780  Biso   1.000  N
  N3       1.0000 0.61690  0.60740  0.43220  Biso   1.000  N
  N4       1.0000 0.88310  0.39260  0.93220  Biso   1.000  N
  C1       1.0000 0.43040  0.95940  0.06700  Biso   1.000  C
  C2       1.0000 0.06960  0.04060  0.56700  Biso   1.000  C
  C3       1.0000 0.56960  0.45940  0.43300  Biso   1.000  C
  C4       1.0000 0.93040  0.54060  0.93300  Biso   1.000  C
  N5       1.0000 0.63280  0.44760  0.13610  Biso   1.000  N
  N6       1.0000 0.86720  0.55240  0.63610  Biso   1.000  N
  N7       1.0000 0.36720  0.94760  0.36390  Biso   1.000  N
  N8       1.0000 0.13280  0.05240  0.86390  Biso   1.000  N
  C5       1.0000 0.58500  0.55020  0.10880  Biso   1.000  C
  C6       1.0000 0.91500  0.44980  0.60880  Biso   1.000  C
  C7       1.0000 0.41500  0.05020  0.39120  Biso   1.000  C
  C8       1.0000 0.08500  0.94980  0.89120  Biso   1.000  C
  N9       1.0000 0.83040  0.89450  0.18400  Biso   1.000  N
  N10      1.0000 0.66960  0.10550  0.68400  Biso   1.000  N
  N11      1.0000 0.16960  0.39450  0.31600  Biso   1.000  N
  N12      1.0000 0.33040  0.60550  0.81600  Biso   1.000  N
  C9       1.0000 0.78520  0.04070  0.18240  Biso   1.000  C
  C10      1.0000 0.71480  0.95930  0.68240  Biso   1.000  C
  C11      1.0000 0.21480  0.54070  0.31760  Biso   1.000  C
  C12      1.0000 0.28520  0.45930  0.81760  Biso   1.000  C
  N13      1.0000 0.14970  0.46230  0.11390  Biso   1.000  N
  N14      1.0000 0.35030  0.53770  0.61390  Biso   1.000  N
  N15      1.0000 0.85030  0.96230  0.38610  Biso   1.000  N
  N16      1.0000 0.64970  0.03770  0.88610  Biso   1.000  N
  C13      1.0000 0.06810  0.52920  0.14280  Biso   1.000  C
  C14      1.0000 0.43190  0.47080  0.64280  Biso   1.000  C
  C15      1.0000 0.93190  0.02920  0.35720  Biso   1.000  C
  C16      1.0000 0.56810  0.97080  0.85720  Biso   1.000  C
  N17      1.0000 0.37280  0.44270  0.00972  Biso   1.000  N
  N18      1.0000 0.12720  0.55730  0.50972  Biso   1.000  N
  N19      1.0000 0.62720  0.94270  0.49028  Biso   1.000  N
  N20      1.0000 0.87280  0.05730  0.99028  Biso   1.000  N
  N21      1.0000 0.43650  0.60820  0.00699  Biso   1.000  N
  N22      1.0000 0.06350  0.39180  0.50699  Biso   1.000  N
  N23      1.0000 0.56350  0.10820  0.49301  Biso   1.000  N
  N24      1.0000 0.93650  0.89180  0.99301  Biso   1.000  N
  N25      1.0000 0.73730  0.39040  0.24135  Biso   1.000  N
  N26      1.0000 0.76270  0.60960  0.74135  Biso   1.000  N
  N27      1.0000 0.26270  0.89040  0.25865  Biso   1.000  N
  N28      1.0000 0.23730  0.10960  0.75865  Biso   1.000  N
  N29      1.0000 0.79980  0.55810  0.24151  Biso   1.000  N
  N30      1.0000 0.70020  0.44190  0.74151  Biso   1.000  N
  N31      1.0000 0.20020  0.05810  0.25849  Biso   1.000  N
  N32      1.0000 0.29980  0.94190  0.75849  Biso   1.000  N
  C17      1.0000 0.34870  0.35170  0.97170  Biso   1.000  C
  C18      1.0000 0.15130  0.64830  0.47170  Biso   1.000  C
  C19      1.0000 0.65130  0.85170  0.52830  Biso   1.000  C
  C20      1.0000 0.84870  0.14830  0.02830  Biso   1.000  C
  H1       1.0000 0.30290  0.23530  0.97390  Biso   1.000  H
  H2       1.0000 0.19710  0.76470  0.47390  Biso   1.000  H
  H3       1.0000 0.69710  0.73530  0.52610  Biso   1.000  H
  H4       1.0000 0.80290  0.26470  0.02610  Biso   1.000  H
  C21      1.0000 0.38700  0.41860  0.92940  Biso   1.000  C
  C22      1.0000 0.11300  0.58140  0.42940  Biso   1.000  C
  C23      1.0000 0.61300  0.91860  0.57060  Biso   1.000  C
  C24      1.0000 0.88700  0.08140  0.07060  Biso   1.000  C
  H5       1.0000 0.37030  0.35040  0.90290  Biso   1.000  H
  H6       1.0000 0.12970  0.64960  0.40290  Biso   1.000  H
  H7       1.0000 0.62970  0.85040  0.59710  Biso   1.000  H
  H8       1.0000 0.87030  0.14960  0.09710  Biso   1.000  H
  C25      1.0000 0.45050  0.58880  0.92740  Biso   1.000  C
  C26      1.0000 0.04950  0.41120  0.42740  Biso   1.000  C
  C27      1.0000 0.54950  0.08880  0.57260  Biso   1.000  C
  C28      1.0000 0.95050  0.91120  0.07260  Biso   1.000  C
  H9       1.0000 0.48030  0.64240  0.89940  Biso   1.000  H
  H10      1.0000 0.01970  0.35760  0.39940  Biso   1.000  H
  H11      1.0000 0.51970  0.14240  0.60060  Biso   1.000  H
  H12      1.0000 0.98030  0.85760  0.10060  Biso   1.000  H
  C29      1.0000 0.46940  0.67880  0.96760  Biso   1.000  C
  C30      1.0000 0.03060  0.32120  0.46760  Biso   1.000  C
  C31      1.0000 0.53060  0.17880  0.53240  Biso   1.000  C
  C32      1.0000 0.96940  0.82120  0.03240  Biso   1.000  C
  H13      1.0000 0.50810  0.79770  0.96660  Biso   1.000  H
  H14      1.0000 0.99190  0.20230  0.46660  Biso   1.000  H
  H15      1.0000 0.49190  0.29770  0.53340  Biso   1.000  H
  H16      1.0000 0.00810  0.70230  0.03340  Biso   1.000  H
  C33      1.0000 0.67260  0.32100  0.27890  Biso   1.000  C
  C34      1.0000 0.82740  0.67900  0.77890  Biso   1.000  C
  C35      1.0000 0.32740  0.82100  0.22110  Biso   1.000  C
  C36      1.0000 0.17260  0.17900  0.72110  Biso   1.000  C
  H17      1.0000 0.63380  0.20210  0.27850  Biso   1.000  H
  H18      1.0000 0.86620  0.79790  0.77850  Biso   1.000  H
  H19      1.0000 0.36620  0.70210  0.22150  Biso   1.000  H
  H20      1.0000 0.13380  0.29790  0.72150  Biso   1.000  H
  C37      1.0000 0.65810  0.41400  0.31950  Biso   1.000  C
  C38      1.0000 0.84190  0.58600  0.81950  Biso   1.000  C
  C39      1.0000 0.34190  0.91400  0.18050  Biso   1.000  C
  C40      1.0000 0.15810  0.08600  0.68050  Biso   1.000  C
  H21      1.0000 0.60560  0.36230  0.34570  Biso   1.000  H
  H22      1.0000 0.89440  0.63770  0.84570  Biso   1.000  H
  H23      1.0000 0.39440  0.86230  0.15430  Biso   1.000  H
  H24      1.0000 0.10560  0.13770  0.65430  Biso   1.000  H
  C41      1.0000 0.72160  0.57880  0.31970  Biso   1.000  C
  C42      1.0000 0.77840  0.42120  0.81970  Biso   1.000  C
  C43      1.0000 0.27840  0.07880  0.18030  Biso   1.000  C
  C44      1.0000 0.22160  0.92120  0.68030  Biso   1.000  C
  H25      1.0000 0.71940  0.64660  0.34660  Biso   1.000  H
  H26      1.0000 0.78060  0.35340  0.84660  Biso   1.000  H
  H27      1.0000 0.28060  0.14660  0.15340  Biso   1.000  H
  H28      1.0000 0.21940  0.85340  0.65340  Biso   1.000  H
  C45      1.0000 0.79180  0.64930  0.27930  Biso   1.000  C
  C46      1.0000 0.70820  0.35070  0.77930  Biso   1.000  C
  C47      1.0000 0.20820  0.14930  0.22070  Biso   1.000  C
  C48      1.0000 0.29180  0.85070  0.72070  Biso   1.000  C
  H29      1.0000 0.83500  0.76690  0.27920  Biso   1.000  H
  H30      1.0000 0.66500  0.23310  0.77920  Biso   1.000  H
  H31      1.0000 0.16500  0.26690  0.22080  Biso   1.000  H
  H32      1.0000 0.33500  0.73310  0.72080  Biso   1.000  H
