data_image0
_cell_length_a       13.066
_cell_length_b       13.61
_cell_length_c       17.821
_cell_angle_alpha    88.031
_cell_angle_beta     87.089
_cell_angle_gamma    75.714

_symmetry_space_group_name_H-M    "P 1"
_symmetry_int_tables_number       1

loop_
  _symmetry_equiv_pos_as_xyz
  'x, y, z'

loop_
  _atom_site_label
  _atom_site_occupancy
  _atom_site_fract_x
  _atom_site_fract_y
  _atom_site_fract_z
  _atom_site_thermal_displace_type
  _atom_site_B_iso_or_equiv
  _atom_site_type_symbol
  C1       1.0000 0.08980  0.61270  0.37300  Biso   1.000  C
  C2       1.0000 0.91020  0.38730  0.62700  Biso   1.000  C
  H1       1.0000 0.08650  0.67770  0.35380  Biso   1.000  H
  H2       1.0000 0.91350  0.32230  0.64620  Biso   1.000  H
  C3       1.0000 0.02830  0.60240  0.43590  Biso   1.000  C
  C4       1.0000 0.97170  0.39760  0.56410  Biso   1.000  C
  H3       1.0000 0.98410  0.65930  0.45800  Biso   1.000  H
  H4       1.0000 0.01590  0.34070  0.54200  Biso   1.000  H
  C5       1.0000 0.03240  0.50860  0.46590  Biso   1.000  C
  C6       1.0000 0.96760  0.49140  0.53410  Biso   1.000  C
  C7       1.0000 0.10250  0.42550  0.43130  Biso   1.000  C
  C8       1.0000 0.89750  0.57450  0.56870  Biso   1.000  C
  H5       1.0000 0.10970  0.36020  0.45110  Biso   1.000  H
  H6       1.0000 0.89030  0.63980  0.54890  Biso   1.000  H
  C9       1.0000 0.16010  0.44260  0.36770  Biso   1.000  C
  C10      1.0000 0.83990  0.55740  0.63230  Biso   1.000  C
  H7       1.0000 0.20530  0.38700  0.34480  Biso   1.000  H
  H8       1.0000 0.79470  0.61300  0.65520  Biso   1.000  H
  C11      1.0000 0.38430  0.43900  0.14000  Biso   1.000  C
  C12      1.0000 0.61570  0.56100  0.86000  Biso   1.000  C
  H9       1.0000 0.37620  0.38260  0.16840  Biso   1.000  H
  H10      1.0000 0.62380  0.61740  0.83160  Biso   1.000  H
  C13      1.0000 0.44820  0.42360  0.07750  Biso   1.000  C
  C14      1.0000 0.55180  0.57640  0.92250  Biso   1.000  C
  H11      1.0000 0.48220  0.35820  0.06300  Biso   1.000  H
  H12      1.0000 0.51780  0.64180  0.93700  Biso   1.000  H
  C15      1.0000 0.46250  0.50810  0.03500  Biso   1.000  C
  C16      1.0000 0.53750  0.49190  0.96500  Biso   1.000  C
  C17      1.0000 0.41450  0.60200  0.05830  Biso   1.000  C
  C18      1.0000 0.58550  0.39800  0.94170  Biso   1.000  C
  H13      1.0000 0.42580  0.65860  0.03160  Biso   1.000  H
  H14      1.0000 0.57420  0.34140  0.96840  Biso   1.000  H
  C19      1.0000 0.34730  0.61410  0.12330  Biso   1.000  C
  C20      1.0000 0.65270  0.38590  0.87670  Biso   1.000  C
  H15      1.0000 0.31330  0.67890  0.13900  Biso   1.000  H
  H16      1.0000 0.68670  0.32110  0.86100  Biso   1.000  H
  C21      1.0000 0.64570  0.37880  0.27070  Biso   1.000  C
  C22      1.0000 0.35430  0.62120  0.72930  Biso   1.000  C
  H17      1.0000 0.64850  0.32540  0.30520  Biso   1.000  H
  H18      1.0000 0.35150  0.67460  0.69480  Biso   1.000  H
  C23      1.0000 0.71300  0.36290  0.20950  Biso   1.000  C
  C24      1.0000 0.28700  0.63710  0.79050  Biso   1.000  C
  H19      1.0000 0.76020  0.30010  0.20270  Biso   1.000  H
  H20      1.0000 0.23980  0.69990  0.79730  Biso   1.000  H
  C25      1.0000 0.71090  0.44030  0.15750  Biso   1.000  C
  C26      1.0000 0.28910  0.55970  0.84250  Biso   1.000  C
  C27      1.0000 0.64310  0.53240  0.17270  Biso   1.000  C
  C28      1.0000 0.35690  0.46760  0.82730  Biso   1.000  C
  H21      1.0000 0.64210  0.58770  0.14030  Biso   1.000  H
  H22      1.0000 0.35790  0.41230  0.85970  Biso   1.000  H
  C29      1.0000 0.57550  0.54330  0.23660  Biso   1.000  C
  C30      1.0000 0.42450  0.45670  0.76340  Biso   1.000  C
  H23      1.0000 0.52940  0.60600  0.24570  Biso   1.000  H
  H24      1.0000 0.47060  0.39400  0.75430  Biso   1.000  H
  C31      1.0000 0.78120  0.42420  0.08800  Biso   1.000  C
  C32      1.0000 0.21880  0.57580  0.91200  Biso   1.000  C
  C33      1.0000 0.81580  0.50320  0.05430  Biso   1.000  C
  C34      1.0000 0.18420  0.49680  0.94570  Biso   1.000  C
  H25      1.0000 0.79660  0.56690  0.07560  Biso   1.000  H
  H26      1.0000 0.20340  0.43310  0.92440  Biso   1.000  H
  C35      1.0000 0.87840  0.48890  0.98950  Biso   1.000  C
  C36      1.0000 0.12160  0.51110  0.01050  Biso   1.000  C
  H27      1.0000 0.89860  0.54420  0.96690  Biso   1.000  H
  H28      1.0000 0.10140  0.45580  0.03310  Biso   1.000  H
  C37      1.0000 0.87430  0.32040  0.99050  Biso   1.000  C
  C38      1.0000 0.12570  0.67960  0.00950  Biso   1.000  C
  H29      1.0000 0.89190  0.25730  0.96820  Biso   1.000  H
  H30      1.0000 0.10810  0.74270  0.03180  Biso   1.000  H
  C39      1.0000 0.81210  0.33040  0.05470  Biso   1.000  C
  C40      1.0000 0.18790  0.66960  0.94530  Biso   1.000  C
  H31      1.0000 0.79070  0.27500  0.07600  Biso   1.000  H
  H32      1.0000 0.20930  0.72500  0.92400  Biso   1.000  H
  C41      1.0000 0.40630  0.37060  0.48820  Biso   1.000  C
  C42      1.0000 0.59370  0.62940  0.51180  Biso   1.000  C
  H33      1.0000 0.45320  0.31550  0.46600  Biso   1.000  H
  H34      1.0000 0.54680  0.68450  0.53400  Biso   1.000  H
  C43      1.0000 0.34580  0.35280  0.55380  Biso   1.000  C
  C44      1.0000 0.65420  0.64720  0.44620  Biso   1.000  C
  H35      1.0000 0.35240  0.28720  0.57290  Biso   1.000  H
  H36      1.0000 0.64760  0.71280  0.42710  Biso   1.000  H
  C45      1.0000 0.27920  0.43140  0.58760  Biso   1.000  C
  C46      1.0000 0.72080  0.56860  0.41240  Biso   1.000  C
  C47      1.0000 0.26970  0.52890  0.55330  Biso   1.000  C
  C48      1.0000 0.73030  0.47110  0.44670  Biso   1.000  C
  H37      1.0000 0.22390  0.58510  0.57500  Biso   1.000  H
  H38      1.0000 0.77610  0.41490  0.42500  Biso   1.000  H
  C49      1.0000 0.32720  0.54110  0.48870  Biso   1.000  C
  C50      1.0000 0.67280  0.45890  0.51130  Biso   1.000  C
  H39      1.0000 0.31670  0.60500  0.46580  Biso   1.000  H
  H40      1.0000 0.68330  0.39500  0.53420  Biso   1.000  H
  C51      1.0000 0.16590  0.31200  0.75580  Biso   1.000  C
  C52      1.0000 0.83410  0.68800  0.24420  Biso   1.000  C
  H41      1.0000 0.17570  0.24920  0.78020  Biso   1.000  H
  H42      1.0000 0.82430  0.75080  0.21980  Biso   1.000  H
  C53      1.0000 0.22680  0.32110  0.69390  Biso   1.000  C
  C54      1.0000 0.77320  0.67890  0.30610  Biso   1.000  C
  H43      1.0000 0.27640  0.26490  0.67540  Biso   1.000  H
  H44      1.0000 0.72360  0.73510  0.32460  Biso   1.000  H
  C55      1.0000 0.21450  0.41750  0.65700  Biso   1.000  C
  C56      1.0000 0.78550  0.58250  0.34300  Biso   1.000  C
  C57      1.0000 0.14120  0.49720  0.68830  Biso   1.000  C
  C58      1.0000 0.85880  0.50280  0.31170  Biso   1.000  C
  H45      1.0000 0.13100  0.56200  0.66690  Biso   1.000  H
  H46      1.0000 0.86900  0.43800  0.33310  Biso   1.000  H
  C59      1.0000 0.08200  0.47960  0.75310  Biso   1.000  C
  C60      1.0000 0.91800  0.52040  0.24690  Biso   1.000  C
  H47      1.0000 0.03420  0.53460  0.77480  Biso   1.000  H
  H48      1.0000 0.96580  0.46540  0.22520  Biso   1.000  H
  N1       1.0000 0.15510  0.53370  0.33700  Biso   1.000  N
  N2       1.0000 0.84490  0.46630  0.66300  Biso   1.000  N
  N3       1.0000 0.33160  0.53130  0.16370  Biso   1.000  N
  N4       1.0000 0.66840  0.46870  0.83630  Biso   1.000  N
  N5       1.0000 0.91260  0.39540  0.95660  Biso   1.000  N
  N6       1.0000 0.08740  0.60460  0.04340  Biso   1.000  N
  N7       1.0000 0.57500  0.46710  0.28470  Biso   1.000  N
  N8       1.0000 0.42500  0.53290  0.71530  Biso   1.000  N
  N9       1.0000 0.39890  0.46190  0.45750  Biso   1.000  N
  N10      1.0000 0.60110  0.53810  0.54250  Biso   1.000  N
  N11      1.0000 0.09020  0.39180  0.78380  Biso   1.000  N
  N12      1.0000 0.90980  0.60820  0.21620  Biso   1.000  N
  O1       1.0000 0.20960  0.91500  0.28090  Biso   1.000  O
  O2       1.0000 0.79040  0.08500  0.71910  Biso   1.000  O
  O3       1.0000 0.17100  0.24720  0.95610  Biso   1.000  O
  O4       1.0000 0.82900  0.75280  0.04390  Biso   1.000  O
  O5       1.0000 0.14560  0.11760  0.22930  Biso   1.000  O
  O6       1.0000 0.85440  0.88240  0.77070  Biso   1.000  O
  O7       1.0000 0.33600  0.99010  0.16920  Biso   1.000  O
  O8       1.0000 0.66400  0.00990  0.83080  Biso   1.000  O
  O9       1.0000 0.31960  0.05910  0.31890  Biso   1.000  O
  O10      1.0000 0.68040  0.94090  0.68110  Biso   1.000  O
  O11      1.0000 0.94420  0.16350  0.22480  Biso   1.000  O
  O12      1.0000 0.05580  0.83650  0.77520  Biso   1.000  O
  O13      1.0000 0.06620  0.23360  0.11950  Biso   1.000  O
  O14      1.0000 0.93380  0.76640  0.88050  Biso   1.000  O
  O15      1.0000 0.05010  0.29840  0.26200  Biso   1.000  O
  O16      1.0000 0.94990  0.70160  0.73800  Biso   1.000  O
  O17      1.0000 0.26640  0.25990  0.25620  Biso   1.000  O
  O18      1.0000 0.73360  0.74010  0.74380  Biso   1.000  O
  O19      1.0000 0.12420  0.18270  0.38040  Biso   1.000  O
  O20      1.0000 0.87580  0.81730  0.61960  Biso   1.000  O
  O21      1.0000 0.31840  0.21040  0.39950  Biso   1.000  O
  O22      1.0000 0.68160  0.78960  0.60050  Biso   1.000  O
  O23      1.0000 0.37650  0.01610  0.45380  Biso   1.000  O
  O24      1.0000 0.62350  0.98390  0.54620  Biso   1.000  O
  O25      1.0000 0.50210  0.08380  0.34650  Biso   1.000  O
  O26      1.0000 0.49790  0.91620  0.65350  Biso   1.000  O
  O27      1.0000 0.39150  0.85180  0.36620  Biso   1.000  O
  O28      1.0000 0.60850  0.14820  0.63380  Biso   1.000  O
  O29      1.0000 0.51020  0.91970  0.26450  Biso   1.000  O
  O30      1.0000 0.48980  0.08030  0.73550  Biso   1.000  O
  O31      1.0000 0.40850  0.78620  0.22920  Biso   1.000  O
  O32      1.0000 0.59150  0.21380  0.77080  Biso   1.000  O
  O33      1.0000 0.41670  0.83960  0.08430  Biso   1.000  O
  O34      1.0000 0.58330  0.16040  0.91570  Biso   1.000  O
  O35      1.0000 0.21830  0.73090  0.25460  Biso   1.000  O
  O36      1.0000 0.78170  0.26910  0.74540  Biso   1.000  O
  O37      1.0000 0.21070  0.85130  0.12990  Biso   1.000  O
  O38      1.0000 0.78930  0.14870  0.87010  Biso   1.000  O
  O39      1.0000 0.20980  0.79680  0.39600  Biso   1.000  O
  O40      1.0000 0.79020  0.20320  0.60400  Biso   1.000  O
  O41      1.0000 0.04150  0.85470  0.31010  Biso   1.000  O
  O42      1.0000 0.95850  0.14530  0.68990  Biso   1.000  O
  O43      1.0000 0.35480  0.03610  0.02920  Biso   1.000  O
  O44      1.0000 0.64520  0.96390  0.97080  Biso   1.000  O
  O45      1.0000 0.52370  0.98030  0.11590  Biso   1.000  O
  O46      1.0000 0.47630  0.01970  0.88410  Biso   1.000  O
  O47      1.0000 0.18430  0.99540  0.43050  Biso   1.000  O
  O48      1.0000 0.81570  0.00460  0.56950  Biso   1.000  O
  O49      1.0000 0.02100  0.04800  0.34730  Biso   1.000  O
  O50      1.0000 0.97900  0.95200  0.65270  Biso   1.000  O
  O51      1.0000 0.27590  0.19800  0.12040  Biso   1.000  O
  O52      1.0000 0.72410  0.80200  0.87960  Biso   1.000  O
  O53      1.0000 0.44140  0.14210  0.20460  Biso   1.000  O
  O54      1.0000 0.55860  0.85790  0.79540  Biso   1.000  O
  O55      1.0000 0.03920  0.97230  0.18220  Biso   1.000  O
  O56      1.0000 0.96080  0.02770  0.81780  Biso   1.000  O
  O57      1.0000 0.03830  0.76940  0.17270  Biso   1.000  O
  O58      1.0000 0.96170  0.23060  0.82730  Biso   1.000  O
  O59      1.0000 0.15440  0.03790  0.07970  Biso   1.000  O
  O60      1.0000 0.84560  0.96210  0.92030  Biso   1.000  O
  O61      1.0000 0.94000  0.11340  0.07350  Biso   1.000  O
  O62      1.0000 0.06000  0.88660  0.92650  Biso   1.000  O
  O63      1.0000 0.90340  0.24840  0.36450  Biso   1.000  O
  O64      1.0000 0.09660  0.75160  0.63550  Biso   1.000  O
  O65      1.0000 0.14960  0.39700  0.15730  Biso   1.000  O
  O66      1.0000 0.85040  0.60300  0.84270  Biso   1.000  O
  O67      1.0000 0.60320  0.77820  0.15690  Biso   1.000  O
  O68      1.0000 0.39680  0.22180  0.84310  Biso   1.000  O
  O69      1.0000 0.45490  0.29040  0.30740  Biso   1.000  O
  O70      1.0000 0.54510  0.70960  0.69260  Biso   1.000  O
  O71      1.0000 0.20510  0.15680  0.52160  Biso   1.000  O
  O72      1.0000 0.79490  0.84320  0.47840  Biso   1.000  O
  O73      1.0000 0.57410  0.89450  0.41160  Biso   1.000  O
  O74      1.0000 0.42590  0.10550  0.58840  Biso   1.000  O
  O75      1.0000 0.02070  0.89700  0.46210  Biso   1.000  O
  O76      1.0000 0.97930  0.10300  0.53790  Biso   1.000  O
  O77      1.0000 0.26700  0.88510  0.98070  Biso   1.000  O
  O78      1.0000 0.73300  0.11490  0.01930  Biso   1.000  O
  O79      1.0000 0.38440  0.64760  0.34350  Biso   1.000  O
  O80      1.0000 0.61560  0.35240  0.65650  Biso   1.000  O
  O81      1.0000 0.47540  0.17460  0.05180  Biso   1.000  O
  O82      1.0000 0.52460  0.82540  0.94820  Biso   1.000  O
  Cu1      1.0000 0.23985  0.54931  0.25071  Biso   1.000  Cu
  Cu2      1.0000 0.76015  0.45069  0.74929  Biso   1.000  Cu
  Cu3      1.0000 0.47550  0.47871  0.36715  Biso   1.000  Cu
  Cu4      1.0000 0.52450  0.52129  0.63285  Biso   1.000  Cu
  Cu5      1.0000 0.99954  0.62520  0.13085  Biso   1.000  Cu
  Cu6      1.0000 0.00046  0.37480  0.86915  Biso   1.000  Cu
  Ge1      1.0000 0.25306  0.02053  0.24881  Biso   1.000  Ge
  Ge2      1.0000 0.74694  0.97947  0.75119  Biso   1.000  Ge
  Mo1      1.0000 0.03203  0.10635  0.13658  Biso   1.000  Mo
  Mo2      1.0000 0.96797  0.89365  0.86342  Biso   1.000  Mo
  Mo3      1.0000 0.27720  0.92824  0.06602  Biso   1.000  Mo
  Mo4      1.0000 0.72280  0.07176  0.93398  Biso   1.000  Mo
  Mo5      1.0000 0.49286  0.86706  0.17451  Biso   1.000  Mo
  Mo6      1.0000 0.50714  0.13294  0.82549  Biso   1.000  Mo
  Mo7      1.0000 0.32127  0.76648  0.31304  Biso   1.000  Mo
  Mo8      1.0000 0.67873  0.23352  0.68696  Biso   1.000  Mo
  Mo9      1.0000 0.10108  0.91703  0.38961  Biso   1.000  Mo
  Mo10     1.0000 0.89892  0.08297  0.61039  Biso   1.000  Mo
  Mo11     1.0000 0.10683  0.84254  0.21248  Biso   1.000  Mo
  Mo12     1.0000 0.89317  0.15746  0.78752  Biso   1.000  Mo
  Mo13     1.0000 0.00808  0.18131  0.31452  Biso   1.000  Mo
  Mo14     1.0000 0.99192  0.81869  0.68548  Biso   1.000  Mo
  Mo15     1.0000 0.15815  0.27598  0.18973  Biso   1.000  Mo
  Mo16     1.0000 0.84185  0.72402  0.81027  Biso   1.000  Mo
  Mo17     1.0000 0.40753  0.10917  0.10891  Biso   1.000  Mo
  Mo18     1.0000 0.59247  0.89083  0.89109  Biso   1.000  Mo
  Mo19     1.0000 0.46313  0.95347  0.37021  Biso   1.000  Mo
  Mo20     1.0000 0.53687  0.04653  0.62979  Biso   1.000  Mo
  Mo21     1.0000 0.23814  0.11584  0.43338  Biso   1.000  Mo
  Mo22     1.0000 0.76186  0.88416  0.56662  Biso   1.000  Mo
  Mo23     1.0000 0.39676  0.19209  0.30519  Biso   1.000  Mo
  Mo24     1.0000 0.60324  0.80791  0.69481  Biso   1.000  Mo
