data_image0
_cell_length_a       7.9143
_cell_length_b       5.603
_cell_length_c       21.0033
_cell_angle_alpha    90
_cell_angle_beta     94.722
_cell_angle_gamma    90

_symmetry_space_group_name_H-M    "P 1"
_symmetry_int_tables_number       1

loop_
  _symmetry_equiv_pos_as_xyz
  'x, y, z'

loop_
  _atom_site_label
  _atom_site_occupancy
  _atom_site_fract_x
  _atom_site_fract_y
  _atom_site_fract_z
  _atom_site_thermal_displace_type
  _atom_site_B_iso_or_equiv
  _atom_site_type_symbol
  C1       1.0000 0.30550  0.55070  0.59710  Biso   1.000  C
  C2       1.0000 0.19450  0.05070  0.90290  Biso   1.000  C
  C3       1.0000 0.69450  0.44930  0.40290  Biso   1.000  C
  C4       1.0000 0.80550  0.94930  0.09710  Biso   1.000  C
  C5       1.0000 0.37240  0.71910  0.64730  Biso   1.000  C
  C6       1.0000 0.12760  0.21910  0.85270  Biso   1.000  C
  C7       1.0000 0.62760  0.28090  0.35270  Biso   1.000  C
  C8       1.0000 0.87240  0.78090  0.14730  Biso   1.000  C
  C9       1.0000 0.28350  0.92600  0.65850  Biso   1.000  C
  C10      1.0000 0.21650  0.42600  0.84150  Biso   1.000  C
  C11      1.0000 0.71650  0.07400  0.34150  Biso   1.000  C
  C12      1.0000 0.78350  0.57400  0.15850  Biso   1.000  C
  H1       1.0000 0.18340  0.96020  0.63390  Biso   1.000  H
  H2       1.0000 0.31660  0.46020  0.86610  Biso   1.000  H
  H3       1.0000 0.81660  0.03980  0.36610  Biso   1.000  H
  H4       1.0000 0.68340  0.53980  0.13390  Biso   1.000  H
  C13      1.0000 0.34330  0.08140  0.70620  Biso   1.000  C
  C14      1.0000 0.15670  0.58140  0.79380  Biso   1.000  C
  C15      1.0000 0.65670  0.91860  0.29380  Biso   1.000  C
  C16      1.0000 0.84330  0.41860  0.20620  Biso   1.000  C
  H5       1.0000 0.28500  0.22230  0.71250  Biso   1.000  H
  H6       1.0000 0.21500  0.72230  0.78750  Biso   1.000  H
  H7       1.0000 0.71500  0.77770  0.28750  Biso   1.000  H
  H8       1.0000 0.78500  0.27770  0.21250  Biso   1.000  H
  C17      1.0000 0.48580  0.03070  0.74380  Biso   1.000  C
  C18      1.0000 0.01420  0.53070  0.75620  Biso   1.000  C
  C19      1.0000 0.51420  0.96930  0.25620  Biso   1.000  C
  C20      1.0000 0.98580  0.46930  0.24380  Biso   1.000  C
  H9       1.0000 0.52410  0.13590  0.77610  Biso   1.000  H
  H10      1.0000 0.97590  0.63590  0.72390  Biso   1.000  H
  H11      1.0000 0.47590  0.86410  0.22390  Biso   1.000  H
  H12      1.0000 0.02410  0.36410  0.27610  Biso   1.000  H
  C21      1.0000 0.57360  0.82490  0.73450  Biso   1.000  C
  C22      1.0000 0.92640  0.32490  0.76550  Biso   1.000  C
  C23      1.0000 0.42640  0.17510  0.26550  Biso   1.000  C
  C24      1.0000 0.07360  0.67510  0.23450  Biso   1.000  C
  H13      1.0000 0.66930  0.78850  0.76150  Biso   1.000  H
  H14      1.0000 0.83070  0.28850  0.73850  Biso   1.000  H
  H15      1.0000 0.33070  0.21150  0.23850  Biso   1.000  H
  H16      1.0000 0.16930  0.71150  0.26150  Biso   1.000  H
  C25      1.0000 0.52080  0.66880  0.68470  Biso   1.000  C
  C26      1.0000 0.97920  0.16880  0.81530  Biso   1.000  C
  C27      1.0000 0.47920  0.33120  0.31530  Biso   1.000  C
  C28      1.0000 0.02080  0.83120  0.18470  Biso   1.000  C
  H17      1.0000 0.58400  0.53360  0.67690  Biso   1.000  H
  H18      1.0000 0.91600  0.03360  0.82310  Biso   1.000  H
  H19      1.0000 0.41600  0.46640  0.32310  Biso   1.000  H
  H20      1.0000 0.08400  0.96640  0.17690  Biso   1.000  H
  Cu1      1.0000 0.01897  0.23750  0.50635  Biso   1.000  Cu
  Cu2      1.0000 0.48103  0.73750  0.99365  Biso   1.000  Cu
  Cu3      1.0000 0.98103  0.76250  0.49365  Biso   1.000  Cu
  Cu4      1.0000 0.51897  0.26250  0.00635  Biso   1.000  Cu
  I1       1.0000 0.23958  0.98896  0.44832  Biso   1.000  I
  I2       1.0000 0.26042  0.48896  0.05168  Biso   1.000  I
  I3       1.0000 0.76042  0.01104  0.55168  Biso   1.000  I
  I4       1.0000 0.73958  0.51104  0.94832  Biso   1.000  I
  N1       1.0000 0.41480  0.43270  0.56660  Biso   1.000  N
  N2       1.0000 0.08520  0.93270  0.93340  Biso   1.000  N
  N3       1.0000 0.58520  0.56730  0.43340  Biso   1.000  N
  N4       1.0000 0.91480  0.06730  0.06660  Biso   1.000  N
  H21      1.0000 0.52160  0.45400  0.57580  Biso   1.000  H
  H22      1.0000 0.97840  0.95400  0.92420  Biso   1.000  H
  H23      1.0000 0.47840  0.54600  0.42420  Biso   1.000  H
  H24      1.0000 0.02160  0.04600  0.07580  Biso   1.000  H
  H25      1.0000 0.38030  0.33330  0.53710  Biso   1.000  H
  H26      1.0000 0.11970  0.83330  0.96290  Biso   1.000  H
  H27      1.0000 0.61970  0.66670  0.46290  Biso   1.000  H
  H28      1.0000 0.88030  0.16670  0.03710  Biso   1.000  H
  S1       1.0000 0.09490  0.50510  0.58517  Biso   1.000  S
  S2       1.0000 0.40510  0.00510  0.91483  Biso   1.000  S
  S3       1.0000 0.90510  0.49490  0.41483  Biso   1.000  S
  S4       1.0000 0.59490  0.99490  0.08517  Biso   1.000  S
