data_image0
_cell_length_a       7.8649
_cell_length_b       5.54
_cell_length_c       20.8775
_cell_angle_alpha    90
_cell_angle_beta     94.375
_cell_angle_gamma    90

_symmetry_space_group_name_H-M    "P 1"
_symmetry_int_tables_number       1

loop_
  _symmetry_equiv_pos_as_xyz
  'x, y, z'

loop_
  _atom_site_label
  _atom_site_occupancy
  _atom_site_fract_x
  _atom_site_fract_y
  _atom_site_fract_z
  _atom_site_thermal_displace_type
  _atom_site_B_iso_or_equiv
  _atom_site_type_symbol
  C1       1.0000 0.30570  0.55520  0.59710  Biso   1.000  C
  C2       1.0000 0.19430  0.05520  0.90290  Biso   1.000  C
  C3       1.0000 0.69430  0.44480  0.40290  Biso   1.000  C
  C4       1.0000 0.80570  0.94480  0.09710  Biso   1.000  C
  C5       1.0000 0.37030  0.72710  0.64700  Biso   1.000  C
  C6       1.0000 0.12970  0.22710  0.85300  Biso   1.000  C
  C7       1.0000 0.62970  0.27290  0.35300  Biso   1.000  C
  C8       1.0000 0.87030  0.77290  0.14700  Biso   1.000  C
  C9       1.0000 0.28020  0.93700  0.65820  Biso   1.000  C
  C10      1.0000 0.21980  0.43700  0.84180  Biso   1.000  C
  C11      1.0000 0.71980  0.06300  0.34180  Biso   1.000  C
  C12      1.0000 0.78020  0.56300  0.15820  Biso   1.000  C
  H1       1.0000 0.17780  0.97170  0.63280  Biso   1.000  H
  H2       1.0000 0.32220  0.47170  0.86720  Biso   1.000  H
  H3       1.0000 0.82220  0.02830  0.36720  Biso   1.000  H
  H4       1.0000 0.67780  0.52830  0.13280  Biso   1.000  H
  C13      1.0000 0.33930  0.09680  0.70650  Biso   1.000  C
  C14      1.0000 0.16070  0.59680  0.79350  Biso   1.000  C
  C15      1.0000 0.66070  0.90320  0.29350  Biso   1.000  C
  C16      1.0000 0.83930  0.40320  0.20650  Biso   1.000  C
  H5       1.0000 0.27910  0.24200  0.71340  Biso   1.000  H
  H6       1.0000 0.22090  0.74200  0.78660  Biso   1.000  H
  H7       1.0000 0.72090  0.75800  0.28660  Biso   1.000  H
  H8       1.0000 0.77910  0.25800  0.21340  Biso   1.000  H
  C17      1.0000 0.48600  0.04240  0.74420  Biso   1.000  C
  C18      1.0000 0.01400  0.54240  0.75580  Biso   1.000  C
  C19      1.0000 0.51400  0.95760  0.25580  Biso   1.000  C
  C20      1.0000 0.98600  0.45760  0.24420  Biso   1.000  C
  H9       1.0000 0.52550  0.15010  0.77750  Biso   1.000  H
  H10      1.0000 0.97450  0.65010  0.72250  Biso   1.000  H
  H11      1.0000 0.47450  0.84990  0.22250  Biso   1.000  H
  H12      1.0000 0.02550  0.34990  0.27750  Biso   1.000  H
  C21      1.0000 0.57570  0.83450  0.73430  Biso   1.000  C
  C22      1.0000 0.92430  0.33450  0.76570  Biso   1.000  C
  C23      1.0000 0.42430  0.16550  0.26570  Biso   1.000  C
  C24      1.0000 0.07570  0.66550  0.23430  Biso   1.000  C
  H13      1.0000 0.67530  0.79770  0.76120  Biso   1.000  H
  H14      1.0000 0.82470  0.29770  0.73880  Biso   1.000  H
  H15      1.0000 0.32470  0.20230  0.23880  Biso   1.000  H
  H16      1.0000 0.17530  0.70230  0.26120  Biso   1.000  H
  C25      1.0000 0.52030  0.67840  0.68500  Biso   1.000  C
  C26      1.0000 0.97970  0.17840  0.81500  Biso   1.000  C
  C27      1.0000 0.47970  0.32160  0.31500  Biso   1.000  C
  C28      1.0000 0.02030  0.82160  0.18500  Biso   1.000  C
  H17      1.0000 0.58470  0.53800  0.67700  Biso   1.000  H
  H18      1.0000 0.91530  0.03800  0.82300  Biso   1.000  H
  H19      1.0000 0.41530  0.46200  0.32300  Biso   1.000  H
  H20      1.0000 0.08470  0.96200  0.17700  Biso   1.000  H
  Cu1      1.0000 0.01686  0.23908  0.50576  Biso   1.000  Cu
  Cu2      1.0000 0.48314  0.73908  0.99424  Biso   1.000  Cu
  Cu3      1.0000 0.98314  0.76092  0.49424  Biso   1.000  Cu
  Cu4      1.0000 0.51686  0.26092  0.00576  Biso   1.000  Cu
  I1       1.0000 0.24302  0.98906  0.44830  Biso   1.000  I
  I2       1.0000 0.25698  0.48906  0.05170  Biso   1.000  I
  I3       1.0000 0.75698  0.01094  0.55170  Biso   1.000  I
  I4       1.0000 0.74302  0.51094  0.94830  Biso   1.000  I
  N1       1.0000 0.41540  0.43560  0.56580  Biso   1.000  N
  N2       1.0000 0.08460  0.93560  0.93420  Biso   1.000  N
  N3       1.0000 0.58460  0.56440  0.43420  Biso   1.000  N
  N4       1.0000 0.91540  0.06440  0.06580  Biso   1.000  N
  H21      1.0000 0.52550  0.45850  0.57460  Biso   1.000  H
  H22      1.0000 0.97450  0.95850  0.92540  Biso   1.000  H
  H23      1.0000 0.47450  0.54150  0.42540  Biso   1.000  H
  H24      1.0000 0.02550  0.04150  0.07460  Biso   1.000  H
  H25      1.0000 0.37950  0.33190  0.53580  Biso   1.000  H
  H26      1.0000 0.12050  0.83190  0.96420  Biso   1.000  H
  H27      1.0000 0.62050  0.66810  0.46420  Biso   1.000  H
  H28      1.0000 0.87950  0.16810  0.03580  Biso   1.000  H
  S1       1.0000 0.09197  0.50760  0.58583  Biso   1.000  S
  S2       1.0000 0.40803  0.00760  0.91417  Biso   1.000  S
  S3       1.0000 0.90803  0.49240  0.41417  Biso   1.000  S
  S4       1.0000 0.59197  0.99240  0.08583  Biso   1.000  S
