data_image0
_cell_length_a       5.6434
_cell_length_b       18.8307
_cell_length_c       12.758
_cell_angle_alpha    90
_cell_angle_beta     96.919
_cell_angle_gamma    90

_symmetry_space_group_name_H-M    "P 1"
_symmetry_int_tables_number       1

loop_
  _symmetry_equiv_pos_as_xyz
  'x, y, z'

loop_
  _atom_site_label
  _atom_site_occupancy
  _atom_site_fract_x
  _atom_site_fract_y
  _atom_site_fract_z
  _atom_site_thermal_displace_type
  _atom_site_B_iso_or_equiv
  _atom_site_type_symbol
  C1       1.0000 0.03400  0.62300  0.85500  Biso   1.000  C
  C2       1.0000 0.96600  0.12300  0.64500  Biso   1.000  C
  C3       1.0000 0.96600  0.37700  0.14500  Biso   1.000  C
  C4       1.0000 0.03400  0.87700  0.35500  Biso   1.000  C
  C5       1.0000 0.20220  0.67870  0.83080  Biso   1.000  C
  C6       1.0000 0.79780  0.17870  0.66920  Biso   1.000  C
  C7       1.0000 0.79780  0.32130  0.16920  Biso   1.000  C
  C8       1.0000 0.20220  0.82130  0.33080  Biso   1.000  C
  C9       1.0000 0.41370  0.68980  0.89800  Biso   1.000  C
  C10      1.0000 0.58630  0.18980  0.60200  Biso   1.000  C
  C11      1.0000 0.58630  0.31020  0.10200  Biso   1.000  C
  C12      1.0000 0.41370  0.81020  0.39800  Biso   1.000  C
  H1       1.0000 0.44510  0.66270  0.96090  Biso   1.000  H
  H2       1.0000 0.55490  0.16270  0.53910  Biso   1.000  H
  H3       1.0000 0.55490  0.33730  0.03910  Biso   1.000  H
  H4       1.0000 0.44510  0.83730  0.46090  Biso   1.000  H
  C13      1.0000 0.57690  0.73980  0.87350  Biso   1.000  C
  C14      1.0000 0.42310  0.23980  0.62650  Biso   1.000  C
  C15      1.0000 0.42310  0.26020  0.12650  Biso   1.000  C
  C16      1.0000 0.57690  0.76020  0.37350  Biso   1.000  C
  H5       1.0000 0.72200  0.74650  0.91850  Biso   1.000  H
  H6       1.0000 0.27800  0.24650  0.58150  Biso   1.000  H
  H7       1.0000 0.27800  0.25350  0.08150  Biso   1.000  H
  H8       1.0000 0.72200  0.75350  0.41850  Biso   1.000  H
  C17      1.0000 0.52680  0.78050  0.78230  Biso   1.000  C
  C18      1.0000 0.47320  0.28050  0.71770  Biso   1.000  C
  C19      1.0000 0.47320  0.21950  0.21770  Biso   1.000  C
  C20      1.0000 0.52680  0.71950  0.28230  Biso   1.000  C
  H9       1.0000 0.63890  0.81490  0.76510  Biso   1.000  H
  H10      1.0000 0.36110  0.31490  0.73490  Biso   1.000  H
  H11      1.0000 0.36110  0.18510  0.23490  Biso   1.000  H
  H12      1.0000 0.63890  0.68510  0.26510  Biso   1.000  H
  C21      1.0000 0.31640  0.77120  0.71650  Biso   1.000  C
  C22      1.0000 0.68360  0.27120  0.78350  Biso   1.000  C
  C23      1.0000 0.68360  0.22880  0.28350  Biso   1.000  C
  C24      1.0000 0.31640  0.72880  0.21650  Biso   1.000  C
  H13      1.0000 0.28390  0.79980  0.65510  Biso   1.000  H
  H14      1.0000 0.71610  0.29980  0.84490  Biso   1.000  H
  H15      1.0000 0.71610  0.20020  0.34490  Biso   1.000  H
  H16      1.0000 0.28390  0.70020  0.15510  Biso   1.000  H
  C25      1.0000 0.15250  0.72070  0.73940  Biso   1.000  C
  C26      1.0000 0.84750  0.22070  0.76060  Biso   1.000  C
  C27      1.0000 0.84750  0.27930  0.26060  Biso   1.000  C
  C28      1.0000 0.15250  0.77930  0.23940  Biso   1.000  C
  H17      1.0000 0.00790  0.71430  0.69400  Biso   1.000  H
  H18      1.0000 0.99210  0.21430  0.80600  Biso   1.000  H
  H19      1.0000 0.99210  0.28570  0.30600  Biso   1.000  H
  H20      1.0000 0.00790  0.78570  0.19400  Biso   1.000  H
  Cu1      1.0000 0.75036  0.50737  0.99233  Biso   1.000  Cu
  Cu2      1.0000 0.24964  0.00737  0.50767  Biso   1.000  Cu
  Cu3      1.0000 0.24964  0.49263  0.00767  Biso   1.000  Cu
  Cu4      1.0000 0.75036  0.99263  0.49233  Biso   1.000  Cu
  I1       1.0000 0.44101  0.47055  0.83231  Biso   1.000  I
  I2       1.0000 0.55899  0.97055  0.66769  Biso   1.000  I
  I3       1.0000 0.55899  0.52945  0.16769  Biso   1.000  I
  I4       1.0000 0.44101  0.02945  0.33231  Biso   1.000  I
  N1       1.0000 0.90800  0.59130  0.77520  Biso   1.000  N
  N2       1.0000 0.09200  0.09130  0.72480  Biso   1.000  N
  N3       1.0000 0.09200  0.40870  0.22480  Biso   1.000  N
  N4       1.0000 0.90800  0.90870  0.27520  Biso   1.000  N
  H21      1.0000 0.92570  0.60360  0.71010  Biso   1.000  H
  H22      1.0000 0.07430  0.10360  0.78990  Biso   1.000  H
  H23      1.0000 0.07430  0.39640  0.28990  Biso   1.000  H
  H24      1.0000 0.92570  0.89640  0.21010  Biso   1.000  H
  H25      1.0000 0.80580  0.55770  0.78680  Biso   1.000  H
  H26      1.0000 0.19420  0.05770  0.71320  Biso   1.000  H
  H27      1.0000 0.19420  0.44230  0.21320  Biso   1.000  H
  H28      1.0000 0.80580  0.94230  0.28680  Biso   1.000  H
  S1       1.0000 0.00380  0.60184  0.98300  Biso   1.000  S
  S2       1.0000 0.99620  0.10184  0.51700  Biso   1.000  S
  S3       1.0000 0.99620  0.39816  0.01700  Biso   1.000  S
  S4       1.0000 0.00380  0.89816  0.48300  Biso   1.000  S
  C29      1.0000 0.13160  0.59360  0.50590  Biso   1.000  C
  C30      1.0000 0.86840  0.09360  0.99410  Biso   1.000  C
  C31      1.0000 0.86840  0.40640  0.49410  Biso   1.000  C
  C32      1.0000 0.13160  0.90640  0.00590  Biso   1.000  C
  C33      1.0000 0.38180  0.59930  0.55760  Biso   1.000  C
  C34      1.0000 0.61820  0.09930  0.94240  Biso   1.000  C
  C35      1.0000 0.61820  0.40070  0.44240  Biso   1.000  C
  C36      1.0000 0.38180  0.90070  0.05760  Biso   1.000  C
  H29      1.0000 0.38140  0.60500  0.63400  Biso   1.000  H
  H30      1.0000 0.61860  0.10500  0.86600  Biso   1.000  H
  H31      1.0000 0.61860  0.39500  0.36600  Biso   1.000  H
  H32      1.0000 0.38140  0.89500  0.13400  Biso   1.000  H
  H33      1.0000 0.45890  0.64060  0.52940  Biso   1.000  H
  H34      1.0000 0.54110  0.14060  0.97060  Biso   1.000  H
  H35      1.0000 0.54110  0.35940  0.47060  Biso   1.000  H
  H36      1.0000 0.45890  0.85940  0.02940  Biso   1.000  H
  H37      1.0000 0.46980  0.55610  0.54370  Biso   1.000  H
  H38      1.0000 0.53020  0.05610  0.95630  Biso   1.000  H
  H39      1.0000 0.53020  0.44390  0.45630  Biso   1.000  H
  H40      1.0000 0.46980  0.94390  0.04370  Biso   1.000  H
  C37      1.0000 0.09420  0.59160  0.38860  Biso   1.000  C
  C38      1.0000 0.90580  0.09160  0.11140  Biso   1.000  C
  C39      1.0000 0.90580  0.40840  0.61140  Biso   1.000  C
  C40      1.0000 0.09420  0.90840  0.88860  Biso   1.000  C
  H41      1.0000 0.12280  0.63880  0.36070  Biso   1.000  H
  H42      1.0000 0.87720  0.13880  0.13930  Biso   1.000  H
  H43      1.0000 0.87720  0.36120  0.63930  Biso   1.000  H
  H44      1.0000 0.12280  0.86120  0.86070  Biso   1.000  H
  H45      1.0000 0.92970  0.57700  0.36490  Biso   1.000  H
  H46      1.0000 0.07030  0.07700  0.13510  Biso   1.000  H
  H47      1.0000 0.07030  0.42300  0.63510  Biso   1.000  H
  H48      1.0000 0.92970  0.92300  0.86490  Biso   1.000  H
  H49      1.0000 0.20520  0.55750  0.36300  Biso   1.000  H
  H50      1.0000 0.79480  0.05750  0.13700  Biso   1.000  H
  H51      1.0000 0.79480  0.44250  0.63700  Biso   1.000  H
  H52      1.0000 0.20520  0.94250  0.86300  Biso   1.000  H
  O1       1.0000 0.96470  0.59250  0.55660  Biso   1.000  O
  O2       1.0000 0.03530  0.09250  0.94340  Biso   1.000  O
  O3       1.0000 0.03530  0.40750  0.44340  Biso   1.000  O
  O4       1.0000 0.96470  0.90750  0.05660  Biso   1.000  O
