data_image0
_cell_length_a       5.6938
_cell_length_b       19.3276
_cell_length_c       12.7453
_cell_angle_alpha    90
_cell_angle_beta     96.839
_cell_angle_gamma    90

_symmetry_space_group_name_H-M    "P 1"
_symmetry_int_tables_number       1

loop_
  _symmetry_equiv_pos_as_xyz
  'x, y, z'

loop_
  _atom_site_label
  _atom_site_occupancy
  _atom_site_fract_x
  _atom_site_fract_y
  _atom_site_fract_z
  _atom_site_thermal_displace_type
  _atom_site_B_iso_or_equiv
  _atom_site_type_symbol
  C1       1.0000 0.12120  0.59480  0.50160  Biso   1.000  C
  C2       1.0000 0.87880  0.09480  0.99840  Biso   1.000  C
  C3       1.0000 0.87880  0.40520  0.49840  Biso   1.000  C
  C4       1.0000 0.12120  0.90520  0.00160  Biso   1.000  C
  O1       1.0000 0.96070  0.59500  0.55260  Biso   1.000  O
  O2       1.0000 0.03930  0.09500  0.94740  Biso   1.000  O
  O3       1.0000 0.03930  0.40500  0.44740  Biso   1.000  O
  O4       1.0000 0.96070  0.90500  0.05260  Biso   1.000  O
  C5       1.0000 0.36550  0.59500  0.55340  Biso   1.000  C
  C6       1.0000 0.63450  0.09500  0.94660  Biso   1.000  C
  C7       1.0000 0.63450  0.40500  0.44660  Biso   1.000  C
  C8       1.0000 0.36550  0.90500  0.05340  Biso   1.000  C
  H1       1.0000 0.36680  0.58260  0.62650  Biso   1.000  H
  H2       1.0000 0.63320  0.08260  0.87350  Biso   1.000  H
  H3       1.0000 0.63320  0.41740  0.37350  Biso   1.000  H
  H4       1.0000 0.36680  0.91740  0.12650  Biso   1.000  H
  H5       1.0000 0.43210  0.64030  0.54850  Biso   1.000  H
  H6       1.0000 0.56790  0.14030  0.95150  Biso   1.000  H
  H7       1.0000 0.56790  0.35970  0.45150  Biso   1.000  H
  H8       1.0000 0.43210  0.85970  0.04850  Biso   1.000  H
  H9       1.0000 0.45750  0.56210  0.51930  Biso   1.000  H
  H10      1.0000 0.54250  0.06210  0.98070  Biso   1.000  H
  H11      1.0000 0.54250  0.43790  0.48070  Biso   1.000  H
  H12      1.0000 0.45750  0.93790  0.01930  Biso   1.000  H
  C9       1.0000 0.08000  0.59630  0.38500  Biso   1.000  C
  C10      1.0000 0.92000  0.09630  0.11500  Biso   1.000  C
  C11      1.0000 0.92000  0.40370  0.61500  Biso   1.000  C
  C12      1.0000 0.08000  0.90370  0.88500  Biso   1.000  C
  H13      1.0000 0.11180  0.64190  0.36040  Biso   1.000  H
  H14      1.0000 0.88820  0.14190  0.13960  Biso   1.000  H
  H15      1.0000 0.88820  0.35810  0.63960  Biso   1.000  H
  H16      1.0000 0.11180  0.85810  0.86040  Biso   1.000  H
  H17      1.0000 0.91850  0.58430  0.36200  Biso   1.000  H
  H18      1.0000 0.08150  0.08430  0.13800  Biso   1.000  H
  H19      1.0000 0.08150  0.41570  0.63800  Biso   1.000  H
  H20      1.0000 0.91850  0.91570  0.86200  Biso   1.000  H
  H21      1.0000 0.18320  0.56370  0.35670  Biso   1.000  H
  H22      1.0000 0.81680  0.06370  0.14330  Biso   1.000  H
  H23      1.0000 0.81680  0.43630  0.64330  Biso   1.000  H
  H24      1.0000 0.18320  0.93630  0.85670  Biso   1.000  H
  C13      1.0000 0.02850  0.62020  0.85190  Biso   1.000  C
  C14      1.0000 0.97150  0.12020  0.64810  Biso   1.000  C
  C15      1.0000 0.97150  0.37980  0.14810  Biso   1.000  C
  C16      1.0000 0.02850  0.87980  0.35190  Biso   1.000  C
  C17      1.0000 0.19040  0.67560  0.82640  Biso   1.000  C
  C18      1.0000 0.80960  0.17560  0.67360  Biso   1.000  C
  C19      1.0000 0.80960  0.32440  0.17360  Biso   1.000  C
  C20      1.0000 0.19040  0.82440  0.32640  Biso   1.000  C
  C21      1.0000 0.40140  0.68640  0.89090  Biso   1.000  C
  C22      1.0000 0.59860  0.18640  0.60910  Biso   1.000  C
  C23      1.0000 0.59860  0.31360  0.10910  Biso   1.000  C
  C24      1.0000 0.40140  0.81360  0.39090  Biso   1.000  C
  H25      1.0000 0.43770  0.65980  0.95140  Biso   1.000  H
  H26      1.0000 0.56230  0.15980  0.54860  Biso   1.000  H
  H27      1.0000 0.56230  0.34020  0.04860  Biso   1.000  H
  H28      1.0000 0.43770  0.84020  0.45140  Biso   1.000  H
  C25      1.0000 0.55710  0.73650  0.86530  Biso   1.000  C
  C26      1.0000 0.44290  0.23650  0.63470  Biso   1.000  C
  C27      1.0000 0.44290  0.26350  0.13470  Biso   1.000  C
  C28      1.0000 0.55710  0.76350  0.36530  Biso   1.000  C
  H29      1.0000 0.69960  0.74350  0.90780  Biso   1.000  H
  H30      1.0000 0.30040  0.24350  0.59220  Biso   1.000  H
  H31      1.0000 0.30040  0.25650  0.09220  Biso   1.000  H
  H32      1.0000 0.69960  0.75650  0.40780  Biso   1.000  H
  C29      1.0000 0.49990  0.77610  0.77660  Biso   1.000  C
  C30      1.0000 0.50010  0.27610  0.72340  Biso   1.000  C
  C31      1.0000 0.50010  0.22390  0.22340  Biso   1.000  C
  C32      1.0000 0.49990  0.72390  0.27660  Biso   1.000  C
  H33      1.0000 0.60620  0.80940  0.75860  Biso   1.000  H
  H34      1.0000 0.39380  0.30940  0.74140  Biso   1.000  H
  H35      1.0000 0.39380  0.19060  0.24140  Biso   1.000  H
  H36      1.0000 0.60620  0.69060  0.25860  Biso   1.000  H
  C33      1.0000 0.29100  0.76760  0.71460  Biso   1.000  C
  C34      1.0000 0.70900  0.26760  0.78540  Biso   1.000  C
  C35      1.0000 0.70900  0.23240  0.28540  Biso   1.000  C
  C36      1.0000 0.29100  0.73240  0.21460  Biso   1.000  C
  H37      1.0000 0.25350  0.79570  0.65570  Biso   1.000  H
  H38      1.0000 0.74650  0.29570  0.84430  Biso   1.000  H
  H39      1.0000 0.74650  0.20430  0.34430  Biso   1.000  H
  H40      1.0000 0.25350  0.70430  0.15570  Biso   1.000  H
  C37      1.0000 0.13440  0.71720  0.73870  Biso   1.000  C
  C38      1.0000 0.86560  0.21720  0.76130  Biso   1.000  C
  C39      1.0000 0.86560  0.28280  0.26130  Biso   1.000  C
  C40      1.0000 0.13440  0.78280  0.23870  Biso   1.000  C
  H41      1.0000 0.99150  0.71130  0.69600  Biso   1.000  H
  H42      1.0000 0.00850  0.21130  0.80400  Biso   1.000  H
  H43      1.0000 0.00850  0.28870  0.30400  Biso   1.000  H
  H44      1.0000 0.99150  0.78870  0.19600  Biso   1.000  H
  Cu1      1.0000 0.74814  0.50841  0.99184  Biso   1.000  Cu
  Cu2      1.0000 0.25186  0.00841  0.50816  Biso   1.000  Cu
  Cu3      1.0000 0.25186  0.49159  0.00816  Biso   1.000  Cu
  Cu4      1.0000 0.74814  0.99159  0.49184  Biso   1.000  Cu
  I1       1.0000 0.44430  0.46883  0.83324  Biso   1.000  I
  I2       1.0000 0.55570  0.96883  0.66676  Biso   1.000  I
  I3       1.0000 0.55570  0.53117  0.16676  Biso   1.000  I
  I4       1.0000 0.44430  0.03117  0.33324  Biso   1.000  I
  N1       1.0000 0.90570  0.58880  0.77340  Biso   1.000  N
  N2       1.0000 0.09430  0.08880  0.72660  Biso   1.000  N
  N3       1.0000 0.09430  0.41120  0.22660  Biso   1.000  N
  N4       1.0000 0.90570  0.91120  0.27340  Biso   1.000  N
  H45      1.0000 0.92070  0.60060  0.70950  Biso   1.000  H
  H46      1.0000 0.07930  0.10060  0.79050  Biso   1.000  H
  H47      1.0000 0.07930  0.39940  0.29050  Biso   1.000  H
  H48      1.0000 0.92070  0.89940  0.20950  Biso   1.000  H
  H49      1.0000 0.80960  0.55620  0.78540  Biso   1.000  H
  H50      1.0000 0.19040  0.05620  0.71460  Biso   1.000  H
  H51      1.0000 0.19040  0.44380  0.21460  Biso   1.000  H
  H52      1.0000 0.80960  0.94380  0.28540  Biso   1.000  H
  S1       1.0000 0.00120  0.59955  0.98003  Biso   1.000  S
  S2       1.0000 0.99880  0.09955  0.51997  Biso   1.000  S
  S3       1.0000 0.99880  0.40045  0.01997  Biso   1.000  S
  S4       1.0000 0.00120  0.90045  0.48003  Biso   1.000  S
