data_image0
_cell_length_a       5.3389
_cell_length_b       16.289
_cell_length_c       12.7887
_cell_angle_alpha    90
_cell_angle_beta     95.618
_cell_angle_gamma    90

_symmetry_space_group_name_H-M    "P 1"
_symmetry_int_tables_number       1

loop_
  _symmetry_equiv_pos_as_xyz
  'x, y, z'

loop_
  _atom_site_label
  _atom_site_occupancy
  _atom_site_fract_x
  _atom_site_fract_y
  _atom_site_fract_z
  _atom_site_thermal_displace_type
  _atom_site_B_iso_or_equiv
  _atom_site_type_symbol
  C1       1.0000 0.62640  0.41206  0.71186  Biso   1.000  C
  C2       1.0000 0.87360  0.91206  0.78814  Biso   1.000  C
  C3       1.0000 0.37360  0.58794  0.28814  Biso   1.000  C
  C4       1.0000 0.12640  0.08794  0.21186  Biso   1.000  C
  C5       1.0000 0.81650  0.40904  0.80435  Biso   1.000  C
  C6       1.0000 0.68350  0.90904  0.69565  Biso   1.000  C
  C7       1.0000 0.18350  0.59096  0.19565  Biso   1.000  C
  C8       1.0000 0.31650  0.09096  0.30435  Biso   1.000  C
  C9       1.0000 0.02170  0.46251  0.81110  Biso   1.000  C
  C10      1.0000 0.47830  0.96251  0.68890  Biso   1.000  C
  C11      1.0000 0.97830  0.53749  0.18890  Biso   1.000  C
  C12      1.0000 0.52170  0.03749  0.31110  Biso   1.000  C
  H1       1.0000 0.03850  0.50170  0.75720  Biso   1.000  H
  H2       1.0000 0.46150  0.00170  0.74280  Biso   1.000  H
  H3       1.0000 0.96150  0.49830  0.24280  Biso   1.000  H
  H4       1.0000 0.53850  0.99830  0.25720  Biso   1.000  H
  C13      1.0000 0.20150  0.45790  0.89720  Biso   1.000  C
  C14      1.0000 0.29850  0.95790  0.60280  Biso   1.000  C
  C15      1.0000 0.79850  0.54210  0.10280  Biso   1.000  C
  C16      1.0000 0.70150  0.04210  0.39720  Biso   1.000  C
  H5       1.0000 0.34300  0.49360  0.90190  Biso   1.000  H
  H6       1.0000 0.15700  0.99360  0.59810  Biso   1.000  H
  H7       1.0000 0.65700  0.50640  0.09810  Biso   1.000  H
  H8       1.0000 0.84300  0.00640  0.40190  Biso   1.000  H
  C17      1.0000 0.17480  0.40149  0.97620  Biso   1.000  C
  C18      1.0000 0.32520  0.90149  0.52380  Biso   1.000  C
  C19      1.0000 0.82520  0.59851  0.02380  Biso   1.000  C
  C20      1.0000 0.67480  0.09851  0.47620  Biso   1.000  C
  H9       1.0000 0.29730  0.39910  0.03520  Biso   1.000  H
  H10      1.0000 0.20270  0.89910  0.46480  Biso   1.000  H
  H11      1.0000 0.70270  0.60090  0.96480  Biso   1.000  H
  H12      1.0000 0.79730  0.10090  0.53520  Biso   1.000  H
  C21      1.0000 0.97220  0.34881  0.97000  Biso   1.000  C
  C22      1.0000 0.52780  0.84881  0.53000  Biso   1.000  C
  C23      1.0000 0.02780  0.65119  0.03000  Biso   1.000  C
  C24      1.0000 0.47220  0.15119  0.47000  Biso   1.000  C
  H13      1.0000 0.95600  0.31010  0.02450  Biso   1.000  H
  H14      1.0000 0.54400  0.81010  0.47550  Biso   1.000  H
  H15      1.0000 0.04400  0.68990  0.97550  Biso   1.000  H
  H16      1.0000 0.45600  0.18990  0.52450  Biso   1.000  H
  C25      1.0000 0.79180  0.35220  0.88440  Biso   1.000  C
  C26      1.0000 0.70820  0.85220  0.61560  Biso   1.000  C
  C27      1.0000 0.20820  0.64780  0.11560  Biso   1.000  C
  C28      1.0000 0.29180  0.14780  0.38440  Biso   1.000  C
  H17      1.0000 0.65180  0.31590  0.88020  Biso   1.000  H
  H18      1.0000 0.84820  0.81590  0.61980  Biso   1.000  H
  H19      1.0000 0.34820  0.68410  0.11980  Biso   1.000  H
  H20      1.0000 0.15180  0.18410  0.38020  Biso   1.000  H
  Cu1      1.0000 0.25276  0.49511  0.51275  Biso   1.000  Cu
  Cu2      1.0000 0.24724  0.99511  0.98725  Biso   1.000  Cu
  Cu3      1.0000 0.74724  0.50489  0.48725  Biso   1.000  Cu
  Cu4      1.0000 0.75276  0.00489  0.01275  Biso   1.000  Cu
  I1       1.0000 0.98293  0.36216  0.47734  Biso   1.000  I
  I2       1.0000 0.51707  0.86216  0.02266  Biso   1.000  I
  I3       1.0000 0.01707  0.63784  0.52266  Biso   1.000  I
  I4       1.0000 0.48293  0.13784  0.97734  Biso   1.000  I
  N1       1.0000 0.52170  0.34356  0.67829  Biso   1.000  N
  N2       1.0000 0.97830  0.84356  0.82171  Biso   1.000  N
  N3       1.0000 0.47830  0.65644  0.32171  Biso   1.000  N
  N4       1.0000 0.02170  0.15644  0.17829  Biso   1.000  N
  H21      1.0000 0.56440  0.29710  0.71040  Biso   1.000  H
  H22      1.0000 0.93560  0.79710  0.78960  Biso   1.000  H
  H23      1.0000 0.43560  0.70290  0.28960  Biso   1.000  H
  H24      1.0000 0.06440  0.20290  0.21040  Biso   1.000  H
  H25      1.0000 0.40830  0.34370  0.62350  Biso   1.000  H
  H26      1.0000 0.09170  0.84370  0.87650  Biso   1.000  H
  H27      1.0000 0.59170  0.65630  0.37650  Biso   1.000  H
  H28      1.0000 0.90830  0.15630  0.12350  Biso   1.000  H
  S1       1.0000 0.55071  0.50427  0.65447  Biso   1.000  S
  S2       1.0000 0.94929  0.00427  0.84553  Biso   1.000  S
  S3       1.0000 0.44929  0.49573  0.34553  Biso   1.000  S
  S4       1.0000 0.05071  0.99573  0.15447  Biso   1.000  S
  C29      1.0000 0.01300  0.19816  0.72100  Biso   1.000  C
  C30      1.0000 0.48700  0.69816  0.77900  Biso   1.000  C
  C31      1.0000 0.98700  0.80184  0.27900  Biso   1.000  C
  C32      1.0000 0.51300  0.30184  0.22100  Biso   1.000  C
  H29      1.0000 0.04570  0.23590  0.66430  Biso   1.000  H
  H30      1.0000 0.45430  0.73590  0.83570  Biso   1.000  H
  H31      1.0000 0.95430  0.76410  0.33570  Biso   1.000  H
  H32      1.0000 0.54570  0.26410  0.16430  Biso   1.000  H
  H33      1.0000 0.08810  0.14460  0.70850  Biso   1.000  H
  H34      1.0000 0.41190  0.64460  0.79150  Biso   1.000  H
  H35      1.0000 0.91190  0.85540  0.29150  Biso   1.000  H
  H36      1.0000 0.58810  0.35540  0.20850  Biso   1.000  H
  H37      1.0000 0.08730  0.22030  0.78830  Biso   1.000  H
  H38      1.0000 0.41270  0.72030  0.71170  Biso   1.000  H
  H39      1.0000 0.91270  0.77970  0.21170  Biso   1.000  H
  H40      1.0000 0.58730  0.27970  0.28830  Biso   1.000  H
  O1       1.0000 0.74810  0.18898  0.72379  Biso   1.000  O
  O2       1.0000 0.75190  0.68898  0.77621  Biso   1.000  O
  O3       1.0000 0.25190  0.81102  0.27621  Biso   1.000  O
  O4       1.0000 0.24810  0.31102  0.22379  Biso   1.000  O
  H41      1.0000 0.72000  0.15840  0.77420  Biso   1.000  H
  H42      1.0000 0.78000  0.65840  0.72580  Biso   1.000  H
  H43      1.0000 0.28000  0.84160  0.22580  Biso   1.000  H
  H44      1.0000 0.22000  0.34160  0.27420  Biso   1.000  H
