data_image0
_cell_length_a       5.889
_cell_length_b       18.263
_cell_length_c       13.131
_cell_angle_alpha    90
_cell_angle_beta     96.23
_cell_angle_gamma    90

_symmetry_space_group_name_H-M    "P 1"
_symmetry_int_tables_number       1

loop_
  _symmetry_equiv_pos_as_xyz
  'x, y, z'

loop_
  _atom_site_label
  _atom_site_occupancy
  _atom_site_fract_x
  _atom_site_fract_y
  _atom_site_fract_z
  _atom_site_thermal_displace_type
  _atom_site_B_iso_or_equiv
  _atom_site_type_symbol
  Cu1      1.0000 0.25021  0.99306  0.01192  Biso   1.000  Cu
  Cu2      1.0000 0.24979  0.49306  0.48808  Biso   1.000  Cu
  Cu3      1.0000 0.74979  0.00694  0.98808  Biso   1.000  Cu
  Cu4      1.0000 0.75021  0.50694  0.51192  Biso   1.000  Cu
  I1       1.0000 0.03051  0.10749  0.07155  Biso   1.000  I
  I2       1.0000 0.46949  0.60749  0.42845  Biso   1.000  I
  I3       1.0000 0.96949  0.89251  0.92845  Biso   1.000  I
  I4       1.0000 0.53051  0.39251  0.57155  Biso   1.000  I
  C1       1.0000 0.41050  0.12350  0.85090  Biso   1.000  C
  C2       1.0000 0.08950  0.62350  0.64910  Biso   1.000  C
  C3       1.0000 0.58950  0.87650  0.14910  Biso   1.000  C
  C4       1.0000 0.91050  0.37650  0.35090  Biso   1.000  C
  C5       1.0000 0.22280  0.15300  0.78090  Biso   1.000  C
  C6       1.0000 0.27720  0.65300  0.71910  Biso   1.000  C
  C7       1.0000 0.77720  0.84700  0.21910  Biso   1.000  C
  C8       1.0000 0.72280  0.34700  0.28090  Biso   1.000  C
  C9       1.0000 0.23630  0.22100  0.73750  Biso   1.000  C
  C10      1.0000 0.26370  0.72100  0.76250  Biso   1.000  C
  C11      1.0000 0.76370  0.77900  0.26250  Biso   1.000  C
  C12      1.0000 0.73630  0.27900  0.23750  Biso   1.000  C
  H1       1.0000 0.36800  0.24890  0.75210  Biso   1.000  H
  H2       1.0000 0.13200  0.74890  0.74790  Biso   1.000  H
  H3       1.0000 0.63200  0.75110  0.24790  Biso   1.000  H
  H4       1.0000 0.86800  0.25110  0.25210  Biso   1.000  H
  C13      1.0000 0.05990  0.24790  0.67390  Biso   1.000  C
  C14      1.0000 0.44010  0.74790  0.82610  Biso   1.000  C
  C15      1.0000 0.94010  0.75210  0.32610  Biso   1.000  C
  C16      1.0000 0.55990  0.25210  0.17390  Biso   1.000  C
  H5       1.0000 0.07120  0.29430  0.64570  Biso   1.000  H
  H6       1.0000 0.42880  0.79430  0.85430  Biso   1.000  H
  H7       1.0000 0.92880  0.70570  0.35430  Biso   1.000  H
  H8       1.0000 0.57120  0.20570  0.14570  Biso   1.000  H
  C17      1.0000 0.86360  0.20750  0.65010  Biso   1.000  C
  C18      1.0000 0.63640  0.70750  0.84990  Biso   1.000  C
  C19      1.0000 0.13640  0.79250  0.34990  Biso   1.000  C
  C20      1.0000 0.36360  0.29250  0.15010  Biso   1.000  C
  H9       1.0000 0.74340  0.22610  0.60580  Biso   1.000  H
  H10      1.0000 0.75660  0.72610  0.89420  Biso   1.000  H
  H11      1.0000 0.25660  0.77390  0.39420  Biso   1.000  H
  H12      1.0000 0.24340  0.27390  0.10580  Biso   1.000  H
  C21      1.0000 0.84840  0.13890  0.69330  Biso   1.000  C
  C22      1.0000 0.65160  0.63890  0.80670  Biso   1.000  C
  C23      1.0000 0.15160  0.86110  0.30670  Biso   1.000  C
  C24      1.0000 0.34840  0.36110  0.19330  Biso   1.000  C
  H13      1.0000 0.71610  0.11130  0.67910  Biso   1.000  H
  H14      1.0000 0.78390  0.61130  0.82090  Biso   1.000  H
  H15      1.0000 0.28390  0.88870  0.32090  Biso   1.000  H
  H16      1.0000 0.21610  0.38870  0.17910  Biso   1.000  H
  C25      1.0000 0.02770  0.11150  0.75680  Biso   1.000  C
  C26      1.0000 0.47230  0.61150  0.74320  Biso   1.000  C
  C27      1.0000 0.97230  0.88850  0.24320  Biso   1.000  C
  C28      1.0000 0.52770  0.38850  0.25680  Biso   1.000  C
  H17      1.0000 0.01850  0.06470  0.78400  Biso   1.000  H
  H18      1.0000 0.48150  0.56470  0.71600  Biso   1.000  H
  H19      1.0000 0.98150  0.93530  0.21600  Biso   1.000  H
  H20      1.0000 0.51850  0.43530  0.28400  Biso   1.000  H
  N1       1.0000 0.54480  0.17040  0.90270  Biso   1.000  N
  N2       1.0000 0.95520  0.67040  0.59730  Biso   1.000  N
  N3       1.0000 0.45520  0.82960  0.09730  Biso   1.000  N
  N4       1.0000 0.04480  0.32960  0.40270  Biso   1.000  N
  H21      1.0000 0.52100  0.21660  0.89490  Biso   1.000  H
  H22      1.0000 0.97900  0.71660  0.60510  Biso   1.000  H
  H23      1.0000 0.47900  0.78340  0.10510  Biso   1.000  H
  H24      1.0000 0.02100  0.28340  0.39490  Biso   1.000  H
  H25      1.0000 0.65710  0.15510  0.94460  Biso   1.000  H
  H26      1.0000 0.84290  0.65510  0.55540  Biso   1.000  H
  H27      1.0000 0.34290  0.84490  0.05540  Biso   1.000  H
  H28      1.0000 0.15710  0.34490  0.44460  Biso   1.000  H
  S1       1.0000 0.45900  0.03209  0.86203  Biso   1.000  S
  S2       1.0000 0.04100  0.53209  0.63797  Biso   1.000  S
  S3       1.0000 0.54100  0.96791  0.13797  Biso   1.000  S
  S4       1.0000 0.95900  0.46791  0.36203  Biso   1.000  S
  O1       1.0000 0.61110  0.32140  0.89620  Biso   1.000  O
  O2       1.0000 0.88890  0.82140  0.60380  Biso   1.000  O
  O3       1.0000 0.38890  0.67860  0.10380  Biso   1.000  O
  O4       1.0000 0.11110  0.17860  0.39620  Biso   1.000  O
  C29      1.0000 0.50500  0.38720  0.88840  Biso   1.000  C
  C30      1.0000 0.99500  0.88720  0.61160  Biso   1.000  C
  C31      1.0000 0.49500  0.61280  0.11160  Biso   1.000  C
  C32      1.0000 0.00500  0.11280  0.38840  Biso   1.000  C
  H29      1.0000 0.40730  0.39390  0.94250  Biso   1.000  H
  H30      1.0000 0.09270  0.89390  0.55750  Biso   1.000  H
  H31      1.0000 0.59270  0.60610  0.05750  Biso   1.000  H
  H32      1.0000 0.90730  0.10610  0.44250  Biso   1.000  H
  H33      1.0000 0.41520  0.39270  0.82260  Biso   1.000  H
  H34      1.0000 0.08480  0.89270  0.67740  Biso   1.000  H
  H35      1.0000 0.58480  0.60730  0.17740  Biso   1.000  H
  H36      1.0000 0.91520  0.10730  0.32260  Biso   1.000  H
  C33      1.0000 0.69600  0.43910  0.89920  Biso   1.000  C
  C34      1.0000 0.80400  0.93910  0.60080  Biso   1.000  C
  C35      1.0000 0.30400  0.56090  0.10080  Biso   1.000  C
  C36      1.0000 0.19600  0.06090  0.39920  Biso   1.000  C
  H37      1.0000 0.69560  0.46860  0.83780  Biso   1.000  H
  H38      1.0000 0.80440  0.96860  0.66220  Biso   1.000  H
  H39      1.0000 0.30440  0.53140  0.16220  Biso   1.000  H
  H40      1.0000 0.19560  0.03140  0.33780  Biso   1.000  H
  H41      1.0000 0.68360  0.47140  0.95690  Biso   1.000  H
  H42      1.0000 0.81640  0.97140  0.54310  Biso   1.000  H
  H43      1.0000 0.31640  0.52860  0.04310  Biso   1.000  H
  H44      1.0000 0.18360  0.02860  0.45690  Biso   1.000  H
  C37      1.0000 0.84200  0.32830  0.91380  Biso   1.000  C
  C38      1.0000 0.65800  0.82830  0.58620  Biso   1.000  C
  C39      1.0000 0.15800  0.67170  0.08620  Biso   1.000  C
  C40      1.0000 0.34200  0.17170  0.41380  Biso   1.000  C
  H45      1.0000 0.89630  0.30620  0.97920  Biso   1.000  H
  H46      1.0000 0.60370  0.80620  0.52080  Biso   1.000  H
  H47      1.0000 0.10370  0.69380  0.02080  Biso   1.000  H
  H48      1.0000 0.39630  0.19380  0.47920  Biso   1.000  H
  H49      1.0000 0.91380  0.30330  0.86060  Biso   1.000  H
  H50      1.0000 0.58620  0.80330  0.63940  Biso   1.000  H
  H51      1.0000 0.08620  0.69670  0.13940  Biso   1.000  H
  H52      1.0000 0.41380  0.19670  0.36060  Biso   1.000  H
  C41      1.0000 0.89500  0.39890  0.91500  Biso   1.000  C
  C42      1.0000 0.60500  0.89890  0.58500  Biso   1.000  C
  C43      1.0000 0.10500  0.60110  0.08500  Biso   1.000  C
  C44      1.0000 0.39500  0.10110  0.41500  Biso   1.000  C
  H53      1.0000 0.99080  0.40930  0.86090  Biso   1.000  H
  H54      1.0000 0.50920  0.90930  0.63910  Biso   1.000  H
  H55      1.0000 0.00920  0.59070  0.13910  Biso   1.000  H
  H56      1.0000 0.49080  0.09070  0.36090  Biso   1.000  H
  H57      1.0000 0.97820  0.41190  0.97990  Biso   1.000  H
  H58      1.0000 0.52180  0.91190  0.52010  Biso   1.000  H
  H59      1.0000 0.02180  0.58810  0.02010  Biso   1.000  H
  H60      1.0000 0.47820  0.08810  0.47990  Biso   1.000  H
