data_image0
_cell_length_a       5.8404
_cell_length_b       18.3883
_cell_length_c       12.5344
_cell_angle_alpha    90
_cell_angle_beta     94.598
_cell_angle_gamma    90

_symmetry_space_group_name_H-M    "P 1"
_symmetry_int_tables_number       1

loop_
  _symmetry_equiv_pos_as_xyz
  'x, y, z'

loop_
  _atom_site_label
  _atom_site_occupancy
  _atom_site_fract_x
  _atom_site_fract_y
  _atom_site_fract_z
  _atom_site_thermal_displace_type
  _atom_site_B_iso_or_equiv
  _atom_site_type_symbol
  Cu1      1.0000 0.24954  0.99304  0.01033  Biso   1.000  Cu
  Cu2      1.0000 0.25046  0.49304  0.48967  Biso   1.000  Cu
  Cu3      1.0000 0.75046  0.00696  0.98967  Biso   1.000  Cu
  Cu4      1.0000 0.74954  0.50696  0.51033  Biso   1.000  Cu
  I1       1.0000 0.03036  0.10773  0.07454  Biso   1.000  I
  I2       1.0000 0.46964  0.60773  0.42546  Biso   1.000  I
  I3       1.0000 0.96964  0.89227  0.92546  Biso   1.000  I
  I4       1.0000 0.53036  0.39227  0.57454  Biso   1.000  I
  C1       1.0000 0.41510  0.12300  0.84690  Biso   1.000  C
  C2       1.0000 0.08490  0.62300  0.65310  Biso   1.000  C
  C3       1.0000 0.58490  0.87700  0.15310  Biso   1.000  C
  C4       1.0000 0.91510  0.37700  0.34690  Biso   1.000  C
  C5       1.0000 0.22630  0.15220  0.77450  Biso   1.000  C
  C6       1.0000 0.27370  0.65220  0.72550  Biso   1.000  C
  C7       1.0000 0.77370  0.84780  0.22550  Biso   1.000  C
  C8       1.0000 0.72630  0.34780  0.27450  Biso   1.000  C
  C9       1.0000 0.24180  0.22170  0.73110  Biso   1.000  C
  C10      1.0000 0.25820  0.72170  0.76890  Biso   1.000  C
  C11      1.0000 0.75820  0.77830  0.26890  Biso   1.000  C
  C12      1.0000 0.74180  0.27830  0.23110  Biso   1.000  C
  H1       1.0000 0.37670  0.25000  0.74610  Biso   1.000  H
  H2       1.0000 0.12330  0.75000  0.75390  Biso   1.000  H
  H3       1.0000 0.62330  0.75000  0.25390  Biso   1.000  H
  H4       1.0000 0.87670  0.25000  0.24610  Biso   1.000  H
  C13      1.0000 0.06070  0.24930  0.66630  Biso   1.000  C
  C14      1.0000 0.43930  0.74930  0.83370  Biso   1.000  C
  C15      1.0000 0.93930  0.75070  0.33370  Biso   1.000  C
  C16      1.0000 0.56070  0.25070  0.16630  Biso   1.000  C
  H5       1.0000 0.07090  0.29690  0.63770  Biso   1.000  H
  H6       1.0000 0.42910  0.79690  0.86230  Biso   1.000  H
  H7       1.0000 0.92910  0.70310  0.36230  Biso   1.000  H
  H8       1.0000 0.57090  0.20310  0.13770  Biso   1.000  H
  C17      1.0000 0.86260  0.20830  0.64200  Biso   1.000  C
  C18      1.0000 0.63740  0.70830  0.85800  Biso   1.000  C
  C19      1.0000 0.13740  0.79170  0.35800  Biso   1.000  C
  C20      1.0000 0.36260  0.29170  0.14200  Biso   1.000  C
  H9       1.0000 0.73910  0.22750  0.59660  Biso   1.000  H
  H10      1.0000 0.76090  0.72750  0.90340  Biso   1.000  H
  H11      1.0000 0.26090  0.77250  0.40340  Biso   1.000  H
  H12      1.0000 0.23910  0.27250  0.09660  Biso   1.000  H
  C21      1.0000 0.84830  0.13950  0.68460  Biso   1.000  C
  C22      1.0000 0.65170  0.63950  0.81540  Biso   1.000  C
  C23      1.0000 0.15170  0.86050  0.31540  Biso   1.000  C
  C24      1.0000 0.34830  0.36050  0.18460  Biso   1.000  C
  H13      1.0000 0.71260  0.11160  0.66970  Biso   1.000  H
  H14      1.0000 0.78740  0.61160  0.83030  Biso   1.000  H
  H15      1.0000 0.28740  0.88840  0.33030  Biso   1.000  H
  H16      1.0000 0.21260  0.38840  0.16970  Biso   1.000  H
  C25      1.0000 0.03090  0.11040  0.74950  Biso   1.000  C
  C26      1.0000 0.46910  0.61040  0.75050  Biso   1.000  C
  C27      1.0000 0.96910  0.88960  0.25050  Biso   1.000  C
  C28      1.0000 0.53090  0.38960  0.24950  Biso   1.000  C
  H17      1.0000 0.02180  0.06230  0.77640  Biso   1.000  H
  H18      1.0000 0.47820  0.56230  0.72360  Biso   1.000  H
  H19      1.0000 0.97820  0.93770  0.22360  Biso   1.000  H
  H20      1.0000 0.52180  0.43770  0.27640  Biso   1.000  H
  N1       1.0000 0.54860  0.17010  0.90200  Biso   1.000  N
  N2       1.0000 0.95140  0.67010  0.59800  Biso   1.000  N
  N3       1.0000 0.45140  0.82990  0.09800  Biso   1.000  N
  N4       1.0000 0.04860  0.32990  0.40200  Biso   1.000  N
  H21      1.0000 0.52300  0.21710  0.89460  Biso   1.000  H
  H22      1.0000 0.97700  0.71710  0.60540  Biso   1.000  H
  H23      1.0000 0.47700  0.78290  0.10540  Biso   1.000  H
  H24      1.0000 0.02300  0.28290  0.39460  Biso   1.000  H
  H25      1.0000 0.66310  0.15450  0.94600  Biso   1.000  H
  H26      1.0000 0.83690  0.65450  0.55400  Biso   1.000  H
  H27      1.0000 0.33690  0.84550  0.05400  Biso   1.000  H
  H28      1.0000 0.16310  0.34550  0.44600  Biso   1.000  H
  S1       1.0000 0.46430  0.03142  0.85705  Biso   1.000  S
  S2       1.0000 0.03570  0.53142  0.64295  Biso   1.000  S
  S3       1.0000 0.53570  0.96858  0.14295  Biso   1.000  S
  S4       1.0000 0.96430  0.46858  0.35705  Biso   1.000  S
  O1       1.0000 0.60350  0.31970  0.89050  Biso   1.000  O
  O2       1.0000 0.89650  0.81970  0.60950  Biso   1.000  O
  O3       1.0000 0.39650  0.68030  0.10950  Biso   1.000  O
  O4       1.0000 0.10350  0.18030  0.39050  Biso   1.000  O
  C29      1.0000 0.47910  0.38740  0.88800  Biso   1.000  C
  C30      1.0000 0.02090  0.88740  0.61200  Biso   1.000  C
  C31      1.0000 0.52090  0.61260  0.11200  Biso   1.000  C
  C32      1.0000 0.97910  0.11260  0.38800  Biso   1.000  C
  H29      1.0000 0.38320  0.39080  0.94940  Biso   1.000  H
  H30      1.0000 0.11680  0.89080  0.55060  Biso   1.000  H
  H31      1.0000 0.61680  0.60920  0.05060  Biso   1.000  H
  H32      1.0000 0.88320  0.10920  0.44940  Biso   1.000  H
  H33      1.0000 0.37880  0.39190  0.82080  Biso   1.000  H
  H34      1.0000 0.12120  0.89190  0.67920  Biso   1.000  H
  H35      1.0000 0.62120  0.60810  0.17920  Biso   1.000  H
  H36      1.0000 0.87880  0.10810  0.32080  Biso   1.000  H
  C33      1.0000 0.66360  0.44610  0.89450  Biso   1.000  C
  C34      1.0000 0.83640  0.94610  0.60550  Biso   1.000  C
  C35      1.0000 0.33640  0.55390  0.10550  Biso   1.000  C
  C36      1.0000 0.16360  0.05390  0.39450  Biso   1.000  C
  H37      1.0000 0.71850  0.45650  0.82340  Biso   1.000  H
  H38      1.0000 0.78150  0.95650  0.67660  Biso   1.000  H
  H39      1.0000 0.28150  0.54350  0.17660  Biso   1.000  H
  H40      1.0000 0.21850  0.04350  0.32340  Biso   1.000  H
  H41      1.0000 0.60780  0.49170  0.92560  Biso   1.000  H
  H42      1.0000 0.89220  0.99170  0.57440  Biso   1.000  H
  H43      1.0000 0.39220  0.50830  0.07440  Biso   1.000  H
  H44      1.0000 0.10780  0.00830  0.42560  Biso   1.000  H
  C37      1.0000 0.83960  0.33150  0.93030  Biso   1.000  C
  C38      1.0000 0.66040  0.83150  0.56970  Biso   1.000  C
  C39      1.0000 0.16040  0.66850  0.06970  Biso   1.000  C
  C40      1.0000 0.33960  0.16850  0.43030  Biso   1.000  C
  H45      1.0000 0.94400  0.32380  0.87290  Biso   1.000  H
  H46      1.0000 0.55600  0.82380  0.62710  Biso   1.000  H
  H47      1.0000 0.05600  0.67620  0.12710  Biso   1.000  H
  H48      1.0000 0.44400  0.17620  0.37290  Biso   1.000  H
  H49      1.0000 0.88420  0.29800  0.99020  Biso   1.000  H
  H50      1.0000 0.61580  0.79800  0.50980  Biso   1.000  H
  H51      1.0000 0.11580  0.70200  0.00980  Biso   1.000  H
  H52      1.0000 0.38420  0.20200  0.49020  Biso   1.000  H
  C41      1.0000 0.84880  0.41040  0.96840  Biso   1.000  C
  C42      1.0000 0.65120  0.91040  0.53160  Biso   1.000  C
  C43      1.0000 0.15120  0.58960  0.03160  Biso   1.000  C
  C44      1.0000 0.34880  0.08960  0.46840  Biso   1.000  C
  H53      1.0000 0.81370  0.41430  0.04410  Biso   1.000  H
  H54      1.0000 0.68630  0.91430  0.45590  Biso   1.000  H
  H55      1.0000 0.18630  0.58570  0.95590  Biso   1.000  H
  H56      1.0000 0.31370  0.08570  0.54410  Biso   1.000  H
  H57      1.0000 0.00120  0.43230  0.96010  Biso   1.000  H
  H58      1.0000 0.49880  0.93230  0.53990  Biso   1.000  H
  H59      1.0000 0.99880  0.56770  0.03990  Biso   1.000  H
  H60      1.0000 0.50120  0.06770  0.46010  Biso   1.000  H
