data_image0
_cell_length_a       5.4019
_cell_length_b       16.2402
_cell_length_c       13.071
_cell_angle_alpha    90
_cell_angle_beta     96.352
_cell_angle_gamma    90

_symmetry_space_group_name_H-M    "P 1"
_symmetry_int_tables_number       1

loop_
  _symmetry_equiv_pos_as_xyz
  'x, y, z'

loop_
  _atom_site_label
  _atom_site_occupancy
  _atom_site_fract_x
  _atom_site_fract_y
  _atom_site_fract_z
  _atom_site_thermal_displace_type
  _atom_site_B_iso_or_equiv
  _atom_site_type_symbol
  C1       1.0000 0.62950  0.41150  0.70800  Biso   1.000  C
  C2       1.0000 0.87050  0.91150  0.79200  Biso   1.000  C
  C3       1.0000 0.37050  0.58850  0.29200  Biso   1.000  C
  C4       1.0000 0.12950  0.08850  0.20800  Biso   1.000  C
  C5       1.0000 0.81680  0.40900  0.79910  Biso   1.000  C
  C6       1.0000 0.68320  0.90900  0.70090  Biso   1.000  C
  C7       1.0000 0.18320  0.59100  0.20090  Biso   1.000  C
  C8       1.0000 0.31680  0.09100  0.29910  Biso   1.000  C
  C9       1.0000 0.01960  0.46220  0.80620  Biso   1.000  C
  C10      1.0000 0.48040  0.96220  0.69380  Biso   1.000  C
  C11      1.0000 0.98040  0.53780  0.19380  Biso   1.000  C
  C12      1.0000 0.51960  0.03780  0.30620  Biso   1.000  C
  H1       1.0000 0.03610  0.50040  0.75440  Biso   1.000  H
  H2       1.0000 0.46390  0.00040  0.74560  Biso   1.000  H
  H3       1.0000 0.96390  0.49960  0.24560  Biso   1.000  H
  H4       1.0000 0.53610  0.99960  0.25440  Biso   1.000  H
  C13      1.0000 0.19640  0.45770  0.89070  Biso   1.000  C
  C14      1.0000 0.30360  0.95770  0.60930  Biso   1.000  C
  C15      1.0000 0.80360  0.54230  0.10930  Biso   1.000  C
  C16      1.0000 0.69640  0.04230  0.39070  Biso   1.000  C
  H5       1.0000 0.33450  0.49220  0.89490  Biso   1.000  H
  H6       1.0000 0.16550  0.99220  0.60510  Biso   1.000  H
  H7       1.0000 0.66550  0.50780  0.10510  Biso   1.000  H
  H8       1.0000 0.83450  0.00780  0.39490  Biso   1.000  H
  C17      1.0000 0.17090  0.40320  0.96830  Biso   1.000  C
  C18      1.0000 0.32910  0.90320  0.53170  Biso   1.000  C
  C19      1.0000 0.82910  0.59680  0.03170  Biso   1.000  C
  C20      1.0000 0.67090  0.09680  0.46830  Biso   1.000  C
  H9       1.0000 0.28970  0.40160  0.02550  Biso   1.000  H
  H10      1.0000 0.21030  0.90160  0.47450  Biso   1.000  H
  H11      1.0000 0.71030  0.59840  0.97450  Biso   1.000  H
  H12      1.0000 0.78970  0.09840  0.52550  Biso   1.000  H
  C21      1.0000 0.97200  0.35090  0.96250  Biso   1.000  C
  C22      1.0000 0.52800  0.85090  0.53750  Biso   1.000  C
  C23      1.0000 0.02800  0.64910  0.03750  Biso   1.000  C
  C24      1.0000 0.47200  0.14910  0.46250  Biso   1.000  C
  H13      1.0000 0.95600  0.31380  0.01550  Biso   1.000  H
  H14      1.0000 0.54400  0.81380  0.48450  Biso   1.000  H
  H15      1.0000 0.04400  0.68620  0.98450  Biso   1.000  H
  H16      1.0000 0.45600  0.18620  0.51550  Biso   1.000  H
  C25      1.0000 0.79510  0.35290  0.87820  Biso   1.000  C
  C26      1.0000 0.70490  0.85290  0.62180  Biso   1.000  C
  C27      1.0000 0.20490  0.64710  0.12180  Biso   1.000  C
  C28      1.0000 0.29510  0.14710  0.37820  Biso   1.000  C
  H17      1.0000 0.66090  0.31680  0.87400  Biso   1.000  H
  H18      1.0000 0.83910  0.81680  0.62600  Biso   1.000  H
  H19      1.0000 0.33910  0.68320  0.12600  Biso   1.000  H
  H20      1.0000 0.16090  0.18320  0.37400  Biso   1.000  H
  Cu1      1.0000 0.25214  0.49488  0.51330  Biso   1.000  Cu
  Cu2      1.0000 0.24786  0.99488  0.98670  Biso   1.000  Cu
  Cu3      1.0000 0.74786  0.50512  0.48670  Biso   1.000  Cu
  Cu4      1.0000 0.75214  0.00512  0.01330  Biso   1.000  Cu
  I1       1.0000 0.98370  0.36209  0.47758  Biso   1.000  I
  I2       1.0000 0.51630  0.86209  0.02242  Biso   1.000  I
  I3       1.0000 0.01630  0.63791  0.52242  Biso   1.000  I
  I4       1.0000 0.48370  0.13791  0.97758  Biso   1.000  I
  N1       1.0000 0.52610  0.34274  0.67500  Biso   1.000  N
  N2       1.0000 0.97390  0.84274  0.82500  Biso   1.000  N
  N3       1.0000 0.47390  0.65726  0.32500  Biso   1.000  N
  N4       1.0000 0.02610  0.15726  0.17500  Biso   1.000  N
  H21      1.0000 0.56740  0.29730  0.70620  Biso   1.000  H
  H22      1.0000 0.93260  0.79730  0.79380  Biso   1.000  H
  H23      1.0000 0.43260  0.70270  0.29380  Biso   1.000  H
  H24      1.0000 0.06740  0.20270  0.20620  Biso   1.000  H
  H25      1.0000 0.41640  0.34270  0.62200  Biso   1.000  H
  H26      1.0000 0.08360  0.84270  0.87800  Biso   1.000  H
  H27      1.0000 0.58360  0.65730  0.37800  Biso   1.000  H
  H28      1.0000 0.91640  0.15730  0.12200  Biso   1.000  H
  S1       1.0000 0.55203  0.50375  0.65150  Biso   1.000  S
  S2       1.0000 0.94797  0.00375  0.84850  Biso   1.000  S
  S3       1.0000 0.44797  0.49625  0.34850  Biso   1.000  S
  S4       1.0000 0.05203  0.99625  0.15150  Biso   1.000  S
  C29      1.0000 0.01760  0.19610  0.71690  Biso   1.000  C
  C30      1.0000 0.48240  0.69610  0.78310  Biso   1.000  C
  C31      1.0000 0.98240  0.80390  0.28310  Biso   1.000  C
  C32      1.0000 0.51760  0.30390  0.21690  Biso   1.000  C
  H29      1.0000 0.04640  0.23570  0.66500  Biso   1.000  H
  H30      1.0000 0.45360  0.73570  0.83500  Biso   1.000  H
  H31      1.0000 0.95360  0.76430  0.33500  Biso   1.000  H
  H32      1.0000 0.54640  0.26430  0.16500  Biso   1.000  H
  H33      1.0000 0.08730  0.14400  0.70040  Biso   1.000  H
  H34      1.0000 0.41270  0.64400  0.79960  Biso   1.000  H
  H35      1.0000 0.91270  0.85600  0.29960  Biso   1.000  H
  H36      1.0000 0.58730  0.35600  0.20040  Biso   1.000  H
  H37      1.0000 0.09520  0.21450  0.78250  Biso   1.000  H
  H38      1.0000 0.40480  0.71450  0.71750  Biso   1.000  H
  H39      1.0000 0.90480  0.78550  0.21750  Biso   1.000  H
  H40      1.0000 0.59520  0.28550  0.28250  Biso   1.000  H
  O1       1.0000 0.75780  0.18722  0.72100  Biso   1.000  O
  O2       1.0000 0.74220  0.68722  0.77900  Biso   1.000  O
  O3       1.0000 0.24220  0.81278  0.27900  Biso   1.000  O
  O4       1.0000 0.25780  0.31278  0.22100  Biso   1.000  O
  H41      1.0000 0.73330  0.16400  0.77470  Biso   1.000  H
  H42      1.0000 0.76670  0.66400  0.72530  Biso   1.000  H
  H43      1.0000 0.26670  0.83600  0.22530  Biso   1.000  H
  H44      1.0000 0.23330  0.33600  0.27470  Biso   1.000  H
