data_image0
_cell_length_a       12.4652
_cell_length_b       8.4163
_cell_length_c       20.241
_cell_angle_alpha    90
_cell_angle_beta     101.066
_cell_angle_gamma    90

_symmetry_space_group_name_H-M    "P 1"
_symmetry_int_tables_number       1

loop_
  _symmetry_equiv_pos_as_xyz
  'x, y, z'

loop_
  _atom_site_label
  _atom_site_occupancy
  _atom_site_fract_x
  _atom_site_fract_y
  _atom_site_fract_z
  _atom_site_thermal_displace_type
  _atom_site_B_iso_or_equiv
  _atom_site_type_symbol
  C1       1.0000 0.54640  0.58510  0.30590  Biso   1.000  C
  C2       1.0000 0.95360  0.08510  0.19410  Biso   1.000  C
  C3       1.0000 0.45360  0.41490  0.69410  Biso   1.000  C
  C4       1.0000 0.04640  0.91490  0.80590  Biso   1.000  C
  C5       1.0000 0.43180  0.63740  0.28910  Biso   1.000  C
  C6       1.0000 0.06820  0.13740  0.21090  Biso   1.000  C
  C7       1.0000 0.56820  0.36260  0.71090  Biso   1.000  C
  C8       1.0000 0.93180  0.86260  0.78910  Biso   1.000  C
  C9       1.0000 0.36400  0.61340  0.33470  Biso   1.000  C
  C10      1.0000 0.13600  0.11340  0.16530  Biso   1.000  C
  C11      1.0000 0.63600  0.38660  0.66530  Biso   1.000  C
  C12      1.0000 0.86400  0.88660  0.83470  Biso   1.000  C
  H1       1.0000 0.39130  0.56660  0.37620  Biso   1.000  H
  H2       1.0000 0.10870  0.06660  0.12380  Biso   1.000  H
  H3       1.0000 0.60870  0.43340  0.62380  Biso   1.000  H
  H4       1.0000 0.89130  0.93340  0.87620  Biso   1.000  H
  C13      1.0000 0.25530  0.65890  0.31890  Biso   1.000  C
  C14      1.0000 0.24470  0.15890  0.18110  Biso   1.000  C
  C15      1.0000 0.74470  0.34110  0.68110  Biso   1.000  C
  C16      1.0000 0.75530  0.84110  0.81890  Biso   1.000  C
  H5       1.0000 0.20990  0.64120  0.34960  Biso   1.000  H
  H6       1.0000 0.29010  0.14120  0.15040  Biso   1.000  H
  H7       1.0000 0.79010  0.35880  0.65040  Biso   1.000  H
  H8       1.0000 0.70990  0.85880  0.84960  Biso   1.000  H
  C17      1.0000 0.21440  0.72910  0.25890  Biso   1.000  C
  C18      1.0000 0.28560  0.22910  0.24110  Biso   1.000  C
  C19      1.0000 0.78560  0.27090  0.74110  Biso   1.000  C
  C20      1.0000 0.71440  0.77090  0.75890  Biso   1.000  C
  H9       1.0000 0.14150  0.76000  0.24880  Biso   1.000  H
  H10      1.0000 0.35850  0.26000  0.25120  Biso   1.000  H
  H11      1.0000 0.85850  0.24000  0.75120  Biso   1.000  H
  H12      1.0000 0.64150  0.74000  0.74880  Biso   1.000  H
  C21      1.0000 0.28070  0.75420  0.21360  Biso   1.000  C
  C22      1.0000 0.21930  0.25420  0.28640  Biso   1.000  C
  C23      1.0000 0.71930  0.24580  0.78640  Biso   1.000  C
  C24      1.0000 0.78070  0.74580  0.71360  Biso   1.000  C
  H13      1.0000 0.25240  0.80100  0.17230  Biso   1.000  H
  H14      1.0000 0.24760  0.30100  0.32770  Biso   1.000  H
  H15      1.0000 0.74760  0.19900  0.82770  Biso   1.000  H
  H16      1.0000 0.75240  0.69900  0.67230  Biso   1.000  H
  C25      1.0000 0.39030  0.71040  0.22870  Biso   1.000  C
  C26      1.0000 0.10970  0.21040  0.27130  Biso   1.000  C
  C27      1.0000 0.60970  0.28960  0.77130  Biso   1.000  C
  C28      1.0000 0.89030  0.78960  0.72870  Biso   1.000  C
  H17      1.0000 0.43550  0.73030  0.19800  Biso   1.000  H
  H18      1.0000 0.06450  0.23030  0.30200  Biso   1.000  H
  H19      1.0000 0.56450  0.26970  0.80200  Biso   1.000  H
  H20      1.0000 0.93550  0.76970  0.69800  Biso   1.000  H
  C29      1.0000 0.73760  0.07760  0.39540  Biso   1.000  C
  C30      1.0000 0.76240  0.57760  0.10460  Biso   1.000  C
  C31      1.0000 0.26240  0.92240  0.60460  Biso   1.000  C
  C32      1.0000 0.23760  0.42240  0.89540  Biso   1.000  C
  C33      1.0000 0.62910  0.11060  0.41150  Biso   1.000  C
  C34      1.0000 0.87090  0.61060  0.08850  Biso   1.000  C
  C35      1.0000 0.37090  0.88940  0.58850  Biso   1.000  C
  C36      1.0000 0.12910  0.38940  0.91150  Biso   1.000  C
  C37      1.0000 0.53830  0.02730  0.37790  Biso   1.000  C
  C38      1.0000 0.96170  0.52730  0.12210  Biso   1.000  C
  C39      1.0000 0.46170  0.97270  0.62210  Biso   1.000  C
  C40      1.0000 0.03830  0.47270  0.87790  Biso   1.000  C
  H21      1.0000 0.54580  0.95350  0.34490  Biso   1.000  H
  H22      1.0000 0.95420  0.45350  0.15510  Biso   1.000  H
  H23      1.0000 0.45420  0.04650  0.65510  Biso   1.000  H
  H24      1.0000 0.04580  0.54650  0.84490  Biso   1.000  H
  C41      1.0000 0.43710  0.05470  0.39380  Biso   1.000  C
  C42      1.0000 0.06290  0.55470  0.10620  Biso   1.000  C
  C43      1.0000 0.56290  0.94530  0.60620  Biso   1.000  C
  C44      1.0000 0.93710  0.44530  0.89380  Biso   1.000  C
  H25      1.0000 0.37610  0.00160  0.37030  Biso   1.000  H
  H26      1.0000 0.12390  0.50160  0.12970  Biso   1.000  H
  H27      1.0000 0.62390  0.99840  0.62970  Biso   1.000  H
  H28      1.0000 0.87610  0.49840  0.87030  Biso   1.000  H
  C45      1.0000 0.42570  0.15860  0.44340  Biso   1.000  C
  C46      1.0000 0.07430  0.65860  0.05660  Biso   1.000  C
  C47      1.0000 0.57430  0.84140  0.55660  Biso   1.000  C
  C48      1.0000 0.92570  0.34140  0.94340  Biso   1.000  C
  H29      1.0000 0.35790  0.17390  0.45510  Biso   1.000  H
  H30      1.0000 0.14210  0.67390  0.04490  Biso   1.000  H
  H31      1.0000 0.64210  0.82610  0.54490  Biso   1.000  H
  H32      1.0000 0.85790  0.32610  0.95510  Biso   1.000  H
  C49      1.0000 0.51550  0.24060  0.47600  Biso   1.000  C
  C50      1.0000 0.98450  0.74060  0.02400  Biso   1.000  C
  C51      1.0000 0.48450  0.75940  0.52400  Biso   1.000  C
  C52      1.0000 0.01550  0.25940  0.97600  Biso   1.000  C
  H33      1.0000 0.50730  0.31280  0.50940  Biso   1.000  H
  H34      1.0000 0.99270  0.81280  0.99060  Biso   1.000  H
  H35      1.0000 0.49270  0.68720  0.49060  Biso   1.000  H
  H36      1.0000 0.00730  0.18720  0.00940  Biso   1.000  H
  C53      1.0000 0.61870  0.21850  0.46030  Biso   1.000  C
  C54      1.0000 0.88130  0.71850  0.03970  Biso   1.000  C
  C55      1.0000 0.38130  0.78150  0.53970  Biso   1.000  C
  C56      1.0000 0.11870  0.28150  0.96030  Biso   1.000  C
  H37      1.0000 0.67880  0.27570  0.48250  Biso   1.000  H
  H38      1.0000 0.82120  0.77570  0.01750  Biso   1.000  H
  H39      1.0000 0.32120  0.72430  0.51750  Biso   1.000  H
  H40      1.0000 0.17880  0.22430  0.98250  Biso   1.000  H
  Cu1      1.0000 0.78113  0.47894  0.38935  Biso   1.000  Cu
  Cu2      1.0000 0.71887  0.97894  0.11065  Biso   1.000  Cu
  Cu3      1.0000 0.21887  0.52106  0.61065  Biso   1.000  Cu
  Cu4      1.0000 0.28113  0.02106  0.88935  Biso   1.000  Cu
  Cu5      1.0000 0.99024  0.15384  0.46838  Biso   1.000  Cu
  Cu6      1.0000 0.50976  0.65384  0.03162  Biso   1.000  Cu
  Cu7      1.0000 0.00976  0.84616  0.53162  Biso   1.000  Cu
  Cu8      1.0000 0.49024  0.34616  0.96838  Biso   1.000  Cu
  Cu9      1.0000 0.98981  0.62877  0.42652  Biso   1.000  Cu
  Cu10     1.0000 0.51019  0.12877  0.07348  Biso   1.000  Cu
  Cu11     1.0000 0.01019  0.37123  0.57348  Biso   1.000  Cu
  Cu12     1.0000 0.48981  0.87123  0.92652  Biso   1.000  Cu
  I1       1.0000 0.89580  0.59151  0.30229  Biso   1.000  I
  I2       1.0000 0.60420  0.09151  0.19771  Biso   1.000  I
  I3       1.0000 0.10420  0.40849  0.69771  Biso   1.000  I
  I4       1.0000 0.39580  0.90849  0.80229  Biso   1.000  I
  I5       1.0000 0.08891  0.91209  0.42199  Biso   1.000  I
  I6       1.0000 0.41109  0.41209  0.07801  Biso   1.000  I
  I7       1.0000 0.91109  0.08791  0.57801  Biso   1.000  I
  I8       1.0000 0.58891  0.58791  0.92199  Biso   1.000  I
  I9       1.0000 0.13199  0.39439  0.47605  Biso   1.000  I
  I10      1.0000 0.36801  0.89439  0.02395  Biso   1.000  I
  I11      1.0000 0.86801  0.60561  0.52395  Biso   1.000  I
  I12      1.0000 0.63199  0.10561  0.97605  Biso   1.000  I
  N1       1.0000 0.59150  0.54150  0.25550  Biso   1.000  N
  N2       1.0000 0.90850  0.04150  0.24450  Biso   1.000  N
  N3       1.0000 0.40850  0.45850  0.74450  Biso   1.000  N
  N4       1.0000 0.09150  0.95850  0.75550  Biso   1.000  N
  H41      1.0000 0.55430  0.54440  0.21510  Biso   1.000  H
  H42      1.0000 0.94570  0.04440  0.28490  Biso   1.000  H
  H43      1.0000 0.44570  0.45560  0.78490  Biso   1.000  H
  H44      1.0000 0.05430  0.95560  0.71510  Biso   1.000  H
  H45      1.0000 0.65830  0.50990  0.26280  Biso   1.000  H
  H46      1.0000 0.84170  0.00990  0.23720  Biso   1.000  H
  H47      1.0000 0.34170  0.49010  0.73720  Biso   1.000  H
  H48      1.0000 0.15830  0.99010  0.76280  Biso   1.000  H
  N5       1.0000 0.76080  0.92970  0.38440  Biso   1.000  N
  N6       1.0000 0.73920  0.42970  0.11560  Biso   1.000  N
  N7       1.0000 0.23920  0.07030  0.61560  Biso   1.000  N
  N8       1.0000 0.26080  0.57030  0.88440  Biso   1.000  N
  H49      1.0000 0.71370  0.85620  0.38660  Biso   1.000  H
  H50      1.0000 0.78630  0.35620  0.11340  Biso   1.000  H
  H51      1.0000 0.28630  0.14380  0.61340  Biso   1.000  H
  H52      1.0000 0.21370  0.64380  0.88660  Biso   1.000  H
  H53      1.0000 0.82320  0.90590  0.37490  Biso   1.000  H
  H54      1.0000 0.67680  0.40590  0.12510  Biso   1.000  H
  H55      1.0000 0.17680  0.09410  0.62510  Biso   1.000  H
  H56      1.0000 0.32320  0.59410  0.87490  Biso   1.000  H
  S1       1.0000 0.61505  0.58330  0.38526  Biso   1.000  S
  S2       1.0000 0.88495  0.08330  0.11474  Biso   1.000  S
  S3       1.0000 0.38495  0.41670  0.61474  Biso   1.000  S
  S4       1.0000 0.11505  0.91670  0.88526  Biso   1.000  S
  S5       1.0000 0.83245  0.22090  0.39020  Biso   1.000  S
  S6       1.0000 0.66755  0.72090  0.10980  Biso   1.000  S
  S7       1.0000 0.16755  0.77910  0.60980  Biso   1.000  S
  S8       1.0000 0.33245  0.27910  0.89020  Biso   1.000  S
