data_image0
_cell_length_a       12.3754
_cell_length_b       8.3609
_cell_length_c       20.0383
_cell_angle_alpha    90
_cell_angle_beta     101.315
_cell_angle_gamma    90

_symmetry_space_group_name_H-M    "P 1"
_symmetry_int_tables_number       1

loop_
  _symmetry_equiv_pos_as_xyz
  'x, y, z'

loop_
  _atom_site_label
  _atom_site_occupancy
  _atom_site_fract_x
  _atom_site_fract_y
  _atom_site_fract_z
  _atom_site_thermal_displace_type
  _atom_site_B_iso_or_equiv
  _atom_site_type_symbol
  C1       1.0000 0.54620  0.58350  0.30530  Biso   1.000  C
  C2       1.0000 0.95380  0.08350  0.19470  Biso   1.000  C
  C3       1.0000 0.45380  0.41650  0.69470  Biso   1.000  C
  C4       1.0000 0.04620  0.91650  0.80530  Biso   1.000  C
  C5       1.0000 0.43020  0.63560  0.28860  Biso   1.000  C
  C6       1.0000 0.06980  0.13560  0.21140  Biso   1.000  C
  C7       1.0000 0.56980  0.36440  0.71140  Biso   1.000  C
  C8       1.0000 0.93020  0.86440  0.78860  Biso   1.000  C
  C9       1.0000 0.36170  0.61000  0.33480  Biso   1.000  C
  C10      1.0000 0.13830  0.11000  0.16520  Biso   1.000  C
  C11      1.0000 0.63830  0.39000  0.66520  Biso   1.000  C
  C12      1.0000 0.86170  0.89000  0.83480  Biso   1.000  C
  H1       1.0000 0.39000  0.56110  0.37740  Biso   1.000  H
  H2       1.0000 0.11000  0.06110  0.12260  Biso   1.000  H
  H3       1.0000 0.61000  0.43890  0.62260  Biso   1.000  H
  H4       1.0000 0.89000  0.93890  0.87740  Biso   1.000  H
  C13      1.0000 0.25240  0.65530  0.31870  Biso   1.000  C
  C14      1.0000 0.24760  0.15530  0.18130  Biso   1.000  C
  C15      1.0000 0.74760  0.34470  0.68130  Biso   1.000  C
  C16      1.0000 0.75240  0.84470  0.81870  Biso   1.000  C
  H5       1.0000 0.20570  0.63760  0.35040  Biso   1.000  H
  H6       1.0000 0.29430  0.13760  0.14960  Biso   1.000  H
  H7       1.0000 0.79430  0.36240  0.64960  Biso   1.000  H
  H8       1.0000 0.70570  0.86240  0.85040  Biso   1.000  H
  C17      1.0000 0.21060  0.72660  0.25660  Biso   1.000  C
  C18      1.0000 0.28940  0.22660  0.24340  Biso   1.000  C
  C19      1.0000 0.78940  0.27340  0.74340  Biso   1.000  C
  C20      1.0000 0.71060  0.77340  0.75660  Biso   1.000  C
  H9       1.0000 0.13520  0.75720  0.24580  Biso   1.000  H
  H10      1.0000 0.36480  0.25720  0.25420  Biso   1.000  H
  H11      1.0000 0.86480  0.24280  0.75420  Biso   1.000  H
  H12      1.0000 0.63520  0.74280  0.74580  Biso   1.000  H
  C21      1.0000 0.27720  0.75340  0.21070  Biso   1.000  C
  C22      1.0000 0.22280  0.25340  0.28930  Biso   1.000  C
  C23      1.0000 0.72280  0.24660  0.78930  Biso   1.000  C
  C24      1.0000 0.77720  0.74660  0.71070  Biso   1.000  C
  H13      1.0000 0.24790  0.80180  0.16810  Biso   1.000  H
  H14      1.0000 0.25210  0.30180  0.33190  Biso   1.000  H
  H15      1.0000 0.75210  0.19820  0.83190  Biso   1.000  H
  H16      1.0000 0.74790  0.69820  0.66810  Biso   1.000  H
  C25      1.0000 0.38810  0.70960  0.22640  Biso   1.000  C
  C26      1.0000 0.11190  0.20960  0.27360  Biso   1.000  C
  C27      1.0000 0.61190  0.29040  0.77360  Biso   1.000  C
  C28      1.0000 0.88810  0.79040  0.72640  Biso   1.000  C
  H17      1.0000 0.43470  0.73000  0.19490  Biso   1.000  H
  H18      1.0000 0.06530  0.23000  0.30510  Biso   1.000  H
  H19      1.0000 0.56530  0.27000  0.80510  Biso   1.000  H
  H20      1.0000 0.93470  0.77000  0.69490  Biso   1.000  H
  C29      1.0000 0.73960  0.07530  0.39410  Biso   1.000  C
  C30      1.0000 0.76040  0.57530  0.10590  Biso   1.000  C
  C31      1.0000 0.26040  0.92470  0.60590  Biso   1.000  C
  C32      1.0000 0.23960  0.42470  0.89410  Biso   1.000  C
  C33      1.0000 0.62960  0.10830  0.41010  Biso   1.000  C
  C34      1.0000 0.87040  0.60830  0.08990  Biso   1.000  C
  C35      1.0000 0.37040  0.89170  0.58990  Biso   1.000  C
  C36      1.0000 0.12960  0.39170  0.91010  Biso   1.000  C
  C37      1.0000 0.53750  0.02250  0.37710  Biso   1.000  C
  C38      1.0000 0.96250  0.52250  0.12290  Biso   1.000  C
  C39      1.0000 0.46250  0.97750  0.62290  Biso   1.000  C
  C40      1.0000 0.03750  0.47750  0.87710  Biso   1.000  C
  H21      1.0000 0.54440  0.94670  0.34290  Biso   1.000  H
  H22      1.0000 0.95560  0.44670  0.15710  Biso   1.000  H
  H23      1.0000 0.45560  0.05330  0.65710  Biso   1.000  H
  H24      1.0000 0.04440  0.55330  0.84290  Biso   1.000  H
  C41      1.0000 0.43520  0.04900  0.39460  Biso   1.000  C
  C42      1.0000 0.06480  0.54900  0.10540  Biso   1.000  C
  C43      1.0000 0.56480  0.95100  0.60540  Biso   1.000  C
  C44      1.0000 0.93520  0.45100  0.89460  Biso   1.000  C
  H25      1.0000 0.37200  0.99270  0.37180  Biso   1.000  H
  H26      1.0000 0.12800  0.49270  0.12820  Biso   1.000  H
  H27      1.0000 0.62800  0.00730  0.62820  Biso   1.000  H
  H28      1.0000 0.87200  0.50730  0.87180  Biso   1.000  H
  C45      1.0000 0.42630  0.15550  0.44450  Biso   1.000  C
  C46      1.0000 0.07370  0.65550  0.05550  Biso   1.000  C
  C47      1.0000 0.57370  0.84450  0.55550  Biso   1.000  C
  C48      1.0000 0.92630  0.34450  0.94450  Biso   1.000  C
  H29      1.0000 0.35700  0.17030  0.45730  Biso   1.000  H
  H30      1.0000 0.14300  0.67030  0.04270  Biso   1.000  H
  H31      1.0000 0.64300  0.82970  0.54270  Biso   1.000  H
  H32      1.0000 0.85700  0.32970  0.95730  Biso   1.000  H
  C49      1.0000 0.51640  0.24290  0.47690  Biso   1.000  C
  C50      1.0000 0.98360  0.74290  0.02310  Biso   1.000  C
  C51      1.0000 0.48360  0.75710  0.52310  Biso   1.000  C
  C52      1.0000 0.01640  0.25710  0.97690  Biso   1.000  C
  H33      1.0000 0.50820  0.31870  0.51090  Biso   1.000  H
  H34      1.0000 0.99180  0.81870  0.98910  Biso   1.000  H
  H35      1.0000 0.49180  0.68130  0.48910  Biso   1.000  H
  H36      1.0000 0.00820  0.18130  0.01090  Biso   1.000  H
  C53      1.0000 0.61820  0.22000  0.46000  Biso   1.000  C
  C54      1.0000 0.88180  0.72000  0.04000  Biso   1.000  C
  C55      1.0000 0.38180  0.78000  0.54000  Biso   1.000  C
  C56      1.0000 0.11820  0.28000  0.96000  Biso   1.000  C
  H37      1.0000 0.68020  0.28000  0.48220  Biso   1.000  H
  H38      1.0000 0.81980  0.78000  0.01780  Biso   1.000  H
  H39      1.0000 0.31980  0.72000  0.51780  Biso   1.000  H
  H40      1.0000 0.18020  0.22000  0.98220  Biso   1.000  H
  Cu1      1.0000 0.78376  0.47982  0.39032  Biso   1.000  Cu
  Cu2      1.0000 0.71624  0.97982  0.10968  Biso   1.000  Cu
  Cu3      1.0000 0.21624  0.52018  0.60968  Biso   1.000  Cu
  Cu4      1.0000 0.28376  0.02018  0.89032  Biso   1.000  Cu
  Cu5      1.0000 0.99166  0.15226  0.46964  Biso   1.000  Cu
  Cu6      1.0000 0.50834  0.65226  0.03036  Biso   1.000  Cu
  Cu7      1.0000 0.00834  0.84774  0.53036  Biso   1.000  Cu
  Cu8      1.0000 0.49166  0.34774  0.96964  Biso   1.000  Cu
  Cu9      1.0000 0.98941  0.63102  0.42665  Biso   1.000  Cu
  Cu10     1.0000 0.51059  0.13102  0.07335  Biso   1.000  Cu
  Cu11     1.0000 0.01059  0.36898  0.57335  Biso   1.000  Cu
  Cu12     1.0000 0.48941  0.86898  0.92665  Biso   1.000  Cu
  I1       1.0000 0.89564  0.59314  0.30050  Biso   1.000  I
  I2       1.0000 0.60436  0.09314  0.19950  Biso   1.000  I
  I3       1.0000 0.10436  0.40686  0.69950  Biso   1.000  I
  I4       1.0000 0.39564  0.90686  0.80050  Biso   1.000  I
  I5       1.0000 0.09166  0.91238  0.42158  Biso   1.000  I
  I6       1.0000 0.40834  0.41238  0.07842  Biso   1.000  I
  I7       1.0000 0.90834  0.08762  0.57842  Biso   1.000  I
  I8       1.0000 0.59166  0.58762  0.92158  Biso   1.000  I
  I9       1.0000 0.13226  0.39580  0.47597  Biso   1.000  I
  I10      1.0000 0.36774  0.89580  0.02403  Biso   1.000  I
  I11      1.0000 0.86774  0.60420  0.52403  Biso   1.000  I
  I12      1.0000 0.63226  0.10420  0.97597  Biso   1.000  I
  N1       1.0000 0.59200  0.53690  0.25430  Biso   1.000  N
  N2       1.0000 0.90800  0.03690  0.24570  Biso   1.000  N
  N3       1.0000 0.40800  0.46310  0.74570  Biso   1.000  N
  N4       1.0000 0.09200  0.96310  0.75430  Biso   1.000  N
  H41      1.0000 0.55340  0.53790  0.21240  Biso   1.000  H
  H42      1.0000 0.94660  0.03790  0.28760  Biso   1.000  H
  H43      1.0000 0.44660  0.46210  0.78760  Biso   1.000  H
  H44      1.0000 0.05340  0.96210  0.71240  Biso   1.000  H
  H45      1.0000 0.66110  0.50490  0.26210  Biso   1.000  H
  H46      1.0000 0.83890  0.00490  0.23790  Biso   1.000  H
  H47      1.0000 0.33890  0.49510  0.73790  Biso   1.000  H
  H48      1.0000 0.16110  0.99510  0.76210  Biso   1.000  H
  N5       1.0000 0.76210  0.92700  0.38320  Biso   1.000  N
  N6       1.0000 0.73790  0.42700  0.11680  Biso   1.000  N
  N7       1.0000 0.23790  0.07300  0.61680  Biso   1.000  N
  N8       1.0000 0.26210  0.57300  0.88320  Biso   1.000  N
  H49      1.0000 0.71310  0.85190  0.38540  Biso   1.000  H
  H50      1.0000 0.78690  0.35190  0.11460  Biso   1.000  H
  H51      1.0000 0.28690  0.14810  0.61460  Biso   1.000  H
  H52      1.0000 0.21310  0.64810  0.88540  Biso   1.000  H
  H53      1.0000 0.82630  0.90160  0.37350  Biso   1.000  H
  H54      1.0000 0.67370  0.40160  0.12650  Biso   1.000  H
  H55      1.0000 0.17370  0.09840  0.62650  Biso   1.000  H
  H56      1.0000 0.32630  0.59840  0.87350  Biso   1.000  H
  S1       1.0000 0.61562  0.58390  0.38617  Biso   1.000  S
  S2       1.0000 0.88438  0.08390  0.11383  Biso   1.000  S
  S3       1.0000 0.38438  0.41610  0.61383  Biso   1.000  S
  S4       1.0000 0.11562  0.91610  0.88617  Biso   1.000  S
  S5       1.0000 0.83450  0.22020  0.38899  Biso   1.000  S
  S6       1.0000 0.66550  0.72020  0.11101  Biso   1.000  S
  S7       1.0000 0.16550  0.77980  0.61101  Biso   1.000  S
  S8       1.0000 0.33450  0.27980  0.88899  Biso   1.000  S
