data_image0
_cell_length_a       13.9453
_cell_length_b       5.736
_cell_length_c       22.77
_cell_angle_alpha    90
_cell_angle_beta     107.705
_cell_angle_gamma    90

_symmetry_space_group_name_H-M    "P 1"
_symmetry_int_tables_number       1

loop_
  _symmetry_equiv_pos_as_xyz
  'x, y, z'

loop_
  _atom_site_label
  _atom_site_occupancy
  _atom_site_fract_x
  _atom_site_fract_y
  _atom_site_fract_z
  _atom_site_thermal_displace_type
  _atom_site_B_iso_or_equiv
  _atom_site_type_symbol
  Br1      1.0000 0.64887  0.81530  0.47491  Biso   1.000  Br
  Br2      1.0000 0.35113  0.31530  0.02509  Biso   1.000  Br
  Br3      1.0000 0.35113  0.18470  0.52509  Biso   1.000  Br
  Br4      1.0000 0.64887  0.68470  0.97491  Biso   1.000  Br
  Br5      1.0000 0.82771  0.31590  0.47451  Biso   1.000  Br
  Br6      1.0000 0.17229  0.81590  0.02549  Biso   1.000  Br
  Br7      1.0000 0.17229  0.68410  0.52549  Biso   1.000  Br
  Br8      1.0000 0.82771  0.18410  0.97451  Biso   1.000  Br
  C1       1.0000 0.89250  0.88800  0.38000  Biso   1.000  C
  C2       1.0000 0.10750  0.38800  0.12000  Biso   1.000  C
  C3       1.0000 0.10750  0.11200  0.62000  Biso   1.000  C
  C4       1.0000 0.89250  0.61200  0.88000  Biso   1.000  C
  C5       1.0000 0.94960  0.08400  0.36240  Biso   1.000  C
  C6       1.0000 0.05040  0.58400  0.13760  Biso   1.000  C
  C7       1.0000 0.05040  0.91600  0.63760  Biso   1.000  C
  C8       1.0000 0.94960  0.41600  0.86240  Biso   1.000  C
  C9       1.0000 0.90550  0.21900  0.30910  Biso   1.000  C
  C10      1.0000 0.09450  0.71900  0.19090  Biso   1.000  C
  C11      1.0000 0.09450  0.78100  0.69090  Biso   1.000  C
  C12      1.0000 0.90550  0.28100  0.80910  Biso   1.000  C
  H1       1.0000 0.83940  0.18920  0.28420  Biso   1.000  H
  H2       1.0000 0.16060  0.68920  0.21580  Biso   1.000  H
  H3       1.0000 0.16060  0.81080  0.71580  Biso   1.000  H
  H4       1.0000 0.83940  0.31080  0.78420  Biso   1.000  H
  C13      1.0000 0.96000  0.39400  0.29430  Biso   1.000  C
  C14      1.0000 0.04000  0.89400  0.20570  Biso   1.000  C
  C15      1.0000 0.04000  0.60600  0.70570  Biso   1.000  C
  C16      1.0000 0.96000  0.10600  0.79430  Biso   1.000  C
  H5       1.0000 0.93060  0.48520  0.25910  Biso   1.000  H
  H6       1.0000 0.06940  0.98520  0.24090  Biso   1.000  H
  H7       1.0000 0.06940  0.51480  0.74090  Biso   1.000  H
  H8       1.0000 0.93060  0.01480  0.75910  Biso   1.000  H
  C17      1.0000 0.05520  0.43900  0.32900  Biso   1.000  C
  C18      1.0000 0.94480  0.93900  0.17100  Biso   1.000  C
  C19      1.0000 0.94480  0.56100  0.67100  Biso   1.000  C
  C20      1.0000 0.05520  0.06100  0.82900  Biso   1.000  C
  H9       1.0000 0.09190  0.55750  0.31690  Biso   1.000  H
  H10      1.0000 0.90810  0.05750  0.18310  Biso   1.000  H
  H11      1.0000 0.90810  0.44250  0.68310  Biso   1.000  H
  H12      1.0000 0.09190  0.94250  0.81690  Biso   1.000  H
  C21      1.0000 0.09920  0.31500  0.38190  Biso   1.000  C
  C22      1.0000 0.90080  0.81500  0.11810  Biso   1.000  C
  C23      1.0000 0.90080  0.68500  0.61810  Biso   1.000  C
  C24      1.0000 0.09920  0.18500  0.88190  Biso   1.000  C
  H13      1.0000 0.16490  0.34990  0.40660  Biso   1.000  H
  H14      1.0000 0.83510  0.84990  0.09340  Biso   1.000  H
  H15      1.0000 0.83510  0.65010  0.59340  Biso   1.000  H
  H16      1.0000 0.16490  0.15010  0.90660  Biso   1.000  H
  C25      1.0000 0.04730  0.14100  0.39810  Biso   1.000  C
  C26      1.0000 0.95270  0.64100  0.10190  Biso   1.000  C
  C27      1.0000 0.95270  0.85900  0.60190  Biso   1.000  C
  C28      1.0000 0.04730  0.35900  0.89810  Biso   1.000  C
  H17      1.0000 0.07760  0.05650  0.43430  Biso   1.000  H
  H18      1.0000 0.92240  0.55650  0.06570  Biso   1.000  H
  H19      1.0000 0.92240  0.94350  0.56570  Biso   1.000  H
  H20      1.0000 0.07760  0.44350  0.93430  Biso   1.000  H
  C29      1.0000 0.49010  0.39200  0.38100  Biso   1.000  C
  C30      1.0000 0.50990  0.89200  0.11900  Biso   1.000  C
  C31      1.0000 0.50990  0.60800  0.61900  Biso   1.000  C
  C32      1.0000 0.49010  0.10800  0.88100  Biso   1.000  C
  C33      1.0000 0.41820  0.58500  0.36210  Biso   1.000  C
  C34      1.0000 0.58180  0.08500  0.13790  Biso   1.000  C
  C35      1.0000 0.58180  0.41500  0.63790  Biso   1.000  C
  C36      1.0000 0.41820  0.91500  0.86210  Biso   1.000  C
  C37      1.0000 0.41330  0.71000  0.31190  Biso   1.000  C
  C38      1.0000 0.58670  0.21000  0.18810  Biso   1.000  C
  C39      1.0000 0.58670  0.29000  0.68810  Biso   1.000  C
  C40      1.0000 0.41330  0.79000  0.81190  Biso   1.000  C
  H21      1.0000 0.45290  0.66720  0.28670  Biso   1.000  H
  H22      1.0000 0.54710  0.16720  0.21330  Biso   1.000  H
  H23      1.0000 0.54710  0.33280  0.71330  Biso   1.000  H
  H24      1.0000 0.45290  0.83280  0.78670  Biso   1.000  H
  C41      1.0000 0.34850  0.90600  0.29610  Biso   1.000  C
  C42      1.0000 0.65150  0.40600  0.20390  Biso   1.000  C
  C43      1.0000 0.65150  0.09400  0.70390  Biso   1.000  C
  C44      1.0000 0.34850  0.59400  0.79610  Biso   1.000  C
  H25      1.0000 0.34970  0.99970  0.26240  Biso   1.000  H
  H26      1.0000 0.65030  0.49970  0.23760  Biso   1.000  H
  H27      1.0000 0.65030  0.00030  0.73760  Biso   1.000  H
  H28      1.0000 0.34970  0.50030  0.76240  Biso   1.000  H
  C45      1.0000 0.28510  0.96200  0.32890  Biso   1.000  C
  C46      1.0000 0.71490  0.46200  0.17110  Biso   1.000  C
  C47      1.0000 0.71490  0.03800  0.67110  Biso   1.000  C
  C48      1.0000 0.28510  0.53800  0.82890  Biso   1.000  C
  H29      1.0000 0.24040  0.08790  0.31690  Biso   1.000  H
  H30      1.0000 0.75960  0.58790  0.18310  Biso   1.000  H
  H31      1.0000 0.75960  0.91210  0.68310  Biso   1.000  H
  H32      1.0000 0.24040  0.41210  0.81690  Biso   1.000  H
  C49      1.0000 0.28700  0.83000  0.38020  Biso   1.000  C
  C50      1.0000 0.71300  0.33000  0.11980  Biso   1.000  C
  C51      1.0000 0.71300  0.17000  0.61980  Biso   1.000  C
  C52      1.0000 0.28700  0.67000  0.88020  Biso   1.000  C
  H33      1.0000 0.24430  0.86880  0.40370  Biso   1.000  H
  H34      1.0000 0.75570  0.36880  0.09630  Biso   1.000  H
  H35      1.0000 0.75570  0.13120  0.59630  Biso   1.000  H
  H36      1.0000 0.24430  0.63120  0.90370  Biso   1.000  H
  C53      1.0000 0.35170  0.64200  0.39700  Biso   1.000  C
  C54      1.0000 0.64830  0.14200  0.10300  Biso   1.000  C
  C55      1.0000 0.64830  0.35800  0.60300  Biso   1.000  C
  C56      1.0000 0.35170  0.85800  0.89700  Biso   1.000  C
  H37      1.0000 0.35190  0.55070  0.43140  Biso   1.000  H
  H38      1.0000 0.64810  0.05070  0.06860  Biso   1.000  H
  H39      1.0000 0.64810  0.44930  0.56860  Biso   1.000  H
  H40      1.0000 0.35190  0.94930  0.93140  Biso   1.000  H
  Cu1      1.0000 0.70370  0.59120  0.39667  Biso   1.000  Cu
  Cu2      1.0000 0.29630  0.09120  0.10333  Biso   1.000  Cu
  Cu3      1.0000 0.29630  0.40880  0.60333  Biso   1.000  Cu
  Cu4      1.0000 0.70370  0.90880  0.89667  Biso   1.000  Cu
  Cu5      1.0000 0.69495  0.08880  0.39758  Biso   1.000  Cu
  Cu6      1.0000 0.30505  0.58880  0.10242  Biso   1.000  Cu
  Cu7      1.0000 0.30505  0.91120  0.60242  Biso   1.000  Cu
  Cu8      1.0000 0.69495  0.41120  0.89758  Biso   1.000  Cu
  N1       1.0000 0.93970  0.75500  0.42460  Biso   1.000  N
  N2       1.0000 0.06030  0.25500  0.07540  Biso   1.000  N
  N3       1.0000 0.06030  0.24500  0.57540  Biso   1.000  N
  N4       1.0000 0.93970  0.74500  0.92460  Biso   1.000  N
  H41      1.0000 0.00310  0.77970  0.44370  Biso   1.000  H
  H42      1.0000 0.99690  0.27970  0.05630  Biso   1.000  H
  H43      1.0000 0.99690  0.22030  0.55630  Biso   1.000  H
  H44      1.0000 0.00310  0.72030  0.94370  Biso   1.000  H
  H45      1.0000 0.90840  0.64050  0.43580  Biso   1.000  H
  H46      1.0000 0.09160  0.14050  0.06420  Biso   1.000  H
  H47      1.0000 0.09160  0.35950  0.56420  Biso   1.000  H
  H48      1.0000 0.90840  0.85950  0.93580  Biso   1.000  H
  N5       1.0000 0.48770  0.25900  0.42680  Biso   1.000  N
  N6       1.0000 0.51230  0.75900  0.07320  Biso   1.000  N
  N7       1.0000 0.51230  0.74100  0.57320  Biso   1.000  N
  N8       1.0000 0.48770  0.24100  0.92680  Biso   1.000  N
  H49      1.0000 0.44350  0.28410  0.44600  Biso   1.000  H
  H50      1.0000 0.55650  0.78410  0.05400  Biso   1.000  H
  H51      1.0000 0.55650  0.71590  0.55400  Biso   1.000  H
  H52      1.0000 0.44350  0.21590  0.94600  Biso   1.000  H
  H53      1.0000 0.53020  0.14430  0.43810  Biso   1.000  H
  H54      1.0000 0.46980  0.64430  0.06190  Biso   1.000  H
  H55      1.0000 0.46980  0.85570  0.56190  Biso   1.000  H
  H56      1.0000 0.53020  0.35570  0.93810  Biso   1.000  H
  S1       1.0000 0.76790  0.84330  0.34089  Biso   1.000  S
  S2       1.0000 0.23210  0.34330  0.15911  Biso   1.000  S
  S3       1.0000 0.23210  0.15670  0.65911  Biso   1.000  S
  S4       1.0000 0.76790  0.65670  0.84089  Biso   1.000  S
  S5       1.0000 0.57520  0.33940  0.34235  Biso   1.000  S
  S6       1.0000 0.42480  0.83940  0.15765  Biso   1.000  S
  S7       1.0000 0.42480  0.66060  0.65765  Biso   1.000  S
  S8       1.0000 0.57520  0.16060  0.84235  Biso   1.000  S
