data_image0
_cell_length_a       5.7667
_cell_length_b       17.6731
_cell_length_c       13.318
_cell_angle_alpha    90
_cell_angle_beta     97.122
_cell_angle_gamma    90

_symmetry_space_group_name_H-M    "P 1"
_symmetry_int_tables_number       1

loop_
  _symmetry_equiv_pos_as_xyz
  'x, y, z'

loop_
  _atom_site_label
  _atom_site_occupancy
  _atom_site_fract_x
  _atom_site_fract_y
  _atom_site_fract_z
  _atom_site_thermal_displace_type
  _atom_site_B_iso_or_equiv
  _atom_site_type_symbol
  Br1      1.0000 0.98127  0.39714  0.44162  Biso   1.000  Br
  Br2      1.0000 0.51873  0.89714  0.05838  Biso   1.000  Br
  Br3      1.0000 0.01873  0.60286  0.55838  Biso   1.000  Br
  Br4      1.0000 0.48127  0.10286  0.94162  Biso   1.000  Br
  C1       1.0000 0.40320  0.62790  0.35530  Biso   1.000  C
  C2       1.0000 0.09680  0.12790  0.14470  Biso   1.000  C
  C3       1.0000 0.59680  0.37210  0.64470  Biso   1.000  C
  C4       1.0000 0.90320  0.87210  0.85530  Biso   1.000  C
  C5       1.0000 0.21290  0.66100  0.28520  Biso   1.000  C
  C6       1.0000 0.28710  0.16100  0.21480  Biso   1.000  C
  C7       1.0000 0.78710  0.33900  0.71480  Biso   1.000  C
  C8       1.0000 0.71290  0.83900  0.78520  Biso   1.000  C
  C9       1.0000 0.00670  0.62100  0.25950  Biso   1.000  C
  C10      1.0000 0.49330  0.12100  0.24050  Biso   1.000  C
  C11      1.0000 0.99330  0.37900  0.74050  Biso   1.000  C
  C12      1.0000 0.50670  0.87900  0.75950  Biso   1.000  C
  H1       1.0000 0.98860  0.57330  0.28670  Biso   1.000  H
  H2       1.0000 0.51140  0.07330  0.21330  Biso   1.000  H
  H3       1.0000 0.01140  0.42670  0.71330  Biso   1.000  H
  H4       1.0000 0.48860  0.92670  0.78670  Biso   1.000  H
  C13      1.0000 0.82940  0.65200  0.19390  Biso   1.000  C
  C14      1.0000 0.67060  0.15200  0.30610  Biso   1.000  C
  C15      1.0000 0.17060  0.34800  0.80610  Biso   1.000  C
  C16      1.0000 0.32940  0.84800  0.69390  Biso   1.000  C
  H5       1.0000 0.69230  0.62470  0.17650  Biso   1.000  H
  H6       1.0000 0.80770  0.12470  0.32350  Biso   1.000  H
  H7       1.0000 0.30770  0.37530  0.82350  Biso   1.000  H
  H8       1.0000 0.19230  0.87530  0.67650  Biso   1.000  H
  C17      1.0000 0.85230  0.72260  0.15380  Biso   1.000  C
  C18      1.0000 0.64770  0.22260  0.34620  Biso   1.000  C
  C19      1.0000 0.14770  0.27740  0.84620  Biso   1.000  C
  C20      1.0000 0.35230  0.77740  0.65380  Biso   1.000  C
  H9       1.0000 0.73000  0.74360  0.11060  Biso   1.000  H
  H10      1.0000 0.77000  0.24360  0.38940  Biso   1.000  H
  H11      1.0000 0.27000  0.25640  0.88940  Biso   1.000  H
  H12      1.0000 0.23000  0.75640  0.61060  Biso   1.000  H
  C21      1.0000 0.05740  0.76260  0.17780  Biso   1.000  C
  C22      1.0000 0.44260  0.26260  0.32220  Biso   1.000  C
  C23      1.0000 0.94260  0.23740  0.82220  Biso   1.000  C
  C24      1.0000 0.55740  0.73740  0.67780  Biso   1.000  C
  H13      1.0000 0.07460  0.81000  0.14940  Biso   1.000  H
  H14      1.0000 0.42540  0.31000  0.35060  Biso   1.000  H
  H15      1.0000 0.92540  0.19000  0.85060  Biso   1.000  H
  H16      1.0000 0.57460  0.69000  0.64940  Biso   1.000  H
  C25      1.0000 0.23610  0.73240  0.24350  Biso   1.000  C
  C26      1.0000 0.26390  0.23240  0.25650  Biso   1.000  C
  C27      1.0000 0.76390  0.26760  0.75650  Biso   1.000  C
  C28      1.0000 0.73610  0.76760  0.74350  Biso   1.000  C
  H17      1.0000 0.37310  0.75990  0.26010  Biso   1.000  H
  H18      1.0000 0.12690  0.25990  0.23990  Biso   1.000  H
  H19      1.0000 0.62690  0.24010  0.73990  Biso   1.000  H
  H20      1.0000 0.87310  0.74010  0.76010  Biso   1.000  H
  Cu1      1.0000 0.73808  0.50415  0.48549  Biso   1.000  Cu
  Cu2      1.0000 0.76192  0.00415  0.01451  Biso   1.000  Cu
  Cu3      1.0000 0.26192  0.49585  0.51451  Biso   1.000  Cu
  Cu4      1.0000 0.23808  0.99585  0.98549  Biso   1.000  Cu
  N1       1.0000 0.54170  0.67380  0.41140  Biso   1.000  N
  N2       1.0000 0.95830  0.17380  0.08860  Biso   1.000  N
  N3       1.0000 0.45830  0.32620  0.58860  Biso   1.000  N
  N4       1.0000 0.04170  0.82620  0.91140  Biso   1.000  N
  H21      1.0000 0.52030  0.72190  0.40670  Biso   1.000  H
  H22      1.0000 0.97970  0.22190  0.09330  Biso   1.000  H
  H23      1.0000 0.47970  0.27810  0.59330  Biso   1.000  H
  H24      1.0000 0.02030  0.77810  0.90670  Biso   1.000  H
  H25      1.0000 0.65430  0.65590  0.45300  Biso   1.000  H
  H26      1.0000 0.84570  0.15590  0.04700  Biso   1.000  H
  H27      1.0000 0.34570  0.34410  0.54700  Biso   1.000  H
  H28      1.0000 0.15430  0.84410  0.95300  Biso   1.000  H
  S1       1.0000 0.44460  0.53278  0.36113  Biso   1.000  S
  S2       1.0000 0.05540  0.03278  0.13887  Biso   1.000  S
  S3       1.0000 0.55540  0.46722  0.63887  Biso   1.000  S
  S4       1.0000 0.94460  0.96722  0.86113  Biso   1.000  S
  C29      1.0000 0.55000  0.90240  0.36640  Biso   1.000  C
  C30      1.0000 0.95000  0.40240  0.13360  Biso   1.000  C
  C31      1.0000 0.45000  0.09760  0.63360  Biso   1.000  C
  C32      1.0000 0.05000  0.59760  0.86640  Biso   1.000  C
  H29      1.0000 0.44440  0.93350  0.40010  Biso   1.000  H
  H30      1.0000 0.05560  0.43350  0.09990  Biso   1.000  H
  H31      1.0000 0.55560  0.06650  0.59990  Biso   1.000  H
  H32      1.0000 0.94440  0.56650  0.90010  Biso   1.000  H
  H33      1.0000 0.48050  0.89370  0.29720  Biso   1.000  H
  H34      1.0000 0.01950  0.39370  0.20280  Biso   1.000  H
  H35      1.0000 0.51950  0.10630  0.70280  Biso   1.000  H
  H36      1.0000 0.98050  0.60630  0.79720  Biso   1.000  H
  C33      1.0000 0.76800  0.93710  0.36880  Biso   1.000  C
  C34      1.0000 0.73200  0.43710  0.13120  Biso   1.000  C
  C35      1.0000 0.23200  0.06290  0.63120  Biso   1.000  C
  C36      1.0000 0.26800  0.56290  0.86880  Biso   1.000  C
  H37      1.0000 0.82380  0.93420  0.30310  Biso   1.000  H
  H38      1.0000 0.67620  0.43420  0.19690  Biso   1.000  H
  H39      1.0000 0.17620  0.06580  0.69690  Biso   1.000  H
  H40      1.0000 0.32380  0.56580  0.80310  Biso   1.000  H
  H41      1.0000 0.75980  0.98990  0.38810  Biso   1.000  H
  H42      1.0000 0.74020  0.48990  0.11190  Biso   1.000  H
  H43      1.0000 0.24020  0.01010  0.61190  Biso   1.000  H
  H44      1.0000 0.25980  0.51010  0.88810  Biso   1.000  H
  C37      1.0000 0.91300  0.89710  0.44050  Biso   1.000  C
  C38      1.0000 0.58700  0.39710  0.05950  Biso   1.000  C
  C39      1.0000 0.08700  0.10290  0.55950  Biso   1.000  C
  C40      1.0000 0.41300  0.60290  0.94050  Biso   1.000  C
  H45      1.0000 0.05400  0.88180  0.41270  Biso   1.000  H
  H46      1.0000 0.44600  0.38180  0.08730  Biso   1.000  H
  H47      1.0000 0.94600  0.11820  0.58730  Biso   1.000  H
  H48      1.0000 0.55400  0.61820  0.91270  Biso   1.000  H
  H49      1.0000 0.95830  0.92860  0.49930  Biso   1.000  H
  H50      1.0000 0.54170  0.42860  0.00070  Biso   1.000  H
  H51      1.0000 0.04170  0.07140  0.50070  Biso   1.000  H
  H52      1.0000 0.45830  0.57140  0.99930  Biso   1.000  H
  C41      1.0000 0.80600  0.83970  0.46540  Biso   1.000  C
  C42      1.0000 0.69400  0.33970  0.03460  Biso   1.000  C
  C43      1.0000 0.19400  0.16030  0.53460  Biso   1.000  C
  C44      1.0000 0.30600  0.66030  0.96540  Biso   1.000  C
  H53      1.0000 0.79590  0.84130  0.53760  Biso   1.000  H
  H54      1.0000 0.70410  0.34130  0.96240  Biso   1.000  H
  H55      1.0000 0.20410  0.15870  0.46240  Biso   1.000  H
  H56      1.0000 0.29590  0.65870  0.03760  Biso   1.000  H
  H57      1.0000 0.89220  0.79460  0.45160  Biso   1.000  H
  H58      1.0000 0.60780  0.29460  0.04840  Biso   1.000  H
  H59      1.0000 0.10780  0.20540  0.54840  Biso   1.000  H
  H60      1.0000 0.39220  0.70540  0.95160  Biso   1.000  H
  O1       1.0000 0.59180  0.83560  0.41600  Biso   1.000  O
  O2       1.0000 0.90820  0.33560  0.08400  Biso   1.000  O
  O3       1.0000 0.40820  0.16440  0.58400  Biso   1.000  O
  O4       1.0000 0.09180  0.66440  0.91600  Biso   1.000  O
