data_image0
_cell_length_a       5.7617
_cell_length_b       14.019
_cell_length_c       15.885
_cell_angle_alpha    90
_cell_angle_beta     90.003
_cell_angle_gamma    90

_symmetry_space_group_name_H-M    "P 1"
_symmetry_int_tables_number       1

loop_
  _symmetry_equiv_pos_as_xyz
  'x, y, z'

loop_
  _atom_site_label
  _atom_site_occupancy
  _atom_site_fract_x
  _atom_site_fract_y
  _atom_site_fract_z
  _atom_site_thermal_displace_type
  _atom_site_B_iso_or_equiv
  _atom_site_type_symbol
  Br1      1.0000 0.99589  0.58820  0.40362  Biso   1.000  Br
  Br2      1.0000 0.50411  0.08820  0.09638  Biso   1.000  Br
  Br3      1.0000 0.00411  0.41180  0.59638  Biso   1.000  Br
  Br4      1.0000 0.49589  0.91180  0.90362  Biso   1.000  Br
  C1       1.0000 0.44400  0.58380  0.66870  Biso   1.000  C
  C2       1.0000 0.05600  0.08380  0.83130  Biso   1.000  C
  C3       1.0000 0.55600  0.41620  0.33130  Biso   1.000  C
  C4       1.0000 0.94400  0.91620  0.16870  Biso   1.000  C
  C5       1.0000 0.27150  0.63890  0.71810  Biso   1.000  C
  C6       1.0000 0.22850  0.13890  0.78190  Biso   1.000  C
  C7       1.0000 0.72850  0.36110  0.28190  Biso   1.000  C
  C8       1.0000 0.77150  0.86110  0.21810  Biso   1.000  C
  C9       1.0000 0.07160  0.67230  0.68090  Biso   1.000  C
  C10      1.0000 0.42840  0.17230  0.81910  Biso   1.000  C
  C11      1.0000 0.92840  0.32770  0.31910  Biso   1.000  C
  C12      1.0000 0.57160  0.82770  0.18090  Biso   1.000  C
  H1       1.0000 0.04260  0.66000  0.62310  Biso   1.000  H
  H2       1.0000 0.45740  0.16000  0.87690  Biso   1.000  H
  H3       1.0000 0.95740  0.34000  0.37690  Biso   1.000  H
  H4       1.0000 0.54260  0.84000  0.12310  Biso   1.000  H
  C13      1.0000 0.91230  0.72410  0.72810  Biso   1.000  C
  C14      1.0000 0.58770  0.22410  0.77190  Biso   1.000  C
  C15      1.0000 0.08770  0.27590  0.27190  Biso   1.000  C
  C16      1.0000 0.41230  0.77590  0.22810  Biso   1.000  C
  H5       1.0000 0.77400  0.74660  0.70220  Biso   1.000  H
  H6       1.0000 0.72600  0.24660  0.79780  Biso   1.000  H
  H7       1.0000 0.22600  0.25340  0.29780  Biso   1.000  H
  H8       1.0000 0.27400  0.75340  0.20220  Biso   1.000  H
  C17      1.0000 0.95280  0.74320  0.81240  Biso   1.000  C
  C18      1.0000 0.54720  0.24320  0.68760  Biso   1.000  C
  C19      1.0000 0.04720  0.25680  0.18760  Biso   1.000  C
  C20      1.0000 0.45280  0.75680  0.31240  Biso   1.000  C
  H9       1.0000 0.84380  0.77880  0.84440  Biso   1.000  H
  H10      1.0000 0.65620  0.27880  0.65560  Biso   1.000  H
  H11      1.0000 0.15620  0.22120  0.15560  Biso   1.000  H
  H12      1.0000 0.34380  0.72120  0.34440  Biso   1.000  H
  C21      1.0000 0.15400  0.70960  0.84920  Biso   1.000  C
  C22      1.0000 0.34600  0.20960  0.65080  Biso   1.000  C
  C23      1.0000 0.84600  0.29040  0.15080  Biso   1.000  C
  C24      1.0000 0.65400  0.79040  0.34920  Biso   1.000  C
  H13      1.0000 0.18460  0.72310  0.90670  Biso   1.000  H
  H14      1.0000 0.31540  0.22310  0.59330  Biso   1.000  H
  H15      1.0000 0.81540  0.27690  0.09330  Biso   1.000  H
  H16      1.0000 0.68460  0.77690  0.40670  Biso   1.000  H
  C25      1.0000 0.31280  0.65640  0.80310  Biso   1.000  C
  C26      1.0000 0.18720  0.15640  0.69690  Biso   1.000  C
  C27      1.0000 0.68720  0.34360  0.19690  Biso   1.000  C
  C28      1.0000 0.81280  0.84360  0.30310  Biso   1.000  C
  H17      1.0000 0.44860  0.63220  0.82940  Biso   1.000  H
  H18      1.0000 0.05140  0.13220  0.67060  Biso   1.000  H
  H19      1.0000 0.55140  0.36780  0.17060  Biso   1.000  H
  H20      1.0000 0.94860  0.86780  0.32940  Biso   1.000  H
  Cu1      1.0000 0.74230  0.50875  0.50731  Biso   1.000  Cu
  Cu2      1.0000 0.75770  0.00875  0.99269  Biso   1.000  Cu
  Cu3      1.0000 0.25770  0.49125  0.49269  Biso   1.000  Cu
  Cu4      1.0000 0.24230  0.99125  0.00731  Biso   1.000  Cu
  N1       1.0000 0.56030  0.51580  0.70600  Biso   1.000  N
  N2       1.0000 0.93970  0.01580  0.79400  Biso   1.000  N
  N3       1.0000 0.43970  0.48420  0.29400  Biso   1.000  N
  N4       1.0000 0.06030  0.98420  0.20600  Biso   1.000  N
  H21      1.0000 0.53560  0.50330  0.75950  Biso   1.000  H
  H22      1.0000 0.96440  0.00330  0.74050  Biso   1.000  H
  H23      1.0000 0.46440  0.49670  0.24050  Biso   1.000  H
  H24      1.0000 0.03560  0.99670  0.25950  Biso   1.000  H
  H25      1.0000 0.66320  0.48250  0.67750  Biso   1.000  H
  H26      1.0000 0.83680  0.98250  0.82250  Biso   1.000  H
  H27      1.0000 0.33680  0.51750  0.32250  Biso   1.000  H
  H28      1.0000 0.16320  0.01750  0.17750  Biso   1.000  H
  S1       1.0000 0.49020  0.61440  0.56533  Biso   1.000  S
  S2       1.0000 0.00980  0.11440  0.93467  Biso   1.000  S
  S3       1.0000 0.50980  0.38560  0.43467  Biso   1.000  S
  S4       1.0000 0.99020  0.88560  0.06533  Biso   1.000  S
  C29      1.0000 0.32000  0.40800  0.90130  Biso   1.000  C
  C30      1.0000 0.18000  0.90800  0.59870  Biso   1.000  C
  C31      1.0000 0.68000  0.59200  0.09870  Biso   1.000  C
  C32      1.0000 0.82000  0.09200  0.40130  Biso   1.000  C
  C33      1.0000 0.10500  0.40130  0.85130  Biso   1.000  C
  C34      1.0000 0.39500  0.90130  0.64870  Biso   1.000  C
  C35      1.0000 0.89500  0.59870  0.14870  Biso   1.000  C
  C36      1.0000 0.60500  0.09870  0.35130  Biso   1.000  C
  H29      1.0000 0.98720  0.44350  0.87550  Biso   1.000  H
  H30      1.0000 0.51280  0.94350  0.62450  Biso   1.000  H
  H31      1.0000 0.01280  0.55650  0.12450  Biso   1.000  H
  H32      1.0000 0.48720  0.05650  0.37550  Biso   1.000  H
  H33      1.0000 0.04850  0.33540  0.85210  Biso   1.000  H
  H34      1.0000 0.45150  0.83540  0.64790  Biso   1.000  H
  H35      1.0000 0.95150  0.66460  0.14790  Biso   1.000  H
  H36      1.0000 0.54850  0.16460  0.35210  Biso   1.000  H
  H37      1.0000 0.13720  0.42050  0.79310  Biso   1.000  H
  H38      1.0000 0.36280  0.92050  0.70690  Biso   1.000  H
  H39      1.0000 0.86280  0.57950  0.20690  Biso   1.000  H
  H40      1.0000 0.63720  0.07950  0.29310  Biso   1.000  H
  C37      1.0000 0.32000  0.36740  0.98800  Biso   1.000  C
  C38      1.0000 0.18000  0.86740  0.51200  Biso   1.000  C
  C39      1.0000 0.68000  0.63260  0.01200  Biso   1.000  C
  C40      1.0000 0.82000  0.13260  0.48800  Biso   1.000  C
  H41      1.0000 0.29290  0.29850  0.98510  Biso   1.000  H
  H42      1.0000 0.20710  0.79850  0.51490  Biso   1.000  H
  H43      1.0000 0.70710  0.70150  0.01490  Biso   1.000  H
  H44      1.0000 0.79290  0.20150  0.48510  Biso   1.000  H
  H45      1.0000 0.19660  0.39740  0.02120  Biso   1.000  H
  H46      1.0000 0.30340  0.89740  0.47880  Biso   1.000  H
  H47      1.0000 0.80340  0.60260  0.97880  Biso   1.000  H
  H48      1.0000 0.69660  0.10260  0.52120  Biso   1.000  H
  H49      1.0000 0.47030  0.37970  0.01470  Biso   1.000  H
  H50      1.0000 0.02970  0.87970  0.48530  Biso   1.000  H
  H51      1.0000 0.52970  0.62030  0.98530  Biso   1.000  H
  H52      1.0000 0.97030  0.12030  0.51470  Biso   1.000  H
  O1       1.0000 0.49430  0.44550  0.87350  Biso   1.000  O
  O2       1.0000 0.00570  0.94550  0.62650  Biso   1.000  O
  O3       1.0000 0.50570  0.55450  0.12650  Biso   1.000  O
  O4       1.0000 0.99430  0.05450  0.37350  Biso   1.000  O
