data_image0
_cell_length_a       5.697
_cell_length_b       16.9195
_cell_length_c       13.4156
_cell_angle_alpha    90
_cell_angle_beta     95.109
_cell_angle_gamma    90

_symmetry_space_group_name_H-M    "P 1"
_symmetry_int_tables_number       1

loop_
  _symmetry_equiv_pos_as_xyz
  'x, y, z'

loop_
  _atom_site_label
  _atom_site_occupancy
  _atom_site_fract_x
  _atom_site_fract_y
  _atom_site_fract_z
  _atom_site_thermal_displace_type
  _atom_site_B_iso_or_equiv
  _atom_site_type_symbol
  O1       1.0000 0.56080  0.85500  0.44150  Biso   1.000  O
  O2       1.0000 0.93920  0.35500  0.05850  Biso   1.000  O
  O3       1.0000 0.43920  0.14500  0.55850  Biso   1.000  O
  O4       1.0000 0.06080  0.64500  0.94150  Biso   1.000  O
  C1       1.0000 0.77840  0.85810  0.50380  Biso   1.000  C
  C2       1.0000 0.72160  0.35810  0.99620  Biso   1.000  C
  C3       1.0000 0.22160  0.14190  0.49620  Biso   1.000  C
  C4       1.0000 0.27840  0.64190  0.00380  Biso   1.000  C
  H1       1.0000 0.81660  0.80560  0.53380  Biso   1.000  H
  H2       1.0000 0.68340  0.30560  0.96620  Biso   1.000  H
  H3       1.0000 0.18340  0.19440  0.46620  Biso   1.000  H
  H4       1.0000 0.31660  0.69440  0.03380  Biso   1.000  H
  H5       1.0000 0.76850  0.89700  0.55830  Biso   1.000  H
  H6       1.0000 0.73150  0.39700  0.94170  Biso   1.000  H
  H7       1.0000 0.23150  0.10300  0.44170  Biso   1.000  H
  H8       1.0000 0.26850  0.60300  0.05830  Biso   1.000  H
  C5       1.0000 0.57520  0.91810  0.37060  Biso   1.000  C
  C6       1.0000 0.92480  0.41810  0.12940  Biso   1.000  C
  C7       1.0000 0.42480  0.08190  0.62940  Biso   1.000  C
  C8       1.0000 0.07520  0.58190  0.87060  Biso   1.000  C
  H9       1.0000 0.48250  0.90500  0.30680  Biso   1.000  H
  H10      1.0000 0.01750  0.40500  0.19320  Biso   1.000  H
  H11      1.0000 0.51750  0.09500  0.69320  Biso   1.000  H
  H12      1.0000 0.98250  0.59500  0.80680  Biso   1.000  H
  H13      1.0000 0.51250  0.96770  0.39710  Biso   1.000  H
  H14      1.0000 0.98750  0.46770  0.10290  Biso   1.000  H
  H15      1.0000 0.48750  0.03230  0.60290  Biso   1.000  H
  H16      1.0000 0.01250  0.53230  0.89710  Biso   1.000  H
  C9       1.0000 0.95430  0.88140  0.43910  Biso   1.000  C
  C10      1.0000 0.54570  0.38140  0.06090  Biso   1.000  C
  C11      1.0000 0.04570  0.11860  0.56090  Biso   1.000  C
  C12      1.0000 0.45430  0.61860  0.93910  Biso   1.000  C
  H17      1.0000 0.03240  0.83460  0.41250  Biso   1.000  H
  H18      1.0000 0.46760  0.33460  0.08750  Biso   1.000  H
  H19      1.0000 0.96760  0.16540  0.58750  Biso   1.000  H
  H20      1.0000 0.53240  0.66540  0.91250  Biso   1.000  H
  H21      1.0000 0.07530  0.91540  0.47520  Biso   1.000  H
  H22      1.0000 0.42470  0.41540  0.02480  Biso   1.000  H
  H23      1.0000 0.92470  0.08460  0.52480  Biso   1.000  H
  H24      1.0000 0.57530  0.58460  0.97520  Biso   1.000  H
  C13      1.0000 0.81700  0.92700  0.35530  Biso   1.000  C
  C14      1.0000 0.68300  0.42700  0.14470  Biso   1.000  C
  C15      1.0000 0.18300  0.07300  0.64470  Biso   1.000  C
  C16      1.0000 0.31700  0.57300  0.85530  Biso   1.000  C
  H25      1.0000 0.86200  0.98350  0.35780  Biso   1.000  H
  H26      1.0000 0.63800  0.48350  0.14220  Biso   1.000  H
  H27      1.0000 0.13800  0.01650  0.64220  Biso   1.000  H
  H28      1.0000 0.36200  0.51650  0.85780  Biso   1.000  H
  H29      1.0000 0.84910  0.90540  0.28930  Biso   1.000  H
  H30      1.0000 0.65090  0.40540  0.21070  Biso   1.000  H
  H31      1.0000 0.15090  0.09460  0.71070  Biso   1.000  H
  H32      1.0000 0.34910  0.59460  0.78930  Biso   1.000  H
  Br1      1.0000 0.98663  0.39346  0.43938  Biso   1.000  Br
  Br2      1.0000 0.51337  0.89346  0.06062  Biso   1.000  Br
  Br3      1.0000 0.01337  0.60654  0.56062  Biso   1.000  Br
  Br4      1.0000 0.48663  0.10654  0.93938  Biso   1.000  Br
  Cu1      1.0000 0.73799  0.50453  0.48787  Biso   1.000  Cu
  Cu2      1.0000 0.76201  0.00453  0.01213  Biso   1.000  Cu
  Cu3      1.0000 0.26201  0.49547  0.51213  Biso   1.000  Cu
  Cu4      1.0000 0.23799  0.99547  0.98787  Biso   1.000  Cu
  S1       1.0000 0.45544  0.53525  0.36370  Biso   1.000  S
  S2       1.0000 0.04456  0.03525  0.13630  Biso   1.000  S
  S3       1.0000 0.54456  0.46475  0.63630  Biso   1.000  S
  S4       1.0000 0.95544  0.96475  0.86370  Biso   1.000  S
  C17      1.0000 0.01420  0.62210  0.26500  Biso   1.000  C
  C18      1.0000 0.48580  0.12210  0.23500  Biso   1.000  C
  C19      1.0000 0.98580  0.37790  0.73500  Biso   1.000  C
  C20      1.0000 0.51420  0.87790  0.76500  Biso   1.000  C
  H33      1.0000 0.00070  0.57070  0.29240  Biso   1.000  H
  H34      1.0000 0.49930  0.07070  0.20760  Biso   1.000  H
  H35      1.0000 0.99930  0.42930  0.70760  Biso   1.000  H
  H36      1.0000 0.50070  0.92930  0.79240  Biso   1.000  H
  C21      1.0000 0.40620  0.63500  0.36090  Biso   1.000  C
  C22      1.0000 0.09380  0.13500  0.13910  Biso   1.000  C
  C23      1.0000 0.59380  0.36500  0.63910  Biso   1.000  C
  C24      1.0000 0.90620  0.86500  0.86090  Biso   1.000  C
  C25      1.0000 0.21350  0.66690  0.29110  Biso   1.000  C
  C26      1.0000 0.28650  0.16690  0.20890  Biso   1.000  C
  C27      1.0000 0.78650  0.33310  0.70890  Biso   1.000  C
  C28      1.0000 0.71350  0.83310  0.79110  Biso   1.000  C
  N1       1.0000 0.53740  0.68420  0.41670  Biso   1.000  N
  N2       1.0000 0.96260  0.18420  0.08330  Biso   1.000  N
  N3       1.0000 0.46260  0.31580  0.58330  Biso   1.000  N
  N4       1.0000 0.03740  0.81580  0.91670  Biso   1.000  N
  H37      1.0000 0.51040  0.73540  0.41230  Biso   1.000  H
  H38      1.0000 0.98960  0.23540  0.08770  Biso   1.000  H
  H39      1.0000 0.48960  0.26460  0.58770  Biso   1.000  H
  H40      1.0000 0.01040  0.76460  0.91230  Biso   1.000  H
  H41      1.0000 0.65270  0.66620  0.45850  Biso   1.000  H
  H42      1.0000 0.84730  0.16620  0.04150  Biso   1.000  H
  H43      1.0000 0.34730  0.33380  0.54150  Biso   1.000  H
  H44      1.0000 0.15270  0.83380  0.95850  Biso   1.000  H
  C29      1.0000 0.23260  0.74210  0.25000  Biso   1.000  C
  C30      1.0000 0.26740  0.24210  0.25000  Biso   1.000  C
  C31      1.0000 0.76740  0.25790  0.75000  Biso   1.000  C
  C32      1.0000 0.73260  0.75790  0.75000  Biso   1.000  C
  H45      1.0000 0.36990  0.77290  0.26670  Biso   1.000  H
  H46      1.0000 0.13010  0.27290  0.23330  Biso   1.000  H
  H47      1.0000 0.63010  0.22710  0.73330  Biso   1.000  H
  H48      1.0000 0.86990  0.72710  0.76670  Biso   1.000  H
  C33      1.0000 0.83350  0.65180  0.19890  Biso   1.000  C
  C34      1.0000 0.66650  0.15180  0.30110  Biso   1.000  C
  C35      1.0000 0.16650  0.34820  0.80110  Biso   1.000  C
  C36      1.0000 0.33350  0.84820  0.69890  Biso   1.000  C
  H49      1.0000 0.69720  0.62070  0.18100  Biso   1.000  H
  H50      1.0000 0.80280  0.12070  0.31900  Biso   1.000  H
  H51      1.0000 0.30280  0.37930  0.81900  Biso   1.000  H
  H52      1.0000 0.19720  0.87930  0.68100  Biso   1.000  H
  C37      1.0000 0.85340  0.72690  0.15920  Biso   1.000  C
  C38      1.0000 0.64660  0.22690  0.34080  Biso   1.000  C
  C39      1.0000 0.14660  0.27310  0.84080  Biso   1.000  C
  C40      1.0000 0.35340  0.77310  0.65920  Biso   1.000  C
  H53      1.0000 0.73020  0.74730  0.11410  Biso   1.000  H
  H54      1.0000 0.76980  0.24730  0.38590  Biso   1.000  H
  H55      1.0000 0.26980  0.25270  0.88590  Biso   1.000  H
  H56      1.0000 0.23020  0.75270  0.61410  Biso   1.000  H
  C41      1.0000 0.05130  0.77200  0.18480  Biso   1.000  C
  C42      1.0000 0.44870  0.27200  0.31520  Biso   1.000  C
  C43      1.0000 0.94870  0.22800  0.81520  Biso   1.000  C
  C44      1.0000 0.55130  0.72800  0.68480  Biso   1.000  C
  H57      1.0000 0.06350  0.82370  0.15790  Biso   1.000  H
  H58      1.0000 0.43650  0.32370  0.34210  Biso   1.000  H
  H59      1.0000 0.93650  0.17630  0.84210  Biso   1.000  H
  H60      1.0000 0.56350  0.67630  0.65790  Biso   1.000  H
