data_image0
_cell_length_a       13.8859
_cell_length_b       5.6849
_cell_length_c       22.6653
_cell_angle_alpha    90
_cell_angle_beta     107.618
_cell_angle_gamma    90

_symmetry_space_group_name_H-M    "P 1"
_symmetry_int_tables_number       1

loop_
  _symmetry_equiv_pos_as_xyz
  'x, y, z'

loop_
  _atom_site_label
  _atom_site_occupancy
  _atom_site_fract_x
  _atom_site_fract_y
  _atom_site_fract_z
  _atom_site_thermal_displace_type
  _atom_site_B_iso_or_equiv
  _atom_site_type_symbol
  Br1      1.0000 0.65000  0.81320  0.47455  Biso   1.000  Br
  Br2      1.0000 0.35000  0.31320  0.02545  Biso   1.000  Br
  Br3      1.0000 0.35000  0.18680  0.52545  Biso   1.000  Br
  Br4      1.0000 0.65000  0.68680  0.97455  Biso   1.000  Br
  Br5      1.0000 0.82753  0.31420  0.47391  Biso   1.000  Br
  Br6      1.0000 0.17247  0.81420  0.02609  Biso   1.000  Br
  Br7      1.0000 0.17247  0.68580  0.52609  Biso   1.000  Br
  Br8      1.0000 0.82753  0.18580  0.97391  Biso   1.000  Br
  Cu1      1.0000 0.70391  0.58960  0.39504  Biso   1.000  Cu
  Cu2      1.0000 0.29609  0.08960  0.10496  Biso   1.000  Cu
  Cu3      1.0000 0.29609  0.41040  0.60496  Biso   1.000  Cu
  Cu4      1.0000 0.70391  0.91040  0.89504  Biso   1.000  Cu
  Cu5      1.0000 0.69427  0.08710  0.39606  Biso   1.000  Cu
  Cu6      1.0000 0.30573  0.58710  0.10394  Biso   1.000  Cu
  Cu7      1.0000 0.30573  0.91290  0.60394  Biso   1.000  Cu
  Cu8      1.0000 0.69427  0.41290  0.89606  Biso   1.000  Cu
  S1       1.0000 0.76850  0.84300  0.33910  Biso   1.000  S
  S2       1.0000 0.23150  0.34300  0.16090  Biso   1.000  S
  S3       1.0000 0.23150  0.15700  0.66090  Biso   1.000  S
  S4       1.0000 0.76850  0.65700  0.83910  Biso   1.000  S
  S5       1.0000 0.57370  0.33780  0.34090  Biso   1.000  S
  S6       1.0000 0.42630  0.83780  0.15910  Biso   1.000  S
  S7       1.0000 0.42630  0.66220  0.65910  Biso   1.000  S
  S8       1.0000 0.57370  0.16220  0.84090  Biso   1.000  S
  N1       1.0000 0.94090  0.75400  0.42420  Biso   1.000  N
  N2       1.0000 0.05910  0.25400  0.07580  Biso   1.000  N
  N3       1.0000 0.05910  0.24600  0.57580  Biso   1.000  N
  N4       1.0000 0.94090  0.74600  0.92420  Biso   1.000  N
  H1       1.0000 0.00530  0.77780  0.44380  Biso   1.000  H
  H2       1.0000 0.99470  0.27780  0.05620  Biso   1.000  H
  H3       1.0000 0.99470  0.22220  0.55620  Biso   1.000  H
  H4       1.0000 0.00530  0.72220  0.94380  Biso   1.000  H
  H5       1.0000 0.90860  0.63690  0.43520  Biso   1.000  H
  H6       1.0000 0.09140  0.13690  0.06480  Biso   1.000  H
  H7       1.0000 0.09140  0.36310  0.56480  Biso   1.000  H
  H8       1.0000 0.90860  0.86310  0.93520  Biso   1.000  H
  N5       1.0000 0.48910  0.26100  0.42800  Biso   1.000  N
  N6       1.0000 0.51090  0.76100  0.07200  Biso   1.000  N
  N7       1.0000 0.51090  0.73900  0.57200  Biso   1.000  N
  N8       1.0000 0.48910  0.23900  0.92800  Biso   1.000  N
  H9       1.0000 0.44480  0.28590  0.44800  Biso   1.000  H
  H10      1.0000 0.55520  0.78590  0.05200  Biso   1.000  H
  H11      1.0000 0.55520  0.71410  0.55200  Biso   1.000  H
  H12      1.0000 0.44480  0.21410  0.94800  Biso   1.000  H
  H13      1.0000 0.53290  0.14530  0.43930  Biso   1.000  H
  H14      1.0000 0.46710  0.64530  0.06070  Biso   1.000  H
  H15      1.0000 0.46710  0.85470  0.56070  Biso   1.000  H
  H16      1.0000 0.53290  0.35470  0.93930  Biso   1.000  H
  C1       1.0000 0.90570  0.22800  0.30830  Biso   1.000  C
  C2       1.0000 0.09430  0.72800  0.19170  Biso   1.000  C
  C3       1.0000 0.09430  0.77200  0.69170  Biso   1.000  C
  C4       1.0000 0.90570  0.27200  0.80830  Biso   1.000  C
  H17      1.0000 0.83890  0.19500  0.28290  Biso   1.000  H
  H18      1.0000 0.16110  0.69500  0.21710  Biso   1.000  H
  H19      1.0000 0.16110  0.80500  0.71710  Biso   1.000  H
  H20      1.0000 0.83890  0.30500  0.78290  Biso   1.000  H
  C5       1.0000 0.89360  0.89200  0.37940  Biso   1.000  C
  C6       1.0000 0.10640  0.39200  0.12060  Biso   1.000  C
  C7       1.0000 0.10640  0.10800  0.62060  Biso   1.000  C
  C8       1.0000 0.89360  0.60800  0.87940  Biso   1.000  C
  C9       1.0000 0.95040  0.09000  0.36170  Biso   1.000  C
  C10      1.0000 0.04960  0.59000  0.13830  Biso   1.000  C
  C11      1.0000 0.04960  0.91000  0.63830  Biso   1.000  C
  C12      1.0000 0.95040  0.41000  0.86170  Biso   1.000  C
  C13      1.0000 0.48980  0.39600  0.38150  Biso   1.000  C
  C14      1.0000 0.51020  0.89600  0.11850  Biso   1.000  C
  C15      1.0000 0.51020  0.60400  0.61850  Biso   1.000  C
  C16      1.0000 0.48980  0.10400  0.88150  Biso   1.000  C
  C17      1.0000 0.41760  0.58700  0.36280  Biso   1.000  C
  C18      1.0000 0.58240  0.08700  0.13720  Biso   1.000  C
  C19      1.0000 0.58240  0.41300  0.63720  Biso   1.000  C
  C20      1.0000 0.41760  0.91300  0.86280  Biso   1.000  C
  C21      1.0000 0.10070  0.32500  0.38170  Biso   1.000  C
  C22      1.0000 0.89930  0.82500  0.11830  Biso   1.000  C
  C23      1.0000 0.89930  0.67500  0.61830  Biso   1.000  C
  C24      1.0000 0.10070  0.17500  0.88170  Biso   1.000  C
  H21      1.0000 0.16770  0.36070  0.40640  Biso   1.000  H
  H22      1.0000 0.83230  0.86070  0.09360  Biso   1.000  H
  H23      1.0000 0.83230  0.63930  0.59360  Biso   1.000  H
  H24      1.0000 0.16770  0.13930  0.90640  Biso   1.000  H
  C25      1.0000 0.04890  0.14700  0.39860  Biso   1.000  C
  C26      1.0000 0.95110  0.64700  0.10140  Biso   1.000  C
  C27      1.0000 0.95110  0.85300  0.60140  Biso   1.000  C
  C28      1.0000 0.04890  0.35300  0.89860  Biso   1.000  C
  H25      1.0000 0.07940  0.06030  0.43540  Biso   1.000  H
  H26      1.0000 0.92060  0.56030  0.06460  Biso   1.000  H
  H27      1.0000 0.92060  0.93970  0.56460  Biso   1.000  H
  H28      1.0000 0.07940  0.43970  0.93540  Biso   1.000  H
  C29      1.0000 0.05630  0.45600  0.32850  Biso   1.000  C
  C30      1.0000 0.94370  0.95600  0.17150  Biso   1.000  C
  C31      1.0000 0.94370  0.54400  0.67150  Biso   1.000  C
  C32      1.0000 0.05630  0.04400  0.82850  Biso   1.000  C
  H29      1.0000 0.09310  0.57890  0.31660  Biso   1.000  H
  H30      1.0000 0.90690  0.07890  0.18340  Biso   1.000  H
  H31      1.0000 0.90690  0.42110  0.68340  Biso   1.000  H
  H32      1.0000 0.09310  0.92110  0.81660  Biso   1.000  H
  C33      1.0000 0.95950  0.40800  0.29350  Biso   1.000  C
  C34      1.0000 0.04050  0.90800  0.20650  Biso   1.000  C
  C35      1.0000 0.04050  0.59200  0.70650  Biso   1.000  C
  C36      1.0000 0.95950  0.09200  0.79350  Biso   1.000  C
  H33      1.0000 0.92890  0.50090  0.25800  Biso   1.000  H
  H34      1.0000 0.07110  0.00090  0.24200  Biso   1.000  H
  H35      1.0000 0.07110  0.49910  0.74200  Biso   1.000  H
  H36      1.0000 0.92890  0.99910  0.75800  Biso   1.000  H
  C37      1.0000 0.35250  0.64800  0.39840  Biso   1.000  C
  C38      1.0000 0.64750  0.14800  0.10160  Biso   1.000  C
  C39      1.0000 0.64750  0.35200  0.60160  Biso   1.000  C
  C40      1.0000 0.35250  0.85200  0.89840  Biso   1.000  C
  H37      1.0000 0.35410  0.55750  0.43400  Biso   1.000  H
  H38      1.0000 0.64590  0.05750  0.06600  Biso   1.000  H
  H39      1.0000 0.64590  0.44250  0.56600  Biso   1.000  H
  H40      1.0000 0.35410  0.94250  0.93400  Biso   1.000  H
  C41      1.0000 0.28730  0.83600  0.38180  Biso   1.000  C
  C42      1.0000 0.71270  0.33600  0.11820  Biso   1.000  C
  C43      1.0000 0.71270  0.16400  0.61820  Biso   1.000  C
  C44      1.0000 0.28730  0.66400  0.88180  Biso   1.000  C
  H41      1.0000 0.24410  0.87360  0.40590  Biso   1.000  H
  H42      1.0000 0.75590  0.37360  0.09410  Biso   1.000  H
  H43      1.0000 0.75590  0.12640  0.59410  Biso   1.000  H
  H44      1.0000 0.24410  0.62640  0.90590  Biso   1.000  H
  C45      1.0000 0.28390  0.97000  0.33050  Biso   1.000  C
  C46      1.0000 0.71610  0.47000  0.16950  Biso   1.000  C
  C47      1.0000 0.71610  0.03000  0.66950  Biso   1.000  C
  C48      1.0000 0.28390  0.53000  0.83050  Biso   1.000  C
  H45      1.0000 0.23800  0.09830  0.31890  Biso   1.000  H
  H46      1.0000 0.76200  0.59830  0.18110  Biso   1.000  H
  H47      1.0000 0.76200  0.90170  0.68110  Biso   1.000  H
  H48      1.0000 0.23800  0.40170  0.81890  Biso   1.000  H
  C49      1.0000 0.34900  0.91600  0.29580  Biso   1.000  C
  C50      1.0000 0.65100  0.41600  0.20420  Biso   1.000  C
  C51      1.0000 0.65100  0.08400  0.70420  Biso   1.000  C
  C52      1.0000 0.34900  0.58400  0.79580  Biso   1.000  C
  H49      1.0000 0.34910  0.01050  0.26120  Biso   1.000  H
  H50      1.0000 0.65090  0.51050  0.23880  Biso   1.000  H
  H51      1.0000 0.65090  0.98950  0.73880  Biso   1.000  H
  H52      1.0000 0.34910  0.48950  0.76120  Biso   1.000  H
  C53      1.0000 0.41370  0.72300  0.31200  Biso   1.000  C
  C54      1.0000 0.58630  0.22300  0.18800  Biso   1.000  C
  C55      1.0000 0.58630  0.27700  0.68800  Biso   1.000  C
  C56      1.0000 0.41370  0.77700  0.81200  Biso   1.000  C
  H53      1.0000 0.45600  0.68490  0.28740  Biso   1.000  H
  H54      1.0000 0.54400  0.18490  0.21260  Biso   1.000  H
  H55      1.0000 0.54400  0.31510  0.71260  Biso   1.000  H
  H56      1.0000 0.45600  0.81510  0.78740  Biso   1.000  H
