data_image0
_cell_length_a       7.3536
_cell_length_b       10.7182
_cell_length_c       10.8755
_cell_angle_alpha    100.23
_cell_angle_beta     93.032
_cell_angle_gamma    101.538

_symmetry_space_group_name_H-M    "P 1"
_symmetry_int_tables_number       1

loop_
  _symmetry_equiv_pos_as_xyz
  'x, y, z'

loop_
  _atom_site_label
  _atom_site_occupancy
  _atom_site_fract_x
  _atom_site_fract_y
  _atom_site_fract_z
  _atom_site_thermal_displace_type
  _atom_site_B_iso_or_equiv
  _atom_site_type_symbol
  C1       1.0000 0.20990  0.48970  0.78280  Biso   1.000  C
  C2       1.0000 0.79010  0.51030  0.21720  Biso   1.000  C
  C3       1.0000 0.10220  0.49710  0.89500  Biso   1.000  C
  C4       1.0000 0.89780  0.50290  0.10500  Biso   1.000  C
  C5       1.0000 0.91370  0.50190  0.88380  Biso   1.000  C
  C6       1.0000 0.08630  0.49810  0.11620  Biso   1.000  C
  H1       1.0000 0.85450  0.50350  0.80450  Biso   1.000  H
  H2       1.0000 0.14550  0.49650  0.19550  Biso   1.000  H
  C7       1.0000 0.18720  0.49560  0.01210  Biso   1.000  C
  C8       1.0000 0.81280  0.50440  0.98790  Biso   1.000  C
  H3       1.0000 0.31540  0.49280  0.02060  Biso   1.000  H
  H4       1.0000 0.68460  0.50720  0.97940  Biso   1.000  H
  C9       1.0000 0.72490  0.15680  0.48830  Biso   1.000  C
  C10      1.0000 0.27510  0.84320  0.51170  Biso   1.000  C
  C11      1.0000 0.86560  0.07520  0.49310  Biso   1.000  C
  C12      1.0000 0.13440  0.92480  0.50690  Biso   1.000  C
  C13      1.0000 0.04070  0.12930  0.55830  Biso   1.000  C
  C14      1.0000 0.95930  0.87070  0.44170  Biso   1.000  C
  H5       1.0000 0.06880  0.21810  0.59840  Biso   1.000  H
  H6       1.0000 0.93120  0.78190  0.40160  Biso   1.000  H
  C15      1.0000 0.82660  0.94470  0.43480  Biso   1.000  C
  C16      1.0000 0.17340  0.05530  0.56520  Biso   1.000  C
  H7       1.0000 0.70830  0.90650  0.39020  Biso   1.000  H
  H8       1.0000 0.29170  0.09350  0.60980  Biso   1.000  H
  Cu1      1.0000 0.51134  0.40124  0.58951  Biso   1.000  Cu
  Cu2      1.0000 0.48866  0.59876  0.41049  Biso   1.000  Cu
  I1       1.0000 0.28770  0.35097  0.38367  Biso   1.000  I
  I2       1.0000 0.71230  0.64903  0.61633  Biso   1.000  I
  N1       1.0000 0.17250  0.55490  0.69720  Biso   1.000  N
  N2       1.0000 0.82750  0.44510  0.30280  Biso   1.000  N
  H9       1.0000 0.08610  0.60110  0.70700  Biso   1.000  H
  H10      1.0000 0.91390  0.39890  0.29300  Biso   1.000  H
  H11      1.0000 0.23370  0.55260  0.62970  Biso   1.000  H
  H12      1.0000 0.76630  0.44740  0.37030  Biso   1.000  H
  N3       1.0000 0.59250  0.12210  0.39490  Biso   1.000  N
  N4       1.0000 0.40750  0.87790  0.60510  Biso   1.000  N
  H13      1.0000 0.58910  0.05230  0.33760  Biso   1.000  H
  H14      1.0000 0.41090  0.94770  0.66240  Biso   1.000  H
  H15      1.0000 0.50750  0.16860  0.38980  Biso   1.000  H
  H16      1.0000 0.49250  0.83140  0.61020  Biso   1.000  H
  S1       1.0000 0.36832  0.39564  0.77090  Biso   1.000  S
  S2       1.0000 0.63168  0.60436  0.22910  Biso   1.000  S
  S3       1.0000 0.73746  0.28623  0.60325  Biso   1.000  S
  S4       1.0000 0.26254  0.71377  0.39675  Biso   1.000  S
  C17      1.0000 0.55690  0.79140  0.93670  Biso   1.000  C
  C18      1.0000 0.44310  0.20860  0.06330  Biso   1.000  C
  H17      1.0000 0.67190  0.83040  0.90390  Biso   1.000  H
  H18      1.0000 0.32810  0.16960  0.09610  Biso   1.000  H
  H19      1.0000 0.44950  0.79190  0.87970  Biso   1.000  H
  H20      1.0000 0.55050  0.20810  0.12030  Biso   1.000  H
  H21      1.0000 0.55960  0.70180  0.94340  Biso   1.000  H
  H22      1.0000 0.44040  0.29820  0.05660  Biso   1.000  H
  C19      1.0000 0.54180  0.86570  0.06020  Biso   1.000  C
  C20      1.0000 0.45820  0.13430  0.93980  Biso   1.000  C
  N5       1.0000 0.53150  0.92410  0.15630  Biso   1.000  N
  N6       1.0000 0.46850  0.07590  0.84370  Biso   1.000  N
  C21      1.0000 0.07630  0.84910  0.00800  Biso   1.000  C
  C22      1.0000 0.92370  0.15090  0.99200  Biso   1.000  C
  N7       1.0000 0.10000  0.83070  0.90400  Biso   1.000  N
  N8       1.0000 0.90000  0.16930  0.09600  Biso   1.000  N
  C23      1.0000 0.04390  0.87090  0.13970  Biso   1.000  C
  C24      1.0000 0.95610  0.12910  0.86030  Biso   1.000  C
  H23      1.0000 0.14630  0.85100  0.18890  Biso   1.000  H
  H24      1.0000 0.85370  0.14900  0.81110  Biso   1.000  H
  H25      1.0000 0.92620  0.81450  0.15130  Biso   1.000  H
  H26      1.0000 0.07380  0.18550  0.84870  Biso   1.000  H
  H27      1.0000 0.03730  0.96180  0.16790  Biso   1.000  H
  H28      1.0000 0.96270  0.03820  0.83210  Biso   1.000  H
