data_image0
_cell_length_a       7.449
_cell_length_b       9.6089
_cell_length_c       11.4395
_cell_angle_alpha    98.018
_cell_angle_beta     93.683
_cell_angle_gamma    106.772

_symmetry_space_group_name_H-M    "P 1"
_symmetry_int_tables_number       1

loop_
  _symmetry_equiv_pos_as_xyz
  'x, y, z'

loop_
  _atom_site_label
  _atom_site_occupancy
  _atom_site_fract_x
  _atom_site_fract_y
  _atom_site_fract_z
  _atom_site_thermal_displace_type
  _atom_site_B_iso_or_equiv
  _atom_site_type_symbol
  C1       1.0000 0.27970  0.84510  0.00010  Biso   1.000  C
  C2       1.0000 0.72030  0.15490  0.99990  Biso   1.000  C
  C3       1.0000 0.13770  0.92670  0.99990  Biso   1.000  C
  C4       1.0000 0.86230  0.07330  0.00010  Biso   1.000  C
  C5       1.0000 0.12760  0.02410  0.09980  Biso   1.000  C
  C6       1.0000 0.87240  0.97590  0.90020  Biso   1.000  C
  H1       1.0000 0.21580  0.04160  0.16810  Biso   1.000  H
  H2       1.0000 0.78420  0.95840  0.83190  Biso   1.000  H
  C7       1.0000 0.00910  0.90440  0.89900  Biso   1.000  C
  C8       1.0000 0.99090  0.09560  0.10100  Biso   1.000  C
  H3       1.0000 0.01590  0.84000  0.82960  Biso   1.000  H
  H4       1.0000 0.98410  0.16000  0.17040  Biso   1.000  H
  C9       1.0000 0.81230  0.52930  0.71220  Biso   1.000  C
  C10      1.0000 0.18770  0.47070  0.28780  Biso   1.000  C
  C11      1.0000 0.90880  0.51190  0.60290  Biso   1.000  C
  C12      1.0000 0.09120  0.48810  0.39710  Biso   1.000  C
  C13      1.0000 0.81280  0.49800  0.49060  Biso   1.000  C
  C14      1.0000 0.18720  0.50200  0.50940  Biso   1.000  C
  H5       1.0000 0.68450  0.49640  0.48400  Biso   1.000  H
  H6       1.0000 0.31550  0.50360  0.51600  Biso   1.000  H
  C15      1.0000 0.09760  0.51360  0.61110  Biso   1.000  C
  C16      1.0000 0.90240  0.48640  0.38890  Biso   1.000  C
  H7       1.0000 0.16460  0.52270  0.68670  Biso   1.000  H
  H8       1.0000 0.83540  0.47730  0.31330  Biso   1.000  H
  Cu1      1.0000 0.51691  0.62194  0.88990  Biso   1.000  Cu
  Cu2      1.0000 0.48309  0.37806  0.11010  Biso   1.000  Cu
  I1       1.0000 0.73344  0.64483  0.09175  Biso   1.000  I
  I2       1.0000 0.26656  0.35517  0.90825  Biso   1.000  I
  N1       1.0000 0.33910  0.81620  0.10250  Biso   1.000  N
  N2       1.0000 0.66090  0.18380  0.89750  Biso   1.000  N
  H9       1.0000 0.29480  0.84500  0.16810  Biso   1.000  H
  H10      1.0000 0.70520  0.15500  0.83190  Biso   1.000  H
  H11      1.0000 0.42310  0.76810  0.10530  Biso   1.000  H
  H12      1.0000 0.57690  0.23190  0.89470  Biso   1.000  H
  N3       1.0000 0.87590  0.49100  0.80860  Biso   1.000  N
  N4       1.0000 0.12410  0.50900  0.19140  Biso   1.000  N
  H13      1.0000 0.97300  0.45620  0.80770  Biso   1.000  H
  H14      1.0000 0.02700  0.54380  0.19230  Biso   1.000  H
  H15      1.0000 0.82150  0.50020  0.87400  Biso   1.000  H
  H16      1.0000 0.17850  0.49980  0.12600  Biso   1.000  H
  S1       1.0000 0.35661  0.78880  0.87110  Biso   1.000  S
  S2       1.0000 0.64339  0.21120  0.12890  Biso   1.000  S
  S3       1.0000 0.63350  0.60418  0.71036  Biso   1.000  S
  S4       1.0000 0.36650  0.39582  0.28964  Biso   1.000  S
  N5       1.0000 0.26300  0.02330  0.51850  Biso   1.000  N
  N6       1.0000 0.73700  0.97670  0.48150  Biso   1.000  N
  O1       1.0000 0.25670  0.88100  0.34080  Biso   1.000  O
  O2       1.0000 0.74330  0.11900  0.65920  Biso   1.000  O
  C17      1.0000 0.29470  0.00140  0.40490  Biso   1.000  C
  C18      1.0000 0.70530  0.99860  0.59510  Biso   1.000  C
  H17      1.0000 0.35130  0.08610  0.37080  Biso   1.000  H
  H18      1.0000 0.64870  0.91390  0.62920  Biso   1.000  H
  C19      1.0000 0.18370  0.90210  0.57870  Biso   1.000  C
  C20      1.0000 0.81630  0.09790  0.42130  Biso   1.000  C
  H19      1.0000 0.07250  0.91570  0.61440  Biso   1.000  H
  H20      1.0000 0.92750  0.08430  0.38560  Biso   1.000  H
  H21      1.0000 0.27760  0.89800  0.64110  Biso   1.000  H
  H22      1.0000 0.72240  0.10200  0.35890  Biso   1.000  H
  H23      1.0000 0.14670  0.80990  0.52180  Biso   1.000  H
  H24      1.0000 0.85330  0.19010  0.47820  Biso   1.000  H
  C21      1.0000 0.31140  0.17340  0.58590  Biso   1.000  C
  C22      1.0000 0.68860  0.82660  0.41410  Biso   1.000  C
  H25      1.0000 0.36510  0.24470  0.53440  Biso   1.000  H
  H26      1.0000 0.63490  0.75530  0.46560  Biso   1.000  H
  H27      1.0000 0.40400  0.18410  0.65390  Biso   1.000  H
  H28      1.0000 0.59600  0.81590  0.34610  Biso   1.000  H
  H29      1.0000 0.19750  0.19150  0.61420  Biso   1.000  H
  H30      1.0000 0.80250  0.80850  0.38580  Biso   1.000  H
  C23      1.0000 0.22700  0.89500  0.44500  Biso   1.000  C
  C24      1.0000 0.77300  0.10500  0.55500  Biso   1.000  C
  H31      1.0000 0.17520  0.80760  0.47710  Biso   1.000  H
  H32      1.0000 0.82480  0.19240  0.52290  Biso   1.000  H
  C25      1.0000 0.19800  0.97600  0.62800  Biso   1.000  C
  C26      1.0000 0.80200  0.02400  0.37200  Biso   1.000  C
  H33      1.0000 0.07490  0.90050  0.61020  Biso   1.000  H
  H34      1.0000 0.92510  0.09950  0.38980  Biso   1.000  H
  H35      1.0000 0.18610  0.06090  0.68220  Biso   1.000  H
  H36      1.0000 0.81390  0.93910  0.31780  Biso   1.000  H
  H37      1.0000 0.28910  0.93570  0.66580  Biso   1.000  H
  H38      1.0000 0.71090  0.06430  0.33420  Biso   1.000  H
  C27      1.0000 0.36500  0.17900  0.54200  Biso   1.000  C
  C28      1.0000 0.63500  0.82100  0.45800  Biso   1.000  C
  H39      1.0000 0.43280  0.20660  0.47360  Biso   1.000  H
  H40      1.0000 0.56720  0.79340  0.52640  Biso   1.000  H
  H41      1.0000 0.45630  0.20080  0.61270  Biso   1.000  H
  H42      1.0000 0.54370  0.79920  0.38730  Biso   1.000  H
  H43      1.0000 0.27650  0.23650  0.55500  Biso   1.000  H
  H44      1.0000 0.72350  0.76350  0.44500  Biso   1.000  H
