data_image0
_cell_length_a       7.5033
_cell_length_b       9.6766
_cell_length_c       11.4138
_cell_angle_alpha    98.385
_cell_angle_beta     93.378
_cell_angle_gamma    105.284

_symmetry_space_group_name_H-M    "P 1"
_symmetry_int_tables_number       1

loop_
  _symmetry_equiv_pos_as_xyz
  'x, y, z'

loop_
  _atom_site_label
  _atom_site_occupancy
  _atom_site_fract_x
  _atom_site_fract_y
  _atom_site_fract_z
  _atom_site_thermal_displace_type
  _atom_site_B_iso_or_equiv
  _atom_site_type_symbol
  C1       1.0000 0.27630  0.84310  0.00110  Biso   1.000  C
  C2       1.0000 0.72370  0.15690  0.99890  Biso   1.000  C
  C3       1.0000 0.13690  0.92590  0.00060  Biso   1.000  C
  C4       1.0000 0.86310  0.07410  0.99940  Biso   1.000  C
  C5       1.0000 0.12710  0.02570  0.09890  Biso   1.000  C
  C6       1.0000 0.87290  0.97430  0.90110  Biso   1.000  C
  H1       1.0000 0.21260  0.04400  0.16550  Biso   1.000  H
  H2       1.0000 0.78740  0.95600  0.83450  Biso   1.000  H
  C7       1.0000 0.00860  0.90230  0.90180  Biso   1.000  C
  C8       1.0000 0.99140  0.09770  0.09820  Biso   1.000  C
  H3       1.0000 0.01450  0.83670  0.83490  Biso   1.000  H
  H4       1.0000 0.98550  0.16330  0.16510  Biso   1.000  H
  C9       1.0000 0.81370  0.53000  0.71250  Biso   1.000  C
  C10      1.0000 0.18630  0.47000  0.28750  Biso   1.000  C
  C11      1.0000 0.91030  0.51170  0.60280  Biso   1.000  C
  C12      1.0000 0.08970  0.48830  0.39720  Biso   1.000  C
  C13      1.0000 0.81530  0.49760  0.49180  Biso   1.000  C
  C14      1.0000 0.18470  0.50240  0.50820  Biso   1.000  C
  H5       1.0000 0.69060  0.49630  0.48580  Biso   1.000  H
  H6       1.0000 0.30940  0.50370  0.51420  Biso   1.000  H
  C15      1.0000 0.09510  0.51450  0.61020  Biso   1.000  C
  C16      1.0000 0.90490  0.48550  0.38980  Biso   1.000  C
  H7       1.0000 0.16020  0.52470  0.68420  Biso   1.000  H
  H8       1.0000 0.83980  0.47530  0.31580  Biso   1.000  H
  Cu1      1.0000 0.51752  0.62078  0.89185  Biso   1.000  Cu
  Cu2      1.0000 0.48248  0.37922  0.10815  Biso   1.000  Cu
  I1       1.0000 0.73078  0.64333  0.09255  Biso   1.000  I
  I2       1.0000 0.26922  0.35667  0.90745  Biso   1.000  I
  N1       1.0000 0.33640  0.81730  0.10360  Biso   1.000  N
  N2       1.0000 0.66360  0.18270  0.89640  Biso   1.000  N
  H9       1.0000 0.29460  0.84840  0.16790  Biso   1.000  H
  H10      1.0000 0.70540  0.15160  0.83210  Biso   1.000  H
  H11      1.0000 0.41760  0.76940  0.10660  Biso   1.000  H
  H12      1.0000 0.58240  0.23060  0.89340  Biso   1.000  H
  N3       1.0000 0.87930  0.49330  0.80860  Biso   1.000  N
  N4       1.0000 0.12070  0.50670  0.19140  Biso   1.000  N
  H13      1.0000 0.97480  0.46000  0.80710  Biso   1.000  H
  H14      1.0000 0.02520  0.54000  0.19290  Biso   1.000  H
  H15      1.0000 0.82680  0.50250  0.87320  Biso   1.000  H
  H16      1.0000 0.17320  0.49750  0.12680  Biso   1.000  H
  S1       1.0000 0.35545  0.78621  0.87358  Biso   1.000  S
  S2       1.0000 0.64455  0.21379  0.12642  Biso   1.000  S
  S3       1.0000 0.63240  0.59989  0.71159  Biso   1.000  S
  S4       1.0000 0.36760  0.40011  0.28841  Biso   1.000  S
  N5       1.0000 0.25910  0.01820  0.52240  Biso   1.000  N
  N6       1.0000 0.74090  0.98180  0.47760  Biso   1.000  N
  O1       1.0000 0.25090  0.88890  0.34190  Biso   1.000  O
  O2       1.0000 0.74910  0.11110  0.65810  Biso   1.000  O
  C17      1.0000 0.29020  0.00490  0.40700  Biso   1.000  C
  C18      1.0000 0.70980  0.99510  0.59300  Biso   1.000  C
  H17      1.0000 0.34400  0.08820  0.37630  Biso   1.000  H
  H18      1.0000 0.65600  0.91180  0.62370  Biso   1.000  H
  C19      1.0000 0.19200  0.89940  0.57900  Biso   1.000  C
  C20      1.0000 0.80800  0.10060  0.42100  Biso   1.000  C
  H19      1.0000 0.05920  0.87750  0.57620  Biso   1.000  H
  H20      1.0000 0.94080  0.12250  0.42380  Biso   1.000  H
  H21      1.0000 0.24490  0.92200  0.66040  Biso   1.000  H
  H22      1.0000 0.75510  0.07800  0.33960  Biso   1.000  H
  H23      1.0000 0.22560  0.81680  0.53920  Biso   1.000  H
  H24      1.0000 0.77440  0.18320  0.46080  Biso   1.000  H
  C21      1.0000 0.31600  0.17060  0.58590  Biso   1.000  C
  C22      1.0000 0.68400  0.82940  0.41410  Biso   1.000  C
  H25      1.0000 0.43670  0.21900  0.56540  Biso   1.000  H
  H26      1.0000 0.56330  0.78100  0.43460  Biso   1.000  H
  H27      1.0000 0.32190  0.17140  0.67020  Biso   1.000  H
  H28      1.0000 0.67810  0.82860  0.32980  Biso   1.000  H
  H29      1.0000 0.22790  0.22000  0.56300  Biso   1.000  H
  H30      1.0000 0.77210  0.78000  0.43700  Biso   1.000  H
  C23      1.0000 0.21200  0.89210  0.44540  Biso   1.000  C
  C24      1.0000 0.78800  0.10790  0.55460  Biso   1.000  C
  H31      1.0000 0.14970  0.80670  0.47050  Biso   1.000  H
  H32      1.0000 0.85030  0.19330  0.52950  Biso   1.000  H
  C25      1.0000 0.19500  0.99200  0.64200  Biso   1.000  C
  C26      1.0000 0.80500  0.00800  0.35800  Biso   1.000  C
  H33      1.0000 0.10850  0.89720  0.63300  Biso   1.000  H
  H34      1.0000 0.89150  0.10280  0.36700  Biso   1.000  H
  H35      1.0000 0.13520  0.06430  0.67150  Biso   1.000  H
  H36      1.0000 0.86480  0.93570  0.32850  Biso   1.000  H
  H37      1.0000 0.29970  0.99730  0.69610  Biso   1.000  H
  H38      1.0000 0.70030  0.00270  0.30390  Biso   1.000  H
  C27      1.0000 0.32800  0.16000  0.50200  Biso   1.000  C
  C28      1.0000 0.67200  0.84000  0.49800  Biso   1.000  C
  H39      1.0000 0.42420  0.16340  0.44920  Biso   1.000  H
  H40      1.0000 0.57580  0.83660  0.55080  Biso   1.000  H
  H41      1.0000 0.37850  0.22320  0.57570  Biso   1.000  H
  H42      1.0000 0.62150  0.77680  0.42430  Biso   1.000  H
  H43      1.0000 0.22970  0.19100  0.46570  Biso   1.000  H
  H44      1.0000 0.77030  0.80900  0.53430  Biso   1.000  H
