data_image0
_cell_length_a       9.59
_cell_length_b       27.429
_cell_length_c       13.416
_cell_angle_alpha    90
_cell_angle_beta     105.8
_cell_angle_gamma    90

_symmetry_space_group_name_H-M    "P 1"
_symmetry_int_tables_number       1

loop_
  _symmetry_equiv_pos_as_xyz
  'x, y, z'

loop_
  _atom_site_label
  _atom_site_occupancy
  _atom_site_fract_x
  _atom_site_fract_y
  _atom_site_fract_z
  _atom_site_thermal_displace_type
  _atom_site_B_iso_or_equiv
  _atom_site_type_symbol
  Cu1      1.0000 0.82360  0.11447  0.22540  Biso   1.000  Cu
  Cu2      1.0000 0.82360  0.88553  0.72540  Biso   1.000  Cu
  Cu3      1.0000 0.32360  0.61447  0.22540  Biso   1.000  Cu
  Cu4      1.0000 0.32360  0.38553  0.72540  Biso   1.000  Cu
  Cl1      1.0000 0.46540  0.17300  0.80900  Biso   1.000  Cl
  Cl2      1.0000 0.46540  0.82700  0.30900  Biso   1.000  Cl
  Cl3      1.0000 0.96540  0.67300  0.80900  Biso   1.000  Cl
  Cl4      1.0000 0.96540  0.32700  0.30900  Biso   1.000  Cl
  O1       1.0000 0.44400  0.22360  0.79570  Biso   1.000  O
  O2       1.0000 0.44400  0.77640  0.29570  Biso   1.000  O
  O3       1.0000 0.94400  0.72360  0.79570  Biso   1.000  O
  O4       1.0000 0.94400  0.27640  0.29570  Biso   1.000  O
  O5       1.0000 0.45000  0.15950  0.90800  Biso   1.000  O
  O6       1.0000 0.45000  0.84050  0.40800  Biso   1.000  O
  O7       1.0000 0.95000  0.65950  0.90800  Biso   1.000  O
  O8       1.0000 0.95000  0.34050  0.40800  Biso   1.000  O
  O9       1.0000 0.34800  0.14950  0.73700  Biso   1.000  O
  O10      1.0000 0.34800  0.85050  0.23700  Biso   1.000  O
  O11      1.0000 0.84800  0.64950  0.73700  Biso   1.000  O
  O12      1.0000 0.84800  0.35050  0.23700  Biso   1.000  O
  O13      1.0000 0.58800  0.15800  0.78510  Biso   1.000  O
  O14      1.0000 0.58800  0.84200  0.28510  Biso   1.000  O
  O15      1.0000 0.08800  0.65800  0.78510  Biso   1.000  O
  O16      1.0000 0.08800  0.34200  0.28510  Biso   1.000  O
  O17      1.0000 0.93800  0.96360  0.43300  Biso   1.000  O
  O18      1.0000 0.93800  0.03640  0.93300  Biso   1.000  O
  O19      1.0000 0.43800  0.46360  0.43300  Biso   1.000  O
  O20      1.0000 0.43800  0.53640  0.93300  Biso   1.000  O
  O21      1.0000 0.80800  0.95510  0.41300  Biso   1.000  O
  O22      1.0000 0.80800  0.04490  0.91300  Biso   1.000  O
  O23      1.0000 0.30800  0.45510  0.41300  Biso   1.000  O
  O24      1.0000 0.30800  0.54490  0.91300  Biso   1.000  O
  O25      1.0000 0.81400  0.03500  0.51000  Biso   1.000  O
  O26      1.0000 0.81400  0.96500  0.01000  Biso   1.000  O
  O27      1.0000 0.31400  0.53500  0.51000  Biso   1.000  O
  O28      1.0000 0.31400  0.46500  0.01000  Biso   1.000  O
  N1       1.0000 0.65800  0.07560  0.14190  Biso   1.000  N
  N2       1.0000 0.65800  0.92440  0.64190  Biso   1.000  N
  N3       1.0000 0.15800  0.57560  0.14190  Biso   1.000  N
  N4       1.0000 0.15800  0.42440  0.64190  Biso   1.000  N
  N5       1.0000 0.99300  0.92590  0.80190  Biso   1.000  N
  N6       1.0000 0.99300  0.07410  0.30190  Biso   1.000  N
  N7       1.0000 0.49300  0.42590  0.80190  Biso   1.000  N
  N8       1.0000 0.49300  0.57410  0.30190  Biso   1.000  N
  N9       1.0000 0.89500  0.15990  0.12910  Biso   1.000  N
  N10      1.0000 0.89500  0.84010  0.62910  Biso   1.000  N
  N11      1.0000 0.39500  0.65990  0.12910  Biso   1.000  N
  N12      1.0000 0.39500  0.34010  0.62910  Biso   1.000  N
  N13      1.0000 0.26500  0.34310  0.82670  Biso   1.000  N
  N14      1.0000 0.26500  0.65690  0.32670  Biso   1.000  N
  N15      1.0000 0.76500  0.84310  0.82670  Biso   1.000  N
  N16      1.0000 0.76500  0.15690  0.32670  Biso   1.000  N
  N17      1.0000 0.33200  0.07990  0.23200  Biso   1.000  N
  N18      1.0000 0.33200  0.92010  0.73200  Biso   1.000  N
  N19      1.0000 0.83200  0.57990  0.23200  Biso   1.000  N
  N20      1.0000 0.83200  0.42010  0.73200  Biso   1.000  N
  N21      1.0000 0.42500  0.36260  0.16800  Biso   1.000  N
  N22      1.0000 0.42500  0.63740  0.66800  Biso   1.000  N
  N23      1.0000 0.92500  0.86260  0.16800  Biso   1.000  N
  N24      1.0000 0.92500  0.13740  0.66800  Biso   1.000  N
  C1       1.0000 0.56500  0.05440  0.09600  Biso   1.000  C
  C2       1.0000 0.56500  0.94560  0.59600  Biso   1.000  C
  C3       1.0000 0.06500  0.55440  0.09600  Biso   1.000  C
  C4       1.0000 0.06500  0.44560  0.59600  Biso   1.000  C
  C5       1.0000 0.44400  0.02650  0.03430  Biso   1.000  C
  C6       1.0000 0.44400  0.97350  0.53430  Biso   1.000  C
  C7       1.0000 0.94400  0.52650  0.03430  Biso   1.000  C
  C8       1.0000 0.94400  0.47350  0.53430  Biso   1.000  C
  C9       1.0000 0.36200  0.04550  0.93900  Biso   1.000  C
  C10      1.0000 0.36200  0.95450  0.43900  Biso   1.000  C
  C11      1.0000 0.86200  0.54550  0.93900  Biso   1.000  C
  C12      1.0000 0.86200  0.45450  0.43900  Biso   1.000  C
  C13      1.0000 0.24300  0.02090  0.87400  Biso   1.000  C
  C14      1.0000 0.24300  0.97910  0.37400  Biso   1.000  C
  C15      1.0000 0.74300  0.52090  0.87400  Biso   1.000  C
  C16      1.0000 0.74300  0.47910  0.37400  Biso   1.000  C
  C17      1.0000 0.21200  0.97580  0.91400  Biso   1.000  C
  C18      1.0000 0.21200  0.02420  0.41400  Biso   1.000  C
  C19      1.0000 0.71200  0.47580  0.91400  Biso   1.000  C
  C20      1.0000 0.71200  0.52420  0.41400  Biso   1.000  C
  C21      1.0000 0.28600  0.95810  0.01250  Biso   1.000  C
  C22      1.0000 0.28600  0.04190  0.51250  Biso   1.000  C
  C23      1.0000 0.78600  0.45810  0.01250  Biso   1.000  C
  C24      1.0000 0.78600  0.54190  0.51250  Biso   1.000  C
  C25      1.0000 0.40200  0.98370  0.07150  Biso   1.000  C
  C26      1.0000 0.40200  0.01630  0.57150  Biso   1.000  C
  C27      1.0000 0.90200  0.48370  0.07150  Biso   1.000  C
  C28      1.0000 0.90200  0.51630  0.57150  Biso   1.000  C
  C29      1.0000 0.09200  0.94880  0.85310  Biso   1.000  C
  C30      1.0000 0.09200  0.05120  0.35310  Biso   1.000  C
  C31      1.0000 0.59200  0.44880  0.85310  Biso   1.000  C
  C32      1.0000 0.59200  0.55120  0.35310  Biso   1.000  C
  C33      1.0000 0.16000  0.03810  0.77200  Biso   1.000  C
  C34      1.0000 0.16000  0.96190  0.27200  Biso   1.000  C
  C35      1.0000 0.66000  0.53810  0.77200  Biso   1.000  C
  C36      1.0000 0.66000  0.46190  0.27200  Biso   1.000  C
  C37      1.0000 0.48600  0.96300  0.17700  Biso   1.000  C
  C38      1.0000 0.48600  0.03700  0.67700  Biso   1.000  C
  C39      1.0000 0.98600  0.46300  0.17700  Biso   1.000  C
  C40      1.0000 0.98600  0.53700  0.67700  Biso   1.000  C
  C41      1.0000 0.94900  0.18670  0.08700  Biso   1.000  C
  C42      1.0000 0.94900  0.81330  0.58700  Biso   1.000  C
  C43      1.0000 0.44900  0.68670  0.08700  Biso   1.000  C
  C44      1.0000 0.44900  0.31330  0.58700  Biso   1.000  C
  C45      1.0000 0.01900  0.21960  0.03300  Biso   1.000  C
  C46      1.0000 0.01900  0.78040  0.53300  Biso   1.000  C
  C47      1.0000 0.51900  0.71960  0.03300  Biso   1.000  C
  C48      1.0000 0.51900  0.28040  0.53300  Biso   1.000  C
  C49      1.0000 0.00300  0.27010  0.04780  Biso   1.000  C
  C50      1.0000 0.00300  0.72990  0.54780  Biso   1.000  C
  C51      1.0000 0.50300  0.77010  0.04780  Biso   1.000  C
  C52      1.0000 0.50300  0.22990  0.54780  Biso   1.000  C
  C53      1.0000 0.06700  0.30370  0.99680  Biso   1.000  C
  C54      1.0000 0.06700  0.69630  0.49680  Biso   1.000  C
  C55      1.0000 0.56700  0.80370  0.99680  Biso   1.000  C
  C56      1.0000 0.56700  0.19630  0.49680  Biso   1.000  C
  C57      1.0000 0.15200  0.28360  0.93560  Biso   1.000  C
  C58      1.0000 0.15200  0.71640  0.43560  Biso   1.000  C
  C59      1.0000 0.65200  0.78360  0.93560  Biso   1.000  C
  C60      1.0000 0.65200  0.21640  0.43560  Biso   1.000  C
  C61      1.0000 0.16200  0.23570  0.91940  Biso   1.000  C
  C62      1.0000 0.16200  0.76430  0.41940  Biso   1.000  C
  C63      1.0000 0.66200  0.73570  0.91940  Biso   1.000  C
  C64      1.0000 0.66200  0.26430  0.41940  Biso   1.000  C
  C65      1.0000 0.09100  0.20110  0.96800  Biso   1.000  C
  C66      1.0000 0.09100  0.79890  0.46800  Biso   1.000  C
  C67      1.0000 0.59100  0.70110  0.96800  Biso   1.000  C
  C68      1.0000 0.59100  0.29890  0.46800  Biso   1.000  C
  C69      1.0000 0.22200  0.31790  0.87620  Biso   1.000  C
  C70      1.0000 0.22200  0.68210  0.37620  Biso   1.000  C
  C71      1.0000 0.72200  0.81790  0.87620  Biso   1.000  C
  C72      1.0000 0.72200  0.18210  0.37620  Biso   1.000  C
  C73      1.0000 0.06500  0.35780  0.01400  Biso   1.000  C
  C74      1.0000 0.06500  0.64220  0.51400  Biso   1.000  C
  C75      1.0000 0.56500  0.85780  0.01400  Biso   1.000  C
  C76      1.0000 0.56500  0.14220  0.51400  Biso   1.000  C
  C77      1.0000 0.10900  0.14740  0.95100  Biso   1.000  C
  C78      1.0000 0.10900  0.85260  0.45100  Biso   1.000  C
  C79      1.0000 0.60900  0.64740  0.95100  Biso   1.000  C
  C80      1.0000 0.60900  0.35260  0.45100  Biso   1.000  C
  C81      1.0000 0.34800  0.12010  0.23300  Biso   1.000  C
  C82      1.0000 0.34800  0.87990  0.73300  Biso   1.000  C
  C83      1.0000 0.84800  0.62010  0.23300  Biso   1.000  C
  C84      1.0000 0.84800  0.37990  0.73300  Biso   1.000  C
  C85      1.0000 0.36500  0.17360  0.21890  Biso   1.000  C
  C86      1.0000 0.36500  0.82640  0.71890  Biso   1.000  C
  C87      1.0000 0.86500  0.67360  0.21890  Biso   1.000  C
  C88      1.0000 0.86500  0.32640  0.71890  Biso   1.000  C
  C89      1.0000 0.45200  0.18890  0.15380  Biso   1.000  C
  C90      1.0000 0.45200  0.81110  0.65380  Biso   1.000  C
  C91      1.0000 0.95200  0.68890  0.15380  Biso   1.000  C
  C92      1.0000 0.95200  0.31110  0.65380  Biso   1.000  C
  C93      1.0000 0.47100  0.23970  0.14470  Biso   1.000  C
  C94      1.0000 0.47100  0.76030  0.64470  Biso   1.000  C
  C95      1.0000 0.97100  0.73970  0.14470  Biso   1.000  C
  C96      1.0000 0.97100  0.26030  0.64470  Biso   1.000  C
  C97      1.0000 0.39900  0.27040  0.19410  Biso   1.000  C
  C98      1.0000 0.39900  0.72960  0.69410  Biso   1.000  C
  C99      1.0000 0.89900  0.77040  0.19410  Biso   1.000  C
  C100     1.0000 0.89900  0.22960  0.69410  Biso   1.000  C
  C101     1.0000 0.31500  0.25480  0.25460  Biso   1.000  C
  C102     1.0000 0.31500  0.74520  0.75460  Biso   1.000  C
  C103     1.0000 0.81500  0.75480  0.25460  Biso   1.000  C
  C104     1.0000 0.81500  0.24520  0.75460  Biso   1.000  C
  C105     1.0000 0.29300  0.20450  0.26990  Biso   1.000  C
  C106     1.0000 0.29300  0.79550  0.76990  Biso   1.000  C
  C107     1.0000 0.79300  0.70450  0.26990  Biso   1.000  C
  C108     1.0000 0.79300  0.29550  0.76990  Biso   1.000  C
  C109     1.0000 0.41600  0.32250  0.18100  Biso   1.000  C
  C110     1.0000 0.41600  0.67750  0.68100  Biso   1.000  C
  C111     1.0000 0.91600  0.82250  0.18100  Biso   1.000  C
  C112     1.0000 0.91600  0.17750  0.68100  Biso   1.000  C
  C113     1.0000 0.57500  0.25720  0.08300  Biso   1.000  C
  C114     1.0000 0.57500  0.74280  0.58300  Biso   1.000  C
  C115     1.0000 0.07500  0.75720  0.08300  Biso   1.000  C
  C116     1.0000 0.07500  0.24280  0.58300  Biso   1.000  C
  C117     1.0000 0.20700  0.18770  0.34000  Biso   1.000  C
  C118     1.0000 0.20700  0.81230  0.84000  Biso   1.000  C
  C119     1.0000 0.70700  0.68770  0.34000  Biso   1.000  C
  C120     1.0000 0.70700  0.31230  0.84000  Biso   1.000  C
  C121     1.0000 0.93400  0.96950  0.52200  Biso   1.000  C
  C122     1.0000 0.93400  0.03050  0.02200  Biso   1.000  C
  C123     1.0000 0.43400  0.46950  0.52200  Biso   1.000  C
  C124     1.0000 0.43400  0.53050  0.02200  Biso   1.000  C
  C125     1.0000 0.68800  0.97830  0.41200  Biso   1.000  C
  C126     1.0000 0.68800  0.02170  0.91200  Biso   1.000  C
  C127     1.0000 0.18800  0.47830  0.41200  Biso   1.000  C
  C128     1.0000 0.18800  0.52170  0.91200  Biso   1.000  C
  C129     1.0000 0.87200  0.01760  0.54900  Biso   1.000  C
  C130     1.0000 0.87200  0.98240  0.04900  Biso   1.000  C
  C131     1.0000 0.37200  0.51760  0.54900  Biso   1.000  C
  C132     1.0000 0.37200  0.48240  0.04900  Biso   1.000  C
  C133     1.0000 0.73200  0.02080  0.42600  Biso   1.000  C
  C134     1.0000 0.73200  0.97920  0.92600  Biso   1.000  C
  C135     1.0000 0.23200  0.52080  0.42600  Biso   1.000  C
  C136     1.0000 0.23200  0.47920  0.92600  Biso   1.000  C
  H1       1.0000 0.39000  0.07520  0.91920  Biso   1.000  H
  H2       1.0000 0.39000  0.92480  0.41920  Biso   1.000  H
  H3       1.0000 0.89000  0.57520  0.91920  Biso   1.000  H
  H4       1.0000 0.89000  0.42480  0.41920  Biso   1.000  H
  H5       1.0000 0.24660  0.93640  0.03360  Biso   1.000  H
  H6       1.0000 0.24660  0.06360  0.53360  Biso   1.000  H
  H7       1.0000 0.74660  0.43640  0.03360  Biso   1.000  H
  H8       1.0000 0.74660  0.56360  0.53360  Biso   1.000  H
  H9       1.0000 0.20040  0.06960  0.76230  Biso   1.000  H
  H10      1.0000 0.20040  0.93040  0.26230  Biso   1.000  H
  H11      1.0000 0.70040  0.56960  0.76230  Biso   1.000  H
  H12      1.0000 0.70040  0.43040  0.26230  Biso   1.000  H
  H13      1.0000 0.06400  0.04140  0.77120  Biso   1.000  H
  H14      1.0000 0.06400  0.95860  0.27120  Biso   1.000  H
  H15      1.0000 0.56400  0.54140  0.77120  Biso   1.000  H
  H16      1.0000 0.56400  0.45860  0.27120  Biso   1.000  H
  H17      1.0000 0.17420  0.01640  0.72180  Biso   1.000  H
  H18      1.0000 0.17420  0.98360  0.22180  Biso   1.000  H
  H19      1.0000 0.67420  0.51640  0.72180  Biso   1.000  H
  H20      1.0000 0.67420  0.48360  0.22180  Biso   1.000  H
  H21      1.0000 0.59040  0.95710  0.17210  Biso   1.000  H
  H22      1.0000 0.59040  0.04290  0.67210  Biso   1.000  H
  H23      1.0000 0.09040  0.45710  0.17210  Biso   1.000  H
  H24      1.0000 0.09040  0.54290  0.67210  Biso   1.000  H
  H25      1.0000 0.49920  0.98730  0.22940  Biso   1.000  H
  H26      1.0000 0.49920  0.01270  0.72940  Biso   1.000  H
  H27      1.0000 0.99920  0.48730  0.22940  Biso   1.000  H
  H28      1.0000 0.99920  0.51270  0.72940  Biso   1.000  H
  H29      1.0000 0.45410  0.93430  0.19460  Biso   1.000  H
  H30      1.0000 0.45410  0.06570  0.69460  Biso   1.000  H
  H31      1.0000 0.95410  0.43430  0.19460  Biso   1.000  H
  H32      1.0000 0.95410  0.56570  0.69460  Biso   1.000  H
  H33      1.0000 0.94010  0.28160  0.09680  Biso   1.000  H
  H34      1.0000 0.94010  0.71840  0.59680  Biso   1.000  H
  H35      1.0000 0.44010  0.78160  0.09680  Biso   1.000  H
  H36      1.0000 0.44010  0.21840  0.59680  Biso   1.000  H
  H37      1.0000 0.21870  0.22030  0.87040  Biso   1.000  H
  H38      1.0000 0.21870  0.77970  0.37040  Biso   1.000  H
  H39      1.0000 0.71870  0.72030  0.87040  Biso   1.000  H
  H40      1.0000 0.71870  0.27970  0.37040  Biso   1.000  H
  H41      1.0000 0.99710  0.36540  0.05180  Biso   1.000  H
  H42      1.0000 0.99710  0.63460  0.55180  Biso   1.000  H
  H43      1.0000 0.49710  0.86540  0.05180  Biso   1.000  H
  H44      1.0000 0.49710  0.13460  0.55180  Biso   1.000  H
  H45      1.0000 0.01940  0.37190  0.94230  Biso   1.000  H
  H46      1.0000 0.01940  0.62810  0.44230  Biso   1.000  H
  H47      1.0000 0.51940  0.87190  0.94230  Biso   1.000  H
  H48      1.0000 0.51940  0.12810  0.44230  Biso   1.000  H
  H49      1.0000 0.15230  0.37070  0.03900  Biso   1.000  H
  H50      1.0000 0.15230  0.62930  0.53900  Biso   1.000  H
  H51      1.0000 0.65230  0.87070  0.03900  Biso   1.000  H
  H52      1.0000 0.65230  0.12930  0.53900  Biso   1.000  H
  H53      1.0000 0.05760  0.12800  0.98190  Biso   1.000  H
  H54      1.0000 0.05760  0.87200  0.48190  Biso   1.000  H
  H55      1.0000 0.55760  0.62800  0.98190  Biso   1.000  H
  H56      1.0000 0.55760  0.37200  0.48190  Biso   1.000  H
  H57      1.0000 0.20850  0.13900  0.96560  Biso   1.000  H
  H58      1.0000 0.20850  0.86100  0.46560  Biso   1.000  H
  H59      1.0000 0.70850  0.63900  0.96560  Biso   1.000  H
  H60      1.0000 0.70850  0.36100  0.46560  Biso   1.000  H
  H61      1.0000 0.07070  0.14220  0.87290  Biso   1.000  H
  H62      1.0000 0.07070  0.85780  0.37290  Biso   1.000  H
  H63      1.0000 0.57070  0.64220  0.87290  Biso   1.000  H
  H64      1.0000 0.57070  0.35780  0.37290  Biso   1.000  H
  H65      1.0000 0.52210  0.16800  0.12610  Biso   1.000  H
  H66      1.0000 0.52210  0.83200  0.62610  Biso   1.000  H
  H67      1.0000 0.02210  0.66800  0.12610  Biso   1.000  H
  H68      1.0000 0.02210  0.33200  0.62610  Biso   1.000  H
  H69      1.0000 0.26360  0.27770  0.28750  Biso   1.000  H
  H70      1.0000 0.26360  0.72230  0.78750  Biso   1.000  H
  H71      1.0000 0.76360  0.77770  0.28750  Biso   1.000  H
  H72      1.0000 0.76360  0.22230  0.78750  Biso   1.000  H
  H73      1.0000 0.66990  0.24580  0.11280  Biso   1.000  H
  H74      1.0000 0.66990  0.75420  0.61280  Biso   1.000  H
  H75      1.0000 0.16990  0.74580  0.11280  Biso   1.000  H
  H76      1.0000 0.16990  0.25420  0.61280  Biso   1.000  H
  H77      1.0000 0.54210  0.24720  0.01280  Biso   1.000  H
  H78      1.0000 0.54210  0.75280  0.51280  Biso   1.000  H
  H79      1.0000 0.04210  0.74720  0.01280  Biso   1.000  H
  H80      1.0000 0.04210  0.25280  0.51280  Biso   1.000  H
  H81      1.0000 0.57640  0.29250  0.08460  Biso   1.000  H
  H82      1.0000 0.57640  0.70750  0.58460  Biso   1.000  H
  H83      1.0000 0.07640  0.79250  0.08460  Biso   1.000  H
  H84      1.0000 0.07640  0.20750  0.58460  Biso   1.000  H
  H85      1.0000 0.19940  0.15320  0.34290  Biso   1.000  H
  H86      1.0000 0.19940  0.84680  0.84290  Biso   1.000  H
  H87      1.0000 0.69940  0.65320  0.34290  Biso   1.000  H
  H88      1.0000 0.69940  0.34680  0.84290  Biso   1.000  H
  H89      1.0000 0.10430  0.19960  0.31550  Biso   1.000  H
  H90      1.0000 0.10430  0.80040  0.81550  Biso   1.000  H
  H91      1.0000 0.60430  0.69960  0.31550  Biso   1.000  H
  H92      1.0000 0.60430  0.30040  0.81550  Biso   1.000  H
  H93      1.0000 0.24110  0.19990  0.40940  Biso   1.000  H
  H94      1.0000 0.24110  0.80010  0.90940  Biso   1.000  H
  H95      1.0000 0.74110  0.69990  0.40940  Biso   1.000  H
  H96      1.0000 0.74110  0.30010  0.90940  Biso   1.000  H
