data_image0
_cell_length_a       9.599
_cell_length_b       27.298
_cell_length_c       13.367
_cell_angle_alpha    90
_cell_angle_beta     105.45
_cell_angle_gamma    90

_symmetry_space_group_name_H-M    "P 1"
_symmetry_int_tables_number       1

loop_
  _symmetry_equiv_pos_as_xyz
  'x, y, z'

loop_
  _atom_site_label
  _atom_site_occupancy
  _atom_site_fract_x
  _atom_site_fract_y
  _atom_site_fract_z
  _atom_site_thermal_displace_type
  _atom_site_B_iso_or_equiv
  _atom_site_type_symbol
  F1       1.0000 0.95900  0.34890  0.99600  Biso   1.000  F
  F2       1.0000 0.95900  0.65110  0.49600  Biso   1.000  F
  F3       1.0000 0.45900  0.84890  0.99600  Biso   1.000  F
  F4       1.0000 0.45900  0.15110  0.49600  Biso   1.000  F
  F5       1.0000 0.03900  0.27730  0.04860  Biso   1.000  F
  F6       1.0000 0.03900  0.72270  0.54860  Biso   1.000  F
  F7       1.0000 0.53900  0.77730  0.04860  Biso   1.000  F
  F8       1.0000 0.53900  0.22270  0.54860  Biso   1.000  F
  F9       1.0000 0.04500  0.34100  0.15200  Biso   1.000  F
  F10      1.0000 0.04500  0.65900  0.65200  Biso   1.000  F
  F11      1.0000 0.54500  0.84100  0.15200  Biso   1.000  F
  F12      1.0000 0.54500  0.15900  0.65200  Biso   1.000  F
  F13      1.0000 0.18200  0.34050  0.03800  Biso   1.000  F
  F14      1.0000 0.18200  0.65950  0.53800  Biso   1.000  F
  F15      1.0000 0.68200  0.84050  0.03800  Biso   1.000  F
  F16      1.0000 0.68200  0.15950  0.53800  Biso   1.000  F
  B1       1.0000 0.06500  0.32690  0.06100  Biso   1.000  B
  B2       1.0000 0.06500  0.67310  0.56100  Biso   1.000  B
  B3       1.0000 0.56500  0.82690  0.06100  Biso   1.000  B
  B4       1.0000 0.56500  0.17310  0.56100  Biso   1.000  B
  O1       1.0000 0.84600  0.97810  0.68100  Biso   1.000  O
  O2       1.0000 0.84600  0.02190  0.18100  Biso   1.000  O
  O3       1.0000 0.34600  0.47810  0.68100  Biso   1.000  O
  O4       1.0000 0.34600  0.52190  0.18100  Biso   1.000  O
  O5       1.0000 0.04500  0.02940  0.77700  Biso   1.000  O
  O6       1.0000 0.04500  0.97060  0.27700  Biso   1.000  O
  O7       1.0000 0.54500  0.52940  0.77700  Biso   1.000  O
  O8       1.0000 0.54500  0.47060  0.27700  Biso   1.000  O
  C1       1.0000 0.82300  0.96560  0.77900  Biso   1.000  C
  C2       1.0000 0.82300  0.03440  0.27900  Biso   1.000  C
  C3       1.0000 0.32300  0.46560  0.77900  Biso   1.000  C
  C4       1.0000 0.32300  0.53440  0.27900  Biso   1.000  C
  C5       1.0000 0.97500  0.98200  0.80900  Biso   1.000  C
  C6       1.0000 0.97500  0.01800  0.30900  Biso   1.000  C
  C7       1.0000 0.47500  0.48200  0.80900  Biso   1.000  C
  C8       1.0000 0.47500  0.51800  0.30900  Biso   1.000  C
  C9       1.0000 0.79200  0.02400  0.67000  Biso   1.000  C
  C10      1.0000 0.79200  0.97600  0.17000  Biso   1.000  C
  C11      1.0000 0.29200  0.52400  0.67000  Biso   1.000  C
  C12      1.0000 0.29200  0.47600  0.17000  Biso   1.000  C
  C13      1.0000 0.91900  0.04360  0.67400  Biso   1.000  C
  C14      1.0000 0.91900  0.95640  0.17400  Biso   1.000  C
  C15      1.0000 0.41900  0.54360  0.67400  Biso   1.000  C
  C16      1.0000 0.41900  0.45640  0.17400  Biso   1.000  C
  N1       1.0000 0.93400  0.58030  0.99300  Biso   1.000  N
  N2       1.0000 0.93400  0.41970  0.49300  Biso   1.000  N
  N3       1.0000 0.43400  0.08030  0.99300  Biso   1.000  N
  N4       1.0000 0.43400  0.91970  0.49300  Biso   1.000  N
  N5       1.0000 0.02900  0.86350  0.92300  Biso   1.000  N
  N6       1.0000 0.02900  0.13650  0.42300  Biso   1.000  N
  N7       1.0000 0.52900  0.36350  0.92300  Biso   1.000  N
  N8       1.0000 0.52900  0.63650  0.42300  Biso   1.000  N
  C17      1.0000 0.95400  0.62100  0.98800  Biso   1.000  C
  C18      1.0000 0.95400  0.37900  0.48800  Biso   1.000  C
  C19      1.0000 0.45400  0.12100  0.98800  Biso   1.000  C
  C20      1.0000 0.45400  0.87900  0.48800  Biso   1.000  C
  C21      1.0000 0.96500  0.67430  0.97400  Biso   1.000  C
  C22      1.0000 0.96500  0.32570  0.47400  Biso   1.000  C
  C23      1.0000 0.46500  0.17430  0.97400  Biso   1.000  C
  C24      1.0000 0.46500  0.82570  0.47400  Biso   1.000  C
  C25      1.0000 0.05200  0.68970  0.90800  Biso   1.000  C
  C26      1.0000 0.05200  0.31030  0.40800  Biso   1.000  C
  C27      1.0000 0.55200  0.18970  0.90800  Biso   1.000  C
  C28      1.0000 0.55200  0.81030  0.40800  Biso   1.000  C
  C29      1.0000 0.07500  0.73970  0.89900  Biso   1.000  C
  C30      1.0000 0.07500  0.26030  0.39900  Biso   1.000  C
  C31      1.0000 0.57500  0.23970  0.89900  Biso   1.000  C
  C32      1.0000 0.57500  0.76030  0.39900  Biso   1.000  C
  C33      1.0000 0.00100  0.77190  0.94700  Biso   1.000  C
  C34      1.0000 0.00100  0.22810  0.44700  Biso   1.000  C
  C35      1.0000 0.50100  0.27190  0.94700  Biso   1.000  C
  C36      1.0000 0.50100  0.72810  0.44700  Biso   1.000  C
  C37      1.0000 0.91400  0.75570  0.01000  Biso   1.000  C
  C38      1.0000 0.91400  0.24430  0.51000  Biso   1.000  C
  C39      1.0000 0.41400  0.25570  0.01000  Biso   1.000  C
  C40      1.0000 0.41400  0.74430  0.51000  Biso   1.000  C
  C41      1.0000 0.89500  0.70600  0.02410  Biso   1.000  C
  C42      1.0000 0.89500  0.29400  0.52410  Biso   1.000  C
  C43      1.0000 0.39500  0.20600  0.02410  Biso   1.000  C
  C44      1.0000 0.39500  0.79400  0.52410  Biso   1.000  C
  C45      1.0000 0.01700  0.82460  0.93400  Biso   1.000  C
  C46      1.0000 0.01700  0.17540  0.43400  Biso   1.000  C
  C47      1.0000 0.51700  0.32460  0.93400  Biso   1.000  C
  C48      1.0000 0.51700  0.67540  0.43400  Biso   1.000  C
  C49      1.0000 0.17200  0.75740  0.83500  Biso   1.000  C
  C50      1.0000 0.17200  0.24260  0.33500  Biso   1.000  C
  C51      1.0000 0.67200  0.25740  0.83500  Biso   1.000  C
  C52      1.0000 0.67200  0.74260  0.33500  Biso   1.000  C
  C53      1.0000 0.80500  0.68930  0.09200  Biso   1.000  C
  C54      1.0000 0.80500  0.31070  0.59200  Biso   1.000  C
  C55      1.0000 0.30500  0.18930  0.09200  Biso   1.000  C
  C56      1.0000 0.30500  0.81070  0.59200  Biso   1.000  C
  H1       1.0000 0.09160  0.66480  0.86800  Biso   1.000  H
  H2       1.0000 0.09160  0.33520  0.36800  Biso   1.000  H
  H3       1.0000 0.59160  0.16480  0.86800  Biso   1.000  H
  H4       1.0000 0.59160  0.83520  0.36800  Biso   1.000  H
  H5       1.0000 0.86640  0.77900  0.04410  Biso   1.000  H
  H6       1.0000 0.86640  0.22100  0.54410  Biso   1.000  H
  H7       1.0000 0.36640  0.27900  0.04410  Biso   1.000  H
  H8       1.0000 0.36640  0.72100  0.54410  Biso   1.000  H
  H9       1.0000 0.21400  0.73010  0.80720  Biso   1.000  H
  H10      1.0000 0.21400  0.26990  0.30720  Biso   1.000  H
  H11      1.0000 0.71400  0.23010  0.80720  Biso   1.000  H
  H12      1.0000 0.71400  0.76990  0.30720  Biso   1.000  H
  H13      1.0000 0.11750  0.77620  0.77650  Biso   1.000  H
  H14      1.0000 0.11750  0.22380  0.27650  Biso   1.000  H
  H15      1.0000 0.61750  0.27620  0.77650  Biso   1.000  H
  H16      1.0000 0.61750  0.72380  0.27650  Biso   1.000  H
  H17      1.0000 0.24800  0.77720  0.87430  Biso   1.000  H
  H18      1.0000 0.24800  0.22280  0.37430  Biso   1.000  H
  H19      1.0000 0.74800  0.27720  0.87430  Biso   1.000  H
  H20      1.0000 0.74800  0.72280  0.37430  Biso   1.000  H
  H21      1.0000 0.70820  0.70100  0.06590  Biso   1.000  H
  H22      1.0000 0.70820  0.29900  0.56590  Biso   1.000  H
  H23      1.0000 0.20820  0.20100  0.06590  Biso   1.000  H
  H24      1.0000 0.20820  0.79900  0.56590  Biso   1.000  H
  H25      1.0000 0.84330  0.70090  0.16050  Biso   1.000  H
  H26      1.0000 0.84330  0.29910  0.66050  Biso   1.000  H
  H27      1.0000 0.34330  0.20090  0.16050  Biso   1.000  H
  H28      1.0000 0.34330  0.79910  0.66050  Biso   1.000  H
  H29      1.0000 0.80220  0.65420  0.09300  Biso   1.000  H
  H30      1.0000 0.80220  0.34580  0.59300  Biso   1.000  H
  H31      1.0000 0.30220  0.15420  0.09300  Biso   1.000  H
  H32      1.0000 0.30220  0.84580  0.59300  Biso   1.000  H
  Cu1      1.0000 0.42910  0.61339  0.98150  Biso   1.000  Cu
  Cu2      1.0000 0.42910  0.38661  0.48150  Biso   1.000  Cu
  Cu3      1.0000 0.92910  0.11339  0.98150  Biso   1.000  Cu
  Cu4      1.0000 0.92910  0.88661  0.48150  Biso   1.000  Cu
  N9       1.0000 0.26100  0.57570  0.89660  Biso   1.000  N
  N10      1.0000 0.26100  0.42430  0.39660  Biso   1.000  N
  N11      1.0000 0.76100  0.07570  0.89660  Biso   1.000  N
  N12      1.0000 0.76100  0.92430  0.39660  Biso   1.000  N
  N13      1.0000 0.59600  0.42790  0.55660  Biso   1.000  N
  N14      1.0000 0.59600  0.57210  0.05660  Biso   1.000  N
  N15      1.0000 0.09600  0.92790  0.55660  Biso   1.000  N
  N16      1.0000 0.09600  0.07210  0.05660  Biso   1.000  N
  N17      1.0000 0.50100  0.65790  0.88700  Biso   1.000  N
  N18      1.0000 0.50100  0.34210  0.38700  Biso   1.000  N
  N19      1.0000 0.00100  0.15790  0.88700  Biso   1.000  N
  N20      1.0000 0.00100  0.84210  0.38700  Biso   1.000  N
  N21      1.0000 0.87000  0.84300  0.58360  Biso   1.000  N
  N22      1.0000 0.87000  0.15700  0.08360  Biso   1.000  N
  N23      1.0000 0.37000  0.34300  0.58360  Biso   1.000  N
  N24      1.0000 0.37000  0.65700  0.08360  Biso   1.000  N
  C57      1.0000 0.17100  0.55500  0.85400  Biso   1.000  C
  C58      1.0000 0.17100  0.44500  0.35400  Biso   1.000  C
  C59      1.0000 0.67100  0.05500  0.85400  Biso   1.000  C
  C60      1.0000 0.67100  0.94500  0.35400  Biso   1.000  C
  C61      1.0000 0.04400  0.52600  0.78800  Biso   1.000  C
  C62      1.0000 0.04400  0.47400  0.28800  Biso   1.000  C
  C63      1.0000 0.54400  0.02600  0.78800  Biso   1.000  C
  C64      1.0000 0.54400  0.97400  0.28800  Biso   1.000  C
  C65      1.0000 0.97000  0.54670  0.69800  Biso   1.000  C
  C66      1.0000 0.97000  0.45330  0.19800  Biso   1.000  C
  C67      1.0000 0.47000  0.04670  0.69800  Biso   1.000  C
  C68      1.0000 0.47000  0.95330  0.19800  Biso   1.000  C
  C69      1.0000 0.85200  0.52110  0.63100  Biso   1.000  C
  C70      1.0000 0.85200  0.47890  0.13100  Biso   1.000  C
  C71      1.0000 0.35200  0.02110  0.63100  Biso   1.000  C
  C72      1.0000 0.35200  0.97890  0.13100  Biso   1.000  C
  C73      1.0000 0.81400  0.47630  0.66800  Biso   1.000  C
  C74      1.0000 0.81400  0.52370  0.16800  Biso   1.000  C
  C75      1.0000 0.31400  0.97630  0.66800  Biso   1.000  C
  C76      1.0000 0.31400  0.02370  0.16800  Biso   1.000  C
  C77      1.0000 0.89100  0.45840  0.77000  Biso   1.000  C
  C78      1.0000 0.89100  0.54160  0.27000  Biso   1.000  C
  C79      1.0000 0.39100  0.95840  0.77000  Biso   1.000  C
  C80      1.0000 0.39100  0.04160  0.27000  Biso   1.000  C
  C81      1.0000 0.01000  0.48320  0.82720  Biso   1.000  C
  C82      1.0000 0.01000  0.51680  0.32720  Biso   1.000  C
  C83      1.0000 0.51000  0.98320  0.82720  Biso   1.000  C
  C84      1.0000 0.51000  0.01680  0.32720  Biso   1.000  C
  C85      1.0000 0.70000  0.44980  0.61000  Biso   1.000  C
  C86      1.0000 0.70000  0.55020  0.11000  Biso   1.000  C
  C87      1.0000 0.20000  0.94980  0.61000  Biso   1.000  C
  C88      1.0000 0.20000  0.05020  0.11000  Biso   1.000  C
  C89      1.0000 0.77000  0.54040  0.52900  Biso   1.000  C
  C90      1.0000 0.77000  0.45960  0.02900  Biso   1.000  C
  C91      1.0000 0.27000  0.04040  0.52900  Biso   1.000  C
  C92      1.0000 0.27000  0.95960  0.02900  Biso   1.000  C
  C93      1.0000 0.09100  0.46310  0.93400  Biso   1.000  C
  C94      1.0000 0.09100  0.53690  0.43400  Biso   1.000  C
  C95      1.0000 0.59100  0.96310  0.93400  Biso   1.000  C
  C96      1.0000 0.59100  0.03690  0.43400  Biso   1.000  C
  C97      1.0000 0.55100  0.68590  0.84000  Biso   1.000  C
  C98      1.0000 0.55100  0.31410  0.34000  Biso   1.000  C
  C99      1.0000 0.05100  0.18590  0.84000  Biso   1.000  C
  C100     1.0000 0.05100  0.81410  0.34000  Biso   1.000  C
  C101     1.0000 0.62500  0.72000  0.78800  Biso   1.000  C
  C102     1.0000 0.62500  0.28000  0.28800  Biso   1.000  C
  C103     1.0000 0.12500  0.22000  0.78800  Biso   1.000  C
  C104     1.0000 0.12500  0.78000  0.28800  Biso   1.000  C
  C105     1.0000 0.60600  0.77030  0.80200  Biso   1.000  C
  C106     1.0000 0.60600  0.22970  0.30200  Biso   1.000  C
  C107     1.0000 0.10600  0.27030  0.80200  Biso   1.000  C
  C108     1.0000 0.10600  0.72970  0.30200  Biso   1.000  C
  C109     1.0000 0.67100  0.80450  0.75300  Biso   1.000  C
  C110     1.0000 0.67100  0.19550  0.25300  Biso   1.000  C
  C111     1.0000 0.17100  0.30450  0.75300  Biso   1.000  C
  C112     1.0000 0.17100  0.69550  0.25300  Biso   1.000  C
  C113     1.0000 0.75900  0.78470  0.69100  Biso   1.000  C
  C114     1.0000 0.75900  0.21530  0.19100  Biso   1.000  C
  C115     1.0000 0.25900  0.28470  0.69100  Biso   1.000  C
  C116     1.0000 0.25900  0.71530  0.19100  Biso   1.000  C
  C117     1.0000 0.76700  0.73510  0.67300  Biso   1.000  C
  C118     1.0000 0.76700  0.26490  0.17300  Biso   1.000  C
  C119     1.0000 0.26700  0.23510  0.67300  Biso   1.000  C
  C120     1.0000 0.26700  0.76490  0.17300  Biso   1.000  C
  C121     1.0000 0.69700  0.70340  0.72400  Biso   1.000  C
  C122     1.0000 0.69700  0.29660  0.22400  Biso   1.000  C
  C123     1.0000 0.19700  0.20340  0.72400  Biso   1.000  C
  C124     1.0000 0.19700  0.79660  0.22400  Biso   1.000  C
  C125     1.0000 0.82200  0.81910  0.62900  Biso   1.000  C
  C126     1.0000 0.82200  0.18090  0.12900  Biso   1.000  C
  C127     1.0000 0.32200  0.31910  0.62900  Biso   1.000  C
  C128     1.0000 0.32200  0.68090  0.12900  Biso   1.000  C
  C129     1.0000 0.66800  0.85570  0.76900  Biso   1.000  C
  C130     1.0000 0.66800  0.14430  0.26900  Biso   1.000  C
  C131     1.0000 0.16800  0.35570  0.76900  Biso   1.000  C
  C132     1.0000 0.16800  0.64430  0.26900  Biso   1.000  C
  C133     1.0000 0.71800  0.64570  0.70300  Biso   1.000  C
  C134     1.0000 0.71800  0.35430  0.20300  Biso   1.000  C
  C135     1.0000 0.21800  0.14570  0.70300  Biso   1.000  C
  C136     1.0000 0.21800  0.85430  0.20300  Biso   1.000  C
  H33      1.0000 0.99660  0.57530  0.67390  Biso   1.000  H
  H34      1.0000 0.99660  0.42470  0.17390  Biso   1.000  H
  H35      1.0000 0.49660  0.07530  0.67390  Biso   1.000  H
  H36      1.0000 0.49660  0.92470  0.17390  Biso   1.000  H
  H37      1.0000 0.86270  0.43200  0.82200  Biso   1.000  H
  H38      1.0000 0.86270  0.56800  0.32200  Biso   1.000  H
  H39      1.0000 0.36270  0.93200  0.82200  Biso   1.000  H
  H40      1.0000 0.36270  0.06800  0.32200  Biso   1.000  H
  H41      1.0000 0.82900  0.57620  0.51200  Biso   1.000  H
  H42      1.0000 0.82900  0.42380  0.01200  Biso   1.000  H
  H43      1.0000 0.32900  0.07620  0.51200  Biso   1.000  H
  H44      1.0000 0.32900  0.92380  0.01200  Biso   1.000  H
  H45      1.0000 0.72080  0.54330  0.54370  Biso   1.000  H
  H46      1.0000 0.72080  0.45670  0.04370  Biso   1.000  H
  H47      1.0000 0.22080  0.04330  0.54370  Biso   1.000  H
  H48      1.0000 0.22080  0.95670  0.04370  Biso   1.000  H
  H49      1.0000 0.76770  0.51730  0.46760  Biso   1.000  H
  H50      1.0000 0.76770  0.48270  0.96760  Biso   1.000  H
  H51      1.0000 0.26770  0.01730  0.46760  Biso   1.000  H
  H52      1.0000 0.26770  0.98270  0.96760  Biso   1.000  H
  H53      1.0000 0.03260  0.46030  0.97730  Biso   1.000  H
  H54      1.0000 0.03260  0.53970  0.47730  Biso   1.000  H
  H55      1.0000 0.53260  0.96030  0.97730  Biso   1.000  H
  H56      1.0000 0.53260  0.03970  0.47730  Biso   1.000  H
  H57      1.0000 0.13080  0.43110  0.92340  Biso   1.000  H
  H58      1.0000 0.13080  0.56890  0.42340  Biso   1.000  H
  H59      1.0000 0.63080  0.93110  0.92340  Biso   1.000  H
  H60      1.0000 0.63080  0.06890  0.42340  Biso   1.000  H
  H61      1.0000 0.17240  0.48410  0.96220  Biso   1.000  H
  H62      1.0000 0.17240  0.51590  0.46220  Biso   1.000  H
  H63      1.0000 0.67240  0.98410  0.96220  Biso   1.000  H
  H64      1.0000 0.67240  0.01590  0.46220  Biso   1.000  H
  H65      1.0000 0.55160  0.77840  0.84730  Biso   1.000  H
  H66      1.0000 0.55160  0.22160  0.34730  Biso   1.000  H
  H67      1.0000 0.05160  0.27840  0.84730  Biso   1.000  H
  H68      1.0000 0.05160  0.72160  0.34730  Biso   1.000  H
  H69      1.0000 0.82070  0.72290  0.63390  Biso   1.000  H
  H70      1.0000 0.82070  0.27710  0.13390  Biso   1.000  H
  H71      1.0000 0.32070  0.22290  0.63390  Biso   1.000  H
  H72      1.0000 0.32070  0.77710  0.13390  Biso   1.000  H
  H73      1.0000 0.56170  0.86470  0.75010  Biso   1.000  H
  H74      1.0000 0.56170  0.13530  0.25010  Biso   1.000  H
  H75      1.0000 0.06170  0.36470  0.75010  Biso   1.000  H
  H76      1.0000 0.06170  0.63530  0.25010  Biso   1.000  H
  H77      1.0000 0.71200  0.87370  0.73070  Biso   1.000  H
  H78      1.0000 0.71200  0.12630  0.23070  Biso   1.000  H
  H79      1.0000 0.21200  0.37370  0.73070  Biso   1.000  H
  H80      1.0000 0.21200  0.62630  0.23070  Biso   1.000  H
  H81      1.0000 0.70010  0.86260  0.84190  Biso   1.000  H
  H82      1.0000 0.70010  0.13740  0.34190  Biso   1.000  H
  H83      1.0000 0.20010  0.36260  0.84190  Biso   1.000  H
  H84      1.0000 0.20010  0.63740  0.34190  Biso   1.000  H
  H85      1.0000 0.76180  0.63000  0.77390  Biso   1.000  H
  H86      1.0000 0.76180  0.37000  0.27390  Biso   1.000  H
  H87      1.0000 0.26180  0.13000  0.77390  Biso   1.000  H
  H88      1.0000 0.26180  0.87000  0.27390  Biso   1.000  H
  H89      1.0000 0.76850  0.63810  0.66040  Biso   1.000  H
  H90      1.0000 0.76850  0.36190  0.16040  Biso   1.000  H
  H91      1.0000 0.26850  0.13810  0.66040  Biso   1.000  H
  H92      1.0000 0.26850  0.86190  0.16040  Biso   1.000  H
  H93      1.0000 0.62060  0.63020  0.68430  Biso   1.000  H
  H94      1.0000 0.62060  0.36980  0.18430  Biso   1.000  H
  H95      1.0000 0.12060  0.13020  0.68430  Biso   1.000  H
  H96      1.0000 0.12060  0.86980  0.18430  Biso   1.000  H
