data_image0
_cell_length_a       7.4464
_cell_length_b       7.7982
_cell_length_c       9.94
_cell_angle_alpha    80.15
_cell_angle_beta     76.02
_cell_angle_gamma    85.13

_symmetry_space_group_name_H-M    "P 1"
_symmetry_int_tables_number       1

loop_
  _symmetry_equiv_pos_as_xyz
  'x, y, z'

loop_
  _atom_site_label
  _atom_site_occupancy
  _atom_site_fract_x
  _atom_site_fract_y
  _atom_site_fract_z
  _atom_site_thermal_displace_type
  _atom_site_B_iso_or_equiv
  _atom_site_type_symbol
  Br1      1.0000 0.83874  0.38319  0.41251  Biso   1.000  Br
  Br2      1.0000 0.16126  0.61681  0.58749  Biso   1.000  Br
  Cu1      1.0000 0.16354  0.33917  0.39002  Biso   1.000  Cu
  Cu2      1.0000 0.83646  0.66083  0.60998  Biso   1.000  Cu
  N1       1.0000 0.29170  0.50930  0.22810  Biso   1.000  N
  N2       1.0000 0.70830  0.49070  0.77190  Biso   1.000  N
  N3       1.0000 0.08950  0.99160  0.77630  Biso   1.000  N
  N4       1.0000 0.91050  0.00840  0.22370  Biso   1.000  N
  N5       1.0000 0.23980  0.94140  0.82470  Biso   1.000  N
  N6       1.0000 0.76020  0.05860  0.17530  Biso   1.000  N
  N7       1.0000 0.94160  0.90320  0.84180  Biso   1.000  N
  N8       1.0000 0.05840  0.09680  0.15820  Biso   1.000  N
  N9       1.0000 0.99420  0.78760  0.93990  Biso   1.000  N
  N10      1.0000 0.00580  0.21240  0.06010  Biso   1.000  N
  C1       1.0000 0.46520  0.55230  0.21920  Biso   1.000  C
  C2       1.0000 0.53480  0.44770  0.78080  Biso   1.000  C
  H1       1.0000 0.52640  0.49710  0.28720  Biso   1.000  H
  H2       1.0000 0.47360  0.50290  0.71280  Biso   1.000  H
  C3       1.0000 0.55610  0.67410  0.11440  Biso   1.000  C
  C4       1.0000 0.44390  0.32590  0.88560  Biso   1.000  C
  H3       1.0000 0.67770  0.69850  0.10990  Biso   1.000  H
  H4       1.0000 0.32230  0.30150  0.89010  Biso   1.000  H
  C5       1.0000 0.46320  0.76080  0.01440  Biso   1.000  C
  C6       1.0000 0.53680  0.23920  0.98560  Biso   1.000  C
  H5       1.0000 0.52130  0.84500  0.94270  Biso   1.000  H
  H6       1.0000 0.47870  0.15500  0.05730  Biso   1.000  H
  C7       1.0000 0.20390  0.59090  0.13100  Biso   1.000  C
  C8       1.0000 0.79610  0.40910  0.86900  Biso   1.000  C
  H7       1.0000 0.08440  0.56030  0.13550  Biso   1.000  H
  H8       1.0000 0.91560  0.43970  0.86450  Biso   1.000  H
  C9       1.0000 0.28390  0.71950  0.02380  Biso   1.000  C
  C10      1.0000 0.71610  0.28050  0.97620  Biso   1.000  C
  C11      1.0000 0.17520  0.81330  0.92760  Biso   1.000  C
  C12      1.0000 0.82480  0.18670  0.07240  Biso   1.000  C
  C13      1.0000 0.08200  0.14350  0.66690  Biso   1.000  C
  C14      1.0000 0.91800  0.85650  0.33310  Biso   1.000  C
  H9       1.0000 0.12520  0.24370  0.69370  Biso   1.000  H
  H10      1.0000 0.87480  0.75630  0.30630  Biso   1.000  H
  H11      1.0000 0.95430  0.16940  0.66050  Biso   1.000  H
  H12      1.0000 0.04570  0.83060  0.33950  Biso   1.000  H
  C15      1.0000 0.19680  0.11480  0.52610  Biso   1.000  C
  C16      1.0000 0.80320  0.88520  0.47390  Biso   1.000  C
  H13      1.0000 0.17770  0.00600  0.49560  Biso   1.000  H
  H14      1.0000 0.82230  0.99400  0.50440  Biso   1.000  H
  C17      1.0000 0.36370  0.18590  0.46660  Biso   1.000  C
  C18      1.0000 0.63630  0.81410  0.53340  Biso   1.000  C
  H15      1.0000 0.45020  0.12210  0.40100  Biso   1.000  H
  H16      1.0000 0.54980  0.87790  0.59900  Biso   1.000  H
  H17      1.0000 0.42170  0.23480  0.52800  Biso   1.000  H
  H18      1.0000 0.57830  0.76520  0.47200  Biso   1.000  H
