data_image0
_cell_length_a       16.647
_cell_length_b       4.1826
_cell_length_c       12.8187
_cell_angle_alpha    90
_cell_angle_beta     105.786
_cell_angle_gamma    90

_symmetry_space_group_name_H-M    "P 1"
_symmetry_int_tables_number       1

loop_
  _symmetry_equiv_pos_as_xyz
  'x, y, z'

loop_
  _atom_site_label
  _atom_site_occupancy
  _atom_site_fract_x
  _atom_site_fract_y
  _atom_site_fract_z
  _atom_site_thermal_displace_type
  _atom_site_B_iso_or_equiv
  _atom_site_type_symbol
  I1       1.0000 0.13600  0.07290  0.02070  Biso   1.000  I
  I2       1.0000 0.36400  0.57290  0.97930  Biso   1.000  I
  I3       1.0000 0.86400  0.92710  0.97930  Biso   1.000  I
  I4       1.0000 0.63600  0.42710  0.02070  Biso   1.000  I
  Cu1      1.0000 0.23820  0.57570  0.07260  Biso   1.000  Cu
  Cu2      1.0000 0.26180  0.07570  0.92740  Biso   1.000  Cu
  Cu3      1.0000 0.76180  0.42430  0.92740  Biso   1.000  Cu
  Cu4      1.0000 0.73820  0.92430  0.07260  Biso   1.000  Cu
  N1       1.0000 0.29050  0.52130  0.22810  Biso   1.000  N
  N2       1.0000 0.20950  0.02130  0.77190  Biso   1.000  N
  N3       1.0000 0.70950  0.47870  0.77190  Biso   1.000  N
  N4       1.0000 0.79050  0.97870  0.22810  Biso   1.000  N
  C1       1.0000 0.32440  0.43320  0.31210  Biso   1.000  C
  C2       1.0000 0.17560  0.93320  0.68790  Biso   1.000  C
  C3       1.0000 0.67560  0.56680  0.68790  Biso   1.000  C
  C4       1.0000 0.82440  0.06680  0.31210  Biso   1.000  C
  N5       1.0000 0.35560  0.35070  0.41540  Biso   1.000  N
  N6       1.0000 0.14440  0.85070  0.58460  Biso   1.000  N
  N7       1.0000 0.64440  0.64930  0.58460  Biso   1.000  N
  N8       1.0000 0.85560  0.14930  0.41540  Biso   1.000  N
  C5       1.0000 0.42240  0.18190  0.45180  Biso   1.000  C
  C6       1.0000 0.07760  0.68190  0.54820  Biso   1.000  C
  C7       1.0000 0.57760  0.81810  0.54820  Biso   1.000  C
  C8       1.0000 0.92240  0.31810  0.45180  Biso   1.000  C
  C9       1.0000 0.47500  0.05650  0.38700  Biso   1.000  C
  C10      1.0000 0.02500  0.55650  0.61300  Biso   1.000  C
  C11      1.0000 0.52500  0.94350  0.61300  Biso   1.000  C
  C12      1.0000 0.97500  0.44350  0.38700  Biso   1.000  C
  S1       1.0000 0.45550  0.08680  0.25010  Biso   1.000  S
  S2       1.0000 0.04450  0.58680  0.74990  Biso   1.000  S
  S3       1.0000 0.54450  0.91320  0.74990  Biso   1.000  S
  S4       1.0000 0.95550  0.41320  0.25010  Biso   1.000  S
  C13      1.0000 0.54420  0.87880  0.25080  Biso   1.000  C
  C14      1.0000 0.95580  0.37880  0.74920  Biso   1.000  C
  C15      1.0000 0.45580  0.12120  0.74920  Biso   1.000  C
  C16      1.0000 0.04420  0.62120  0.25080  Biso   1.000  C
  C17      1.0000 0.58830  0.78040  0.35090  Biso   1.000  C
  C18      1.0000 0.91170  0.28040  0.64910  Biso   1.000  C
  C19      1.0000 0.41170  0.21960  0.64910  Biso   1.000  C
  C20      1.0000 0.08830  0.71960  0.35090  Biso   1.000  C
  C21      1.0000 0.45110  0.12260  0.56910  Biso   1.000  C
  C22      1.0000 0.04890  0.62260  0.43090  Biso   1.000  C
  C23      1.0000 0.54890  0.87740  0.43090  Biso   1.000  C
  C24      1.0000 0.95110  0.37740  0.56910  Biso   1.000  C
  C25      1.0000 0.66810  0.59930  0.36920  Biso   1.000  C
  C26      1.0000 0.83190  0.09930  0.63080  Biso   1.000  C
  C27      1.0000 0.33190  0.40070  0.63080  Biso   1.000  C
  C28      1.0000 0.16810  0.90070  0.36920  Biso   1.000  C
  H1       1.0000 0.57200  0.81200  0.18600  Biso   1.000  H
  H2       1.0000 0.92800  0.31200  0.81400  Biso   1.000  H
  H3       1.0000 0.42800  0.18800  0.81400  Biso   1.000  H
  H4       1.0000 0.07200  0.68800  0.18600  Biso   1.000  H
  H5       1.0000 0.69300  0.54100  0.45600  Biso   1.000  H
  H6       1.0000 0.80700  0.04100  0.54400  Biso   1.000  H
  H7       1.0000 0.30700  0.45900  0.54400  Biso   1.000  H
  H8       1.0000 0.19300  0.95900  0.45600  Biso   1.000  H
  H9       1.0000 0.65700  0.37100  0.32400  Biso   1.000  H
  H10      1.0000 0.84300  0.87100  0.67600  Biso   1.000  H
  H11      1.0000 0.34300  0.62900  0.67600  Biso   1.000  H
  H12      1.0000 0.15700  0.12900  0.32400  Biso   1.000  H
  H13      1.0000 0.71500  0.73500  0.34300  Biso   1.000  H
  H14      1.0000 0.78500  0.23500  0.65700  Biso   1.000  H
  H15      1.0000 0.28500  0.26500  0.65700  Biso   1.000  H
  H16      1.0000 0.21500  0.76500  0.34300  Biso   1.000  H
