data_image0
_cell_length_a       14.102
_cell_length_b       15.392
_cell_length_c       8.233
_cell_angle_alpha    90
_cell_angle_beta     97.833
_cell_angle_gamma    90

_symmetry_space_group_name_H-M    "P 1"
_symmetry_int_tables_number       1

loop_
  _symmetry_equiv_pos_as_xyz
  'x, y, z'

loop_
  _atom_site_label
  _atom_site_occupancy
  _atom_site_fract_x
  _atom_site_fract_y
  _atom_site_fract_z
  _atom_site_thermal_displace_type
  _atom_site_B_iso_or_equiv
  _atom_site_type_symbol
  I1       1.0000 0.13300  0.04727  0.42585  Biso   1.000  I
  I2       1.0000 0.86700  0.04727  0.07415  Biso   1.000  I
  I3       1.0000 0.63300  0.54727  0.42585  Biso   1.000  I
  I4       1.0000 0.36700  0.54727  0.07415  Biso   1.000  I
  I5       1.0000 0.86700  0.95273  0.57415  Biso   1.000  I
  I6       1.0000 0.13300  0.95273  0.92585  Biso   1.000  I
  I7       1.0000 0.36700  0.45273  0.57415  Biso   1.000  I
  I8       1.0000 0.63300  0.45273  0.92585  Biso   1.000  I
  Cu1      1.0000 0.05421  0.06713  0.11323  Biso   1.000  Cu
  Cu2      1.0000 0.94579  0.06713  0.38677  Biso   1.000  Cu
  Cu3      1.0000 0.55421  0.56713  0.11323  Biso   1.000  Cu
  Cu4      1.0000 0.44579  0.56713  0.38677  Biso   1.000  Cu
  Cu5      1.0000 0.94579  0.93287  0.88677  Biso   1.000  Cu
  Cu6      1.0000 0.05421  0.93287  0.61323  Biso   1.000  Cu
  Cu7      1.0000 0.44579  0.43287  0.88677  Biso   1.000  Cu
  Cu8      1.0000 0.55421  0.43287  0.61323  Biso   1.000  Cu
  N1       1.0000 0.09450  0.18680  0.04020  Biso   1.000  N
  N2       1.0000 0.90550  0.18680  0.45980  Biso   1.000  N
  N3       1.0000 0.59450  0.68680  0.04020  Biso   1.000  N
  N4       1.0000 0.40550  0.68680  0.45980  Biso   1.000  N
  N5       1.0000 0.90550  0.81320  0.95980  Biso   1.000  N
  N6       1.0000 0.09450  0.81320  0.54020  Biso   1.000  N
  N7       1.0000 0.40550  0.31320  0.95980  Biso   1.000  N
  N8       1.0000 0.59450  0.31320  0.54020  Biso   1.000  N
  C1       1.0000 0.10740  0.20270  0.88330  Biso   1.000  C
  C2       1.0000 0.89260  0.20270  0.61670  Biso   1.000  C
  C3       1.0000 0.60740  0.70270  0.88330  Biso   1.000  C
  C4       1.0000 0.39260  0.70270  0.61670  Biso   1.000  C
  C5       1.0000 0.89260  0.79730  0.11670  Biso   1.000  C
  C6       1.0000 0.10740  0.79730  0.38330  Biso   1.000  C
  C7       1.0000 0.39260  0.29730  0.11670  Biso   1.000  C
  C8       1.0000 0.60740  0.29730  0.38330  Biso   1.000  C
  C9       1.0000 0.13160  0.28150  0.82720  Biso   1.000  C
  C10      1.0000 0.86840  0.28150  0.67280  Biso   1.000  C
  C11      1.0000 0.63160  0.78150  0.82720  Biso   1.000  C
  C12      1.0000 0.36840  0.78150  0.67280  Biso   1.000  C
  C13      1.0000 0.86840  0.71850  0.17280  Biso   1.000  C
  C14      1.0000 0.13160  0.71850  0.32720  Biso   1.000  C
  C15      1.0000 0.36840  0.21850  0.17280  Biso   1.000  C
  C16      1.0000 0.63160  0.21850  0.32720  Biso   1.000  C
  C17      1.0000 0.14180  0.34990  0.93650  Biso   1.000  C
  C18      1.0000 0.85820  0.34990  0.56350  Biso   1.000  C
  C19      1.0000 0.64180  0.84990  0.93650  Biso   1.000  C
  C20      1.0000 0.35820  0.84990  0.56350  Biso   1.000  C
  C21      1.0000 0.85820  0.65010  0.06350  Biso   1.000  C
  C22      1.0000 0.14180  0.65010  0.43650  Biso   1.000  C
  C23      1.0000 0.35820  0.15010  0.06350  Biso   1.000  C
  C24      1.0000 0.64180  0.15010  0.43650  Biso   1.000  C
  C25      1.0000 0.12930  0.33740  0.09910  Biso   1.000  C
  C26      1.0000 0.87070  0.33740  0.40090  Biso   1.000  C
  C27      1.0000 0.62930  0.83740  0.09910  Biso   1.000  C
  C28      1.0000 0.37070  0.83740  0.40090  Biso   1.000  C
  C29      1.0000 0.87070  0.66260  0.90090  Biso   1.000  C
  C30      1.0000 0.12930  0.66260  0.59910  Biso   1.000  C
  C31      1.0000 0.37070  0.16260  0.90090  Biso   1.000  C
  C32      1.0000 0.62930  0.16260  0.59910  Biso   1.000  C
  C33      1.0000 0.10600  0.25470  0.14470  Biso   1.000  C
  C34      1.0000 0.89400  0.25470  0.35530  Biso   1.000  C
  C35      1.0000 0.60600  0.75470  0.14470  Biso   1.000  C
  C36      1.0000 0.39400  0.75470  0.35530  Biso   1.000  C
  C37      1.0000 0.89400  0.74530  0.85530  Biso   1.000  C
  C38      1.0000 0.10600  0.74530  0.64470  Biso   1.000  C
  C39      1.0000 0.39400  0.24530  0.85530  Biso   1.000  C
  C40      1.0000 0.60600  0.24530  0.64470  Biso   1.000  C
  C41      1.0000 0.14280  0.29400  0.64780  Biso   1.000  C
  C42      1.0000 0.85720  0.29400  0.85220  Biso   1.000  C
  C43      1.0000 0.64280  0.79400  0.64780  Biso   1.000  C
  C44      1.0000 0.35720  0.79400  0.85220  Biso   1.000  C
  C45      1.0000 0.85720  0.70600  0.35220  Biso   1.000  C
  C46      1.0000 0.14280  0.70600  0.14780  Biso   1.000  C
  C47      1.0000 0.35720  0.20600  0.35220  Biso   1.000  C
  C48      1.0000 0.64280  0.20600  0.14780  Biso   1.000  C
  C49      1.0000 0.14060  0.41120  0.22220  Biso   1.000  C
  C50      1.0000 0.85940  0.41120  0.27780  Biso   1.000  C
  C51      1.0000 0.64060  0.91120  0.22220  Biso   1.000  C
  C52      1.0000 0.35940  0.91120  0.27780  Biso   1.000  C
  C53      1.0000 0.85940  0.58880  0.77780  Biso   1.000  C
  C54      1.0000 0.14060  0.58880  0.72220  Biso   1.000  C
  C55      1.0000 0.35940  0.08880  0.77780  Biso   1.000  C
  C56      1.0000 0.64060  0.08880  0.72220  Biso   1.000  C
  H1       1.0000 0.09980  0.15660  0.80960  Biso   1.000  H
  H2       1.0000 0.90020  0.15660  0.69040  Biso   1.000  H
  H3       1.0000 0.59980  0.65660  0.80960  Biso   1.000  H
  H4       1.0000 0.40020  0.65660  0.69040  Biso   1.000  H
  H5       1.0000 0.90020  0.84340  0.19040  Biso   1.000  H
  H6       1.0000 0.09980  0.84340  0.30960  Biso   1.000  H
  H7       1.0000 0.40020  0.34340  0.19040  Biso   1.000  H
  H8       1.0000 0.59980  0.34340  0.30960  Biso   1.000  H
  H9       1.0000 0.15770  0.40470  0.90070  Biso   1.000  H
  H10      1.0000 0.84230  0.40470  0.59930  Biso   1.000  H
  H11      1.0000 0.65770  0.90470  0.90070  Biso   1.000  H
  H12      1.0000 0.34230  0.90470  0.59930  Biso   1.000  H
  H13      1.0000 0.84230  0.59530  0.09930  Biso   1.000  H
  H14      1.0000 0.15770  0.59530  0.40070  Biso   1.000  H
  H15      1.0000 0.34230  0.09530  0.09930  Biso   1.000  H
  H16      1.0000 0.65770  0.09530  0.40070  Biso   1.000  H
  H17      1.0000 0.09830  0.24500  0.25360  Biso   1.000  H
  H18      1.0000 0.90170  0.24500  0.24640  Biso   1.000  H
  H19      1.0000 0.59830  0.74500  0.25360  Biso   1.000  H
  H20      1.0000 0.40170  0.74500  0.24640  Biso   1.000  H
  H21      1.0000 0.90170  0.75500  0.74640  Biso   1.000  H
  H22      1.0000 0.09830  0.75500  0.75360  Biso   1.000  H
  H23      1.0000 0.40170  0.25500  0.74640  Biso   1.000  H
  H24      1.0000 0.59830  0.25500  0.75360  Biso   1.000  H
  H25      1.0000 0.08360  0.28020  0.58070  Biso   1.000  H
  H26      1.0000 0.91640  0.28020  0.91930  Biso   1.000  H
  H27      1.0000 0.58360  0.78020  0.58070  Biso   1.000  H
  H28      1.0000 0.41640  0.78020  0.91930  Biso   1.000  H
  H29      1.0000 0.91640  0.71980  0.41930  Biso   1.000  H
  H30      1.0000 0.08360  0.71980  0.08070  Biso   1.000  H
  H31      1.0000 0.41640  0.21980  0.41930  Biso   1.000  H
  H32      1.0000 0.58360  0.21980  0.08070  Biso   1.000  H
  H33      1.0000 0.15950  0.35330  0.62930  Biso   1.000  H
  H34      1.0000 0.84050  0.35330  0.87070  Biso   1.000  H
  H35      1.0000 0.65950  0.85330  0.62930  Biso   1.000  H
  H36      1.0000 0.34050  0.85330  0.87070  Biso   1.000  H
  H37      1.0000 0.84050  0.64670  0.37070  Biso   1.000  H
  H38      1.0000 0.15950  0.64670  0.12930  Biso   1.000  H
  H39      1.0000 0.34050  0.14670  0.37070  Biso   1.000  H
  H40      1.0000 0.65950  0.14670  0.12930  Biso   1.000  H
  H41      1.0000 0.19240  0.25640  0.61990  Biso   1.000  H
  H42      1.0000 0.80760  0.25640  0.88010  Biso   1.000  H
  H43      1.0000 0.69240  0.75640  0.61990  Biso   1.000  H
  H44      1.0000 0.30760  0.75640  0.88010  Biso   1.000  H
  H45      1.0000 0.80760  0.74360  0.38010  Biso   1.000  H
  H46      1.0000 0.19240  0.74360  0.11990  Biso   1.000  H
  H47      1.0000 0.30760  0.24360  0.38010  Biso   1.000  H
  H48      1.0000 0.69240  0.24360  0.11990  Biso   1.000  H
  H49      1.0000 0.19080  0.39700  0.30900  Biso   1.000  H
  H50      1.0000 0.80920  0.39700  0.19100  Biso   1.000  H
  H51      1.0000 0.69080  0.89700  0.30900  Biso   1.000  H
  H52      1.0000 0.30920  0.89700  0.19100  Biso   1.000  H
  H53      1.0000 0.80920  0.60300  0.69100  Biso   1.000  H
  H54      1.0000 0.19080  0.60300  0.80900  Biso   1.000  H
  H55      1.0000 0.30920  0.10300  0.69100  Biso   1.000  H
  H56      1.0000 0.69080  0.10300  0.80900  Biso   1.000  H
  H57      1.0000 0.15620  0.46420  0.17040  Biso   1.000  H
  H58      1.0000 0.84380  0.46420  0.32960  Biso   1.000  H
  H59      1.0000 0.65620  0.96420  0.17040  Biso   1.000  H
  H60      1.0000 0.34380  0.96420  0.32960  Biso   1.000  H
  H61      1.0000 0.84380  0.53580  0.82960  Biso   1.000  H
  H62      1.0000 0.15620  0.53580  0.67040  Biso   1.000  H
  H63      1.0000 0.34380  0.03580  0.82960  Biso   1.000  H
  H64      1.0000 0.65620  0.03580  0.67040  Biso   1.000  H
  H65      1.0000 0.08160  0.41850  0.26660  Biso   1.000  H
  H66      1.0000 0.91840  0.41850  0.23340  Biso   1.000  H
  H67      1.0000 0.58160  0.91850  0.26660  Biso   1.000  H
  H68      1.0000 0.41840  0.91850  0.23340  Biso   1.000  H
  H69      1.0000 0.91840  0.58150  0.73340  Biso   1.000  H
  H70      1.0000 0.08160  0.58150  0.76660  Biso   1.000  H
  H71      1.0000 0.41840  0.08150  0.73340  Biso   1.000  H
  H72      1.0000 0.58160  0.08150  0.76660  Biso   1.000  H
