data_image0
_cell_length_a       4.1415
_cell_length_b       27.341
_cell_length_c       7.5831
_cell_angle_alpha    90
_cell_angle_beta     96.983
_cell_angle_gamma    90

_symmetry_space_group_name_H-M    "P 1"
_symmetry_int_tables_number       1

loop_
  _symmetry_equiv_pos_as_xyz
  'x, y, z'

loop_
  _atom_site_label
  _atom_site_occupancy
  _atom_site_fract_x
  _atom_site_fract_y
  _atom_site_fract_z
  _atom_site_thermal_displace_type
  _atom_site_B_iso_or_equiv
  _atom_site_type_symbol
  I1       1.0000 0.68385  0.97216  0.75681  Biso   1.000  I
  I2       1.0000 0.31615  0.47216  0.74319  Biso   1.000  I
  I3       1.0000 0.31615  0.02784  0.24319  Biso   1.000  I
  I4       1.0000 0.68385  0.52784  0.25681  Biso   1.000  I
  Cu1      1.0000 0.78720  0.98113  0.10467  Biso   1.000  Cu
  Cu2      1.0000 0.21280  0.48113  0.39533  Biso   1.000  Cu
  Cu3      1.0000 0.21280  0.01887  0.89533  Biso   1.000  Cu
  Cu4      1.0000 0.78720  0.51887  0.60467  Biso   1.000  Cu
  N1       1.0000 0.80140  0.91173  0.20960  Biso   1.000  N
  N2       1.0000 0.19860  0.41173  0.29040  Biso   1.000  N
  N3       1.0000 0.19860  0.08827  0.79040  Biso   1.000  N
  N4       1.0000 0.80140  0.58827  0.70960  Biso   1.000  N
  N5       1.0000 0.77840  0.81965  0.36400  Biso   1.000  N
  N6       1.0000 0.22160  0.31965  0.13600  Biso   1.000  N
  N7       1.0000 0.22160  0.18035  0.63600  Biso   1.000  N
  N8       1.0000 0.77840  0.68035  0.86400  Biso   1.000  N
  C1       1.0000 0.63540  0.87493  0.12690  Biso   1.000  C
  C2       1.0000 0.36460  0.37493  0.37310  Biso   1.000  C
  C3       1.0000 0.36460  0.12507  0.87310  Biso   1.000  C
  C4       1.0000 0.63540  0.62507  0.62690  Biso   1.000  C
  H1       1.0000 0.52130  0.88030  0.01210  Biso   1.000  H
  H2       1.0000 0.47870  0.38030  0.48790  Biso   1.000  H
  H3       1.0000 0.47870  0.11970  0.98790  Biso   1.000  H
  H4       1.0000 0.52130  0.61970  0.51210  Biso   1.000  H
  C5       1.0000 0.62410  0.82920  0.20260  Biso   1.000  C
  C6       1.0000 0.37590  0.32920  0.29740  Biso   1.000  C
  C7       1.0000 0.37590  0.17080  0.79740  Biso   1.000  C
  C8       1.0000 0.62410  0.67080  0.70260  Biso   1.000  C
  C9       1.0000 0.94690  0.85624  0.44860  Biso   1.000  C
  C10      1.0000 0.05310  0.35624  0.05140  Biso   1.000  C
  C11      1.0000 0.05310  0.14376  0.55140  Biso   1.000  C
  C12      1.0000 0.94690  0.64376  0.94860  Biso   1.000  C
  C13      1.0000 0.95800  0.90223  0.37080  Biso   1.000  C
  C14      1.0000 0.04200  0.40223  0.12920  Biso   1.000  C
  C15      1.0000 0.04200  0.09777  0.62920  Biso   1.000  C
  C16      1.0000 0.95800  0.59777  0.87080  Biso   1.000  C
  H5       1.0000 0.07990  0.92750  0.43380  Biso   1.000  H
  H6       1.0000 0.92010  0.42750  0.06620  Biso   1.000  H
  H7       1.0000 0.92010  0.07250  0.56620  Biso   1.000  H
  H8       1.0000 0.07990  0.57250  0.93380  Biso   1.000  H
  C17      1.0000 0.44060  0.78757  0.10570  Biso   1.000  C
  C18      1.0000 0.55940  0.28757  0.39430  Biso   1.000  C
  C19      1.0000 0.55940  0.21243  0.89430  Biso   1.000  C
  C20      1.0000 0.44060  0.71243  0.60570  Biso   1.000  C
  H9       1.0000 0.59520  0.76480  0.06170  Biso   1.000  H
  H10      1.0000 0.40480  0.26480  0.43830  Biso   1.000  H
  H11      1.0000 0.40480  0.23520  0.93830  Biso   1.000  H
  H12      1.0000 0.59520  0.73520  0.56170  Biso   1.000  H
  H13      1.0000 0.29390  0.80050  0.00540  Biso   1.000  H
  H14      1.0000 0.70610  0.30050  0.49460  Biso   1.000  H
  H15      1.0000 0.70610  0.19950  0.99460  Biso   1.000  H
  H16      1.0000 0.29390  0.69950  0.50540  Biso   1.000  H
  H17      1.0000 0.31340  0.77030  0.18720  Biso   1.000  H
  H18      1.0000 0.68660  0.27030  0.31280  Biso   1.000  H
  H19      1.0000 0.68660  0.22970  0.81280  Biso   1.000  H
  H20      1.0000 0.31340  0.72970  0.68720  Biso   1.000  H
  C21      1.0000 0.11850  0.84639  0.63060  Biso   1.000  C
  C22      1.0000 0.88150  0.34639  0.86940  Biso   1.000  C
  C23      1.0000 0.88150  0.15361  0.36940  Biso   1.000  C
  C24      1.0000 0.11850  0.65361  0.13060  Biso   1.000  C
  H21      1.0000 0.96010  0.84620  0.71660  Biso   1.000  H
  H22      1.0000 0.03990  0.34620  0.78340  Biso   1.000  H
  H23      1.0000 0.03990  0.15380  0.28340  Biso   1.000  H
  H24      1.0000 0.96010  0.65380  0.21660  Biso   1.000  H
  H25      1.0000 0.28070  0.87200  0.66250  Biso   1.000  H
  H26      1.0000 0.71930  0.37200  0.83750  Biso   1.000  H
  H27      1.0000 0.71930  0.12800  0.33750  Biso   1.000  H
  H28      1.0000 0.28070  0.62800  0.16250  Biso   1.000  H
  H29      1.0000 0.22690  0.81450  0.63160  Biso   1.000  H
  H30      1.0000 0.77310  0.31450  0.86840  Biso   1.000  H
  H31      1.0000 0.77310  0.18550  0.36840  Biso   1.000  H
  H32      1.0000 0.22690  0.68550  0.13160  Biso   1.000  H
