data_image0
_cell_length_a       14.8105
_cell_length_b       10.1034
_cell_length_c       6.8817
_cell_angle_alpha    90
_cell_angle_beta     90
_cell_angle_gamma    90

_symmetry_space_group_name_H-M    "P 1"
_symmetry_int_tables_number       1

loop_
  _symmetry_equiv_pos_as_xyz
  'x, y, z'

loop_
  _atom_site_label
  _atom_site_occupancy
  _atom_site_fract_x
  _atom_site_fract_y
  _atom_site_fract_z
  _atom_site_thermal_displace_type
  _atom_site_B_iso_or_equiv
  _atom_site_type_symbol
  I1       1.0000 0.34472  0.35078  0.82830  Biso   1.000  I
  I2       1.0000 0.15528  0.64922  0.82830  Biso   1.000  I
  I3       1.0000 0.84472  0.64922  0.67170  Biso   1.000  I
  I4       1.0000 0.65528  0.35078  0.67170  Biso   1.000  I
  I5       1.0000 0.65528  0.64922  0.17170  Biso   1.000  I
  I6       1.0000 0.84472  0.35078  0.17170  Biso   1.000  I
  I7       1.0000 0.15528  0.35078  0.32830  Biso   1.000  I
  I8       1.0000 0.34472  0.64922  0.32830  Biso   1.000  I
  Cu1      1.0000 0.32477  0.40087  0.44891  Biso   1.000  Cu
  Cu2      1.0000 0.17523  0.59913  0.44891  Biso   1.000  Cu
  Cu3      1.0000 0.82477  0.59913  0.05109  Biso   1.000  Cu
  Cu4      1.0000 0.67523  0.40087  0.05109  Biso   1.000  Cu
  Cu5      1.0000 0.67523  0.59913  0.55109  Biso   1.000  Cu
  Cu6      1.0000 0.82477  0.40087  0.55109  Biso   1.000  Cu
  Cu7      1.0000 0.17523  0.40087  0.94891  Biso   1.000  Cu
  Cu8      1.0000 0.32477  0.59913  0.94891  Biso   1.000  Cu
  N1       1.0000 0.42770  0.28800  0.32640  Biso   1.000  N
  N2       1.0000 0.07230  0.71200  0.32640  Biso   1.000  N
  N3       1.0000 0.92770  0.71200  0.17360  Biso   1.000  N
  N4       1.0000 0.57230  0.28800  0.17360  Biso   1.000  N
  N5       1.0000 0.57230  0.71200  0.67360  Biso   1.000  N
  N6       1.0000 0.92770  0.28800  0.67360  Biso   1.000  N
  N7       1.0000 0.07230  0.28800  0.82640  Biso   1.000  N
  N8       1.0000 0.42770  0.71200  0.82640  Biso   1.000  N
  C1       1.0000 0.50000  0.34810  0.25000  Biso   1.000  C
  C2       1.0000 0.00000  0.65190  0.25000  Biso   1.000  C
  C3       1.0000 0.50000  0.65190  0.75000  Biso   1.000  C
  C4       1.0000 0.00000  0.34810  0.75000  Biso   1.000  C
  C5       1.0000 0.42840  0.15660  0.32680  Biso   1.000  C
  C6       1.0000 0.07160  0.84340  0.32680  Biso   1.000  C
  C7       1.0000 0.92840  0.84340  0.17320  Biso   1.000  C
  C8       1.0000 0.57160  0.15660  0.17320  Biso   1.000  C
  C9       1.0000 0.57160  0.84340  0.67320  Biso   1.000  C
  C10      1.0000 0.92840  0.15660  0.67320  Biso   1.000  C
  C11      1.0000 0.07160  0.15660  0.82680  Biso   1.000  C
  C12      1.0000 0.42840  0.84340  0.82680  Biso   1.000  C
  C13      1.0000 0.50000  0.08540  0.25000  Biso   1.000  C
  C14      1.0000 0.00000  0.91460  0.25000  Biso   1.000  C
  C15      1.0000 0.50000  0.91460  0.75000  Biso   1.000  C
  C16      1.0000 0.00000  0.08540  0.75000  Biso   1.000  C
  C17      1.0000 0.34720  0.08620  0.40670  Biso   1.000  C
  C18      1.0000 0.15280  0.91380  0.40670  Biso   1.000  C
  C19      1.0000 0.84720  0.91380  0.09330  Biso   1.000  C
  C20      1.0000 0.65280  0.08620  0.09330  Biso   1.000  C
  C21      1.0000 0.65280  0.91380  0.59330  Biso   1.000  C
  C22      1.0000 0.84720  0.08620  0.59330  Biso   1.000  C
  C23      1.0000 0.15280  0.08620  0.90670  Biso   1.000  C
  C24      1.0000 0.34720  0.91380  0.90670  Biso   1.000  C
  H1       1.0000 0.50000  0.44020  0.25000  Biso   1.000  H
  H2       1.0000 0.00000  0.55980  0.25000  Biso   1.000  H
  H3       1.0000 0.50000  0.55980  0.75000  Biso   1.000  H
  H4       1.0000 0.00000  0.44020  0.75000  Biso   1.000  H
  H5       1.0000 0.50000  0.99340  0.25000  Biso   1.000  H
  H6       1.0000 0.00000  0.00660  0.25000  Biso   1.000  H
  H7       1.0000 0.50000  0.00660  0.75000  Biso   1.000  H
  H8       1.0000 0.00000  0.99340  0.75000  Biso   1.000  H
  H9       1.0000 0.35100  0.99380  0.37520  Biso   1.000  H
  H10      1.0000 0.14900  0.00620  0.37520  Biso   1.000  H
  H11      1.0000 0.85100  0.00620  0.12480  Biso   1.000  H
  H12      1.0000 0.64900  0.99380  0.12480  Biso   1.000  H
  H13      1.0000 0.64900  0.00620  0.62480  Biso   1.000  H
  H14      1.0000 0.85100  0.99380  0.62480  Biso   1.000  H
  H15      1.0000 0.14900  0.99380  0.87520  Biso   1.000  H
  H16      1.0000 0.35100  0.00620  0.87520  Biso   1.000  H
  H17      1.0000 0.34470  0.09670  0.54520  Biso   1.000  H
  H18      1.0000 0.15530  0.90330  0.54520  Biso   1.000  H
  H19      1.0000 0.84470  0.90330  0.95480  Biso   1.000  H
  H20      1.0000 0.65530  0.09670  0.95480  Biso   1.000  H
  H21      1.0000 0.65530  0.90330  0.45480  Biso   1.000  H
  H22      1.0000 0.84470  0.09670  0.45480  Biso   1.000  H
  H23      1.0000 0.15530  0.09670  0.04520  Biso   1.000  H
  H24      1.0000 0.34470  0.90330  0.04520  Biso   1.000  H
  H25      1.0000 0.29370  0.12300  0.34940  Biso   1.000  H
  H26      1.0000 0.20630  0.87700  0.34940  Biso   1.000  H
  H27      1.0000 0.79370  0.87700  0.15060  Biso   1.000  H
  H28      1.0000 0.70630  0.12300  0.15060  Biso   1.000  H
  H29      1.0000 0.70630  0.87700  0.65060  Biso   1.000  H
  H30      1.0000 0.79370  0.12300  0.65060  Biso   1.000  H
  H31      1.0000 0.20630  0.12300  0.84940  Biso   1.000  H
  H32      1.0000 0.29370  0.87700  0.84940  Biso   1.000  H
