data_image0
_cell_length_a       4.1718
_cell_length_b       27.4616
_cell_length_c       7.6232
_cell_angle_alpha    90
_cell_angle_beta     97.299
_cell_angle_gamma    90

_symmetry_space_group_name_H-M    "P 1"
_symmetry_int_tables_number       1

loop_
  _symmetry_equiv_pos_as_xyz
  'x, y, z'

loop_
  _atom_site_label
  _atom_site_occupancy
  _atom_site_fract_x
  _atom_site_fract_y
  _atom_site_fract_z
  _atom_site_thermal_displace_type
  _atom_site_B_iso_or_equiv
  _atom_site_type_symbol
  I1       1.0000 0.18280  0.02746  0.75870  Biso   1.000  I
  I2       1.0000 0.81720  0.52746  0.74130  Biso   1.000  I
  I3       1.0000 0.81720  0.97254  0.24130  Biso   1.000  I
  I4       1.0000 0.18280  0.47254  0.25870  Biso   1.000  I
  Cu1      1.0000 0.28790  0.01912  0.10568  Biso   1.000  Cu
  Cu2      1.0000 0.71210  0.51912  0.39432  Biso   1.000  Cu
  Cu3      1.0000 0.71210  0.98088  0.89432  Biso   1.000  Cu
  Cu4      1.0000 0.28790  0.48088  0.60568  Biso   1.000  Cu
  N1       1.0000 0.30350  0.08840  0.21050  Biso   1.000  N
  N2       1.0000 0.69650  0.58840  0.28950  Biso   1.000  N
  N3       1.0000 0.69650  0.91160  0.78950  Biso   1.000  N
  N4       1.0000 0.30350  0.41160  0.71050  Biso   1.000  N
  N5       1.0000 0.28600  0.18000  0.36180  Biso   1.000  N
  N6       1.0000 0.71400  0.68000  0.13820  Biso   1.000  N
  N7       1.0000 0.71400  0.82000  0.63820  Biso   1.000  N
  N8       1.0000 0.28600  0.32000  0.86180  Biso   1.000  N
  C1       1.0000 0.14100  0.12510  0.12830  Biso   1.000  C
  C2       1.0000 0.85900  0.62510  0.37170  Biso   1.000  C
  C3       1.0000 0.85900  0.87490  0.87170  Biso   1.000  C
  C4       1.0000 0.14100  0.37490  0.62830  Biso   1.000  C
  C5       1.0000 0.13200  0.17080  0.20110  Biso   1.000  C
  C6       1.0000 0.86800  0.67080  0.29890  Biso   1.000  C
  C7       1.0000 0.86800  0.82920  0.79890  Biso   1.000  C
  C8       1.0000 0.13200  0.32920  0.70110  Biso   1.000  C
  C9       1.0000 0.45100  0.14370  0.44760  Biso   1.000  C
  C10      1.0000 0.54900  0.64370  0.05240  Biso   1.000  C
  C11      1.0000 0.54900  0.85630  0.55240  Biso   1.000  C
  C12      1.0000 0.45100  0.35630  0.94760  Biso   1.000  C
  C13      1.0000 0.45600  0.09760  0.37050  Biso   1.000  C
  C14      1.0000 0.54400  0.59760  0.12950  Biso   1.000  C
  C15      1.0000 0.54400  0.90240  0.62950  Biso   1.000  C
  C16      1.0000 0.45600  0.40240  0.87050  Biso   1.000  C
  C17      1.0000 0.95100  0.21280  0.10500  Biso   1.000  C
  C18      1.0000 0.04900  0.71280  0.39500  Biso   1.000  C
  C19      1.0000 0.04900  0.78720  0.89500  Biso   1.000  C
  C20      1.0000 0.95100  0.28720  0.60500  Biso   1.000  C
  C21      1.0000 0.62000  0.15400  0.62670  Biso   1.000  C
  C22      1.0000 0.38000  0.65400  0.87330  Biso   1.000  C
  C23      1.0000 0.38000  0.84600  0.37330  Biso   1.000  C
  C24      1.0000 0.62000  0.34600  0.12670  Biso   1.000  C
  H1       1.0000 0.02970  0.11970  0.01640  Biso   1.000  H
  H2       1.0000 0.97030  0.61970  0.48360  Biso   1.000  H
  H3       1.0000 0.97030  0.88030  0.98360  Biso   1.000  H
  H4       1.0000 0.02970  0.38030  0.51640  Biso   1.000  H
  H5       1.0000 0.56840  0.07250  0.43320  Biso   1.000  H
  H6       1.0000 0.43160  0.57250  0.06680  Biso   1.000  H
  H7       1.0000 0.43160  0.92750  0.56680  Biso   1.000  H
  H8       1.0000 0.56840  0.42750  0.93320  Biso   1.000  H
  H9       1.0000 0.05970  0.22180  0.00660  Biso   1.000  H
  H10      1.0000 0.94030  0.72180  0.49340  Biso   1.000  H
  H11      1.0000 0.94030  0.77820  0.99340  Biso   1.000  H
  H12      1.0000 0.05970  0.27820  0.50660  Biso   1.000  H
  H13      1.0000 0.73270  0.20340  0.06380  Biso   1.000  H
  H14      1.0000 0.26730  0.70340  0.43620  Biso   1.000  H
  H15      1.0000 0.26730  0.79660  0.93620  Biso   1.000  H
  H16      1.0000 0.73270  0.29660  0.56380  Biso   1.000  H
  H17      1.0000 0.94850  0.24010  0.18400  Biso   1.000  H
  H18      1.0000 0.05150  0.74010  0.31600  Biso   1.000  H
  H19      1.0000 0.05150  0.75990  0.81600  Biso   1.000  H
  H20      1.0000 0.94850  0.25990  0.68400  Biso   1.000  H
  H21      1.0000 0.46490  0.16410  0.70250  Biso   1.000  H
  H22      1.0000 0.53510  0.66410  0.79750  Biso   1.000  H
  H23      1.0000 0.53510  0.83590  0.29750  Biso   1.000  H
  H24      1.0000 0.46490  0.33590  0.20250  Biso   1.000  H
  H25      1.0000 0.72810  0.12520  0.67410  Biso   1.000  H
  H26      1.0000 0.27190  0.62520  0.82590  Biso   1.000  H
  H27      1.0000 0.27190  0.87480  0.32590  Biso   1.000  H
  H28      1.0000 0.72810  0.37480  0.17410  Biso   1.000  H
  H29      1.0000 0.77510  0.17950  0.61990  Biso   1.000  H
  H30      1.0000 0.22490  0.67950  0.88010  Biso   1.000  H
  H31      1.0000 0.22490  0.82050  0.38010  Biso   1.000  H
  H32      1.0000 0.77510  0.32050  0.11990  Biso   1.000  H
