data_image0
_cell_length_a       13.11
_cell_length_b       8.299
_cell_length_c       22.611
_cell_angle_alpha    90
_cell_angle_beta     101.12
_cell_angle_gamma    90

_symmetry_space_group_name_H-M    "P 1"
_symmetry_int_tables_number       1

loop_
  _symmetry_equiv_pos_as_xyz
  'x, y, z'

loop_
  _atom_site_label
  _atom_site_occupancy
  _atom_site_fract_x
  _atom_site_fract_y
  _atom_site_fract_z
  _atom_site_thermal_displace_type
  _atom_site_B_iso_or_equiv
  _atom_site_type_symbol
  Cu1      1.0000 0.73666  0.20516  0.22221  Biso   1.000  Cu
  Cu2      1.0000 0.76334  0.70516  0.27779  Biso   1.000  Cu
  Cu3      1.0000 0.26334  0.79484  0.77779  Biso   1.000  Cu
  Cu4      1.0000 0.23666  0.29484  0.72221  Biso   1.000  Cu
  P1       1.0000 0.64258  0.01510  0.16467  Biso   1.000  P
  P2       1.0000 0.85742  0.51510  0.33533  Biso   1.000  P
  P3       1.0000 0.35742  0.98490  0.83533  Biso   1.000  P
  P4       1.0000 0.14258  0.48490  0.66467  Biso   1.000  P
  C1       1.0000 0.69480  0.88640  0.11880  Biso   1.000  C
  C2       1.0000 0.80520  0.38640  0.38120  Biso   1.000  C
  C3       1.0000 0.30520  0.11360  0.88120  Biso   1.000  C
  C4       1.0000 0.19480  0.61360  0.61880  Biso   1.000  C
  C5       1.0000 0.63310  0.81430  0.06870  Biso   1.000  C
  C6       1.0000 0.86690  0.31430  0.43130  Biso   1.000  C
  C7       1.0000 0.36690  0.18570  0.93130  Biso   1.000  C
  C8       1.0000 0.13310  0.68570  0.56870  Biso   1.000  C
  C9       1.0000 0.52510  0.82530  0.05260  Biso   1.000  C
  C10      1.0000 0.97490  0.32530  0.44740  Biso   1.000  C
  C11      1.0000 0.47490  0.17470  0.94740  Biso   1.000  C
  C12      1.0000 0.02510  0.67470  0.55260  Biso   1.000  C
  C13      1.0000 0.46570  0.91780  0.08620  Biso   1.000  C
  C14      1.0000 0.03430  0.41780  0.41380  Biso   1.000  C
  C15      1.0000 0.53430  0.08220  0.91380  Biso   1.000  C
  C16      1.0000 0.96570  0.58220  0.58620  Biso   1.000  C
  C17      1.0000 0.51200  0.00860  0.13520  Biso   1.000  C
  C18      1.0000 0.98800  0.50860  0.36480  Biso   1.000  C
  C19      1.0000 0.48800  0.99140  0.86480  Biso   1.000  C
  C20      1.0000 0.01200  0.49140  0.63520  Biso   1.000  C
  C21      1.0000 0.34850  0.91610  0.06840  Biso   1.000  C
  C22      1.0000 0.15150  0.41610  0.43160  Biso   1.000  C
  C23      1.0000 0.65150  0.08390  0.93160  Biso   1.000  C
  C24      1.0000 0.84850  0.58390  0.56840  Biso   1.000  C
  C25      1.0000 0.47070  0.73200  0.99870  Biso   1.000  C
  C26      1.0000 0.02930  0.23200  0.50130  Biso   1.000  C
  C27      1.0000 0.52930  0.26800  0.00130  Biso   1.000  C
  C28      1.0000 0.97070  0.76800  0.49870  Biso   1.000  C
  C29      1.0000 0.98320  0.77770  0.21500  Biso   1.000  C
  C30      1.0000 0.51680  0.27770  0.28500  Biso   1.000  C
  C31      1.0000 0.01680  0.22230  0.78500  Biso   1.000  C
  C32      1.0000 0.48320  0.72230  0.71500  Biso   1.000  C
  C33      1.0000 0.03500  0.80400  0.16830  Biso   1.000  C
  C34      1.0000 0.46500  0.30400  0.33170  Biso   1.000  C
  C35      1.0000 0.96500  0.19600  0.83170  Biso   1.000  C
  C36      1.0000 0.53500  0.69600  0.66830  Biso   1.000  C
  C37      1.0000 0.98170  0.83800  0.10950  Biso   1.000  C
  C38      1.0000 0.51830  0.33800  0.39050  Biso   1.000  C
  C39      1.0000 0.01830  0.16200  0.89050  Biso   1.000  C
  C40      1.0000 0.48170  0.66200  0.60950  Biso   1.000  C
  C41      1.0000 0.87400  0.86070  0.09510  Biso   1.000  C
  C42      1.0000 0.62600  0.36070  0.40490  Biso   1.000  C
  C43      1.0000 0.12600  0.13930  0.90490  Biso   1.000  C
  C44      1.0000 0.37400  0.63930  0.59510  Biso   1.000  C
  C45      1.0000 0.80720  0.85060  0.13690  Biso   1.000  C
  C46      1.0000 0.69280  0.35060  0.36310  Biso   1.000  C
  C47      1.0000 0.19280  0.14940  0.86310  Biso   1.000  C
  C48      1.0000 0.30720  0.64940  0.63690  Biso   1.000  C
  P5       1.0000 0.64843  0.29440  0.28949  Biso   1.000  P
  P6       1.0000 0.85157  0.79440  0.21051  Biso   1.000  P
  P7       1.0000 0.35157  0.70560  0.71051  Biso   1.000  P
  P8       1.0000 0.14843  0.20560  0.78949  Biso   1.000  P
  C49      1.0000 0.15150  0.79420  0.18090  Biso   1.000  C
  C50      1.0000 0.34850  0.29420  0.31910  Biso   1.000  C
  C51      1.0000 0.84850  0.20580  0.81910  Biso   1.000  C
  C52      1.0000 0.65150  0.70580  0.68090  Biso   1.000  C
  C53      1.0000 0.04330  0.85120  0.05940  Biso   1.000  C
  C54      1.0000 0.45670  0.35120  0.44060  Biso   1.000  C
  C55      1.0000 0.95670  0.14880  0.94060  Biso   1.000  C
  C56      1.0000 0.54330  0.64880  0.55940  Biso   1.000  C
  N1       1.0000 0.80900  0.31660  0.15920  Biso   1.000  N
  N2       1.0000 0.69100  0.81660  0.34080  Biso   1.000  N
  N3       1.0000 0.19100  0.68340  0.84080  Biso   1.000  N
  N4       1.0000 0.30900  0.18340  0.65920  Biso   1.000  N
  N5       1.0000 0.88890  0.16540  0.25980  Biso   1.000  N
  N6       1.0000 0.61110  0.66540  0.24020  Biso   1.000  N
  N7       1.0000 0.11110  0.83460  0.74020  Biso   1.000  N
  N8       1.0000 0.38890  0.33460  0.75980  Biso   1.000  N
  C57      1.0000 0.76280  0.38260  0.10630  Biso   1.000  C
  C58      1.0000 0.73720  0.88260  0.39370  Biso   1.000  C
  C59      1.0000 0.23720  0.61740  0.89370  Biso   1.000  C
  C60      1.0000 0.26280  0.11740  0.60630  Biso   1.000  C
  C61      1.0000 0.81790  0.43640  0.06340  Biso   1.000  C
  C62      1.0000 0.68210  0.93640  0.43660  Biso   1.000  C
  C63      1.0000 0.18210  0.56360  0.93660  Biso   1.000  C
  C64      1.0000 0.31790  0.06360  0.56340  Biso   1.000  C
  C65      1.0000 0.92390  0.42010  0.07560  Biso   1.000  C
  C66      1.0000 0.57610  0.92010  0.42440  Biso   1.000  C
  C67      1.0000 0.07610  0.57990  0.92440  Biso   1.000  C
  C68      1.0000 0.42390  0.07990  0.57560  Biso   1.000  C
  C69      1.0000 0.97230  0.35130  0.12910  Biso   1.000  C
  C70      1.0000 0.52770  0.85130  0.37090  Biso   1.000  C
  C71      1.0000 0.02770  0.64870  0.87090  Biso   1.000  C
  C72      1.0000 0.47230  0.14870  0.62910  Biso   1.000  C
  C73      1.0000 0.91270  0.29820  0.17010  Biso   1.000  C
  C74      1.0000 0.58730  0.79820  0.32990  Biso   1.000  C
  C75      1.0000 0.08730  0.70180  0.82990  Biso   1.000  C
  C76      1.0000 0.41270  0.20180  0.67010  Biso   1.000  C
  C77      1.0000 0.95750  0.21790  0.22720  Biso   1.000  C
  C78      1.0000 0.54250  0.71790  0.27280  Biso   1.000  C
  C79      1.0000 0.04250  0.78210  0.77280  Biso   1.000  C
  C80      1.0000 0.45750  0.28210  0.72720  Biso   1.000  C
  C81      1.0000 0.06420  0.19230  0.24690  Biso   1.000  C
  C82      1.0000 0.43580  0.69230  0.25310  Biso   1.000  C
  C83      1.0000 0.93580  0.80770  0.75310  Biso   1.000  C
  C84      1.0000 0.56420  0.30770  0.74690  Biso   1.000  C
  C85      1.0000 0.09780  0.11090  0.29970  Biso   1.000  C
  C86      1.0000 0.40220  0.61090  0.20030  Biso   1.000  C
  C87      1.0000 0.90220  0.88910  0.70030  Biso   1.000  C
  C88      1.0000 0.59780  0.38910  0.79970  Biso   1.000  C
  C89      1.0000 0.02750  0.06080  0.33380  Biso   1.000  C
  C90      1.0000 0.47250  0.56080  0.16620  Biso   1.000  C
  C91      1.0000 0.97250  0.93920  0.66620  Biso   1.000  C
  C92      1.0000 0.52750  0.43920  0.83380  Biso   1.000  C
  C93      1.0000 0.92360  0.09120  0.31240  Biso   1.000  C
  C94      1.0000 0.57640  0.59120  0.18760  Biso   1.000  C
  C95      1.0000 0.07640  0.90880  0.68760  Biso   1.000  C
  C96      1.0000 0.42360  0.40880  0.81240  Biso   1.000  C
  B1       1.0000 0.23630  0.33350  0.08990  Biso   1.000  B
  B2       1.0000 0.26370  0.83350  0.41010  Biso   1.000  B
  B3       1.0000 0.76370  0.66650  0.91010  Biso   1.000  B
  B4       1.0000 0.73630  0.16650  0.58990  Biso   1.000  B
  F1       1.0000 0.16530  0.23660  0.05530  Biso   1.000  F
  F2       1.0000 0.33470  0.73660  0.44470  Biso   1.000  F
  F3       1.0000 0.83470  0.76340  0.94470  Biso   1.000  F
  F4       1.0000 0.66530  0.26340  0.55530  Biso   1.000  F
  F5       1.0000 0.32370  0.33980  0.06570  Biso   1.000  F
  F6       1.0000 0.17630  0.83980  0.43430  Biso   1.000  F
  F7       1.0000 0.67630  0.66020  0.93430  Biso   1.000  F
  F8       1.0000 0.82370  0.16020  0.56570  Biso   1.000  F
  F9       1.0000 0.19690  0.48480  0.09100  Biso   1.000  F
  F10      1.0000 0.30310  0.98480  0.40900  Biso   1.000  F
  F11      1.0000 0.80310  0.51520  0.90900  Biso   1.000  F
  F12      1.0000 0.69690  0.01520  0.59100  Biso   1.000  F
  F13      1.0000 0.25670  0.27830  0.14700  Biso   1.000  F
  F14      1.0000 0.24330  0.77830  0.35300  Biso   1.000  F
  F15      1.0000 0.74330  0.72170  0.85300  Biso   1.000  F
  F16      1.0000 0.75670  0.22170  0.64700  Biso   1.000  F
