data_image0
_cell_length_a       20.595
_cell_length_b       17.45
_cell_length_c       19.847
_cell_angle_alpha    90
_cell_angle_beta     99.362
_cell_angle_gamma    90

_symmetry_space_group_name_H-M    "P 1"
_symmetry_int_tables_number       1

loop_
  _symmetry_equiv_pos_as_xyz
  'x, y, z'

loop_
  _atom_site_label
  _atom_site_occupancy
  _atom_site_fract_x
  _atom_site_fract_y
  _atom_site_fract_z
  _atom_site_thermal_displace_type
  _atom_site_B_iso_or_equiv
  _atom_site_type_symbol
  Mo1      1.0000 0.50000  0.03288  0.25000  Biso   1.000  Mo
  Mo2      1.0000 0.00000  0.53288  0.25000  Biso   1.000  Mo
  Mo3      1.0000 0.50000  0.96712  0.75000  Biso   1.000  Mo
  Mo4      1.0000 0.00000  0.46712  0.75000  Biso   1.000  Mo
  Mo5      1.0000 0.39439  0.73074  0.34019  Biso   1.000  Mo
  Mo6      1.0000 0.60561  0.73074  0.15981  Biso   1.000  Mo
  Mo7      1.0000 0.89439  0.23074  0.34019  Biso   1.000  Mo
  Mo8      1.0000 0.10561  0.23074  0.15981  Biso   1.000  Mo
  Mo9      1.0000 0.60561  0.26926  0.65981  Biso   1.000  Mo
  Mo10     1.0000 0.39439  0.26926  0.84019  Biso   1.000  Mo
  Mo11     1.0000 0.10561  0.76926  0.65981  Biso   1.000  Mo
  Mo12     1.0000 0.89439  0.76926  0.84019  Biso   1.000  Mo
  Mo13     1.0000 0.43428  0.93217  0.10127  Biso   1.000  Mo
  Mo14     1.0000 0.56572  0.93217  0.39873  Biso   1.000  Mo
  Mo15     1.0000 0.93428  0.43217  0.10127  Biso   1.000  Mo
  Mo16     1.0000 0.06572  0.43217  0.39873  Biso   1.000  Mo
  Mo17     1.0000 0.56572  0.06783  0.89873  Biso   1.000  Mo
  Mo18     1.0000 0.43428  0.06783  0.60127  Biso   1.000  Mo
  Mo19     1.0000 0.06572  0.56783  0.89873  Biso   1.000  Mo
  Mo20     1.0000 0.93428  0.56783  0.60127  Biso   1.000  Mo
  Mo21     1.0000 0.43515  0.73090  0.10171  Biso   1.000  Mo
  Mo22     1.0000 0.56485  0.73090  0.39829  Biso   1.000  Mo
  Mo23     1.0000 0.93515  0.23090  0.10171  Biso   1.000  Mo
  Mo24     1.0000 0.06485  0.23090  0.39829  Biso   1.000  Mo
  Mo25     1.0000 0.56485  0.26910  0.89829  Biso   1.000  Mo
  Mo26     1.0000 0.43515  0.26910  0.60171  Biso   1.000  Mo
  Mo27     1.0000 0.06485  0.76910  0.89829  Biso   1.000  Mo
  Mo28     1.0000 0.93515  0.76910  0.60171  Biso   1.000  Mo
  Mo29     1.0000 0.32825  0.83085  0.19231  Biso   1.000  Mo
  Mo30     1.0000 0.67175  0.83085  0.30769  Biso   1.000  Mo
  Mo31     1.0000 0.82825  0.33085  0.19231  Biso   1.000  Mo
  Mo32     1.0000 0.17175  0.33085  0.30769  Biso   1.000  Mo
  Mo33     1.0000 0.67175  0.16915  0.80769  Biso   1.000  Mo
  Mo34     1.0000 0.32825  0.16915  0.69231  Biso   1.000  Mo
  Mo35     1.0000 0.17175  0.66915  0.80769  Biso   1.000  Mo
  Mo36     1.0000 0.82825  0.66915  0.69231  Biso   1.000  Mo
  Mo37     1.0000 0.50000  0.62860  0.25000  Biso   1.000  Mo
  Mo38     1.0000 0.00000  0.12860  0.25000  Biso   1.000  Mo
  Mo39     1.0000 0.50000  0.37140  0.75000  Biso   1.000  Mo
  Mo40     1.0000 0.00000  0.87140  0.75000  Biso   1.000  Mo
  Mo41     1.0000 0.39497  0.93258  0.34107  Biso   1.000  Mo
  Mo42     1.0000 0.60503  0.93258  0.15893  Biso   1.000  Mo
  Mo43     1.0000 0.89497  0.43258  0.34107  Biso   1.000  Mo
  Mo44     1.0000 0.10503  0.43258  0.15893  Biso   1.000  Mo
  Mo45     1.0000 0.60503  0.06742  0.65893  Biso   1.000  Mo
  Mo46     1.0000 0.39497  0.06742  0.84107  Biso   1.000  Mo
  Mo47     1.0000 0.10503  0.56742  0.65893  Biso   1.000  Mo
  Mo48     1.0000 0.89497  0.56742  0.84107  Biso   1.000  Mo
  Cu1      1.0000 0.39374  0.80579  0.93024  Biso   1.000  Cu
  Cu2      1.0000 0.60626  0.80579  0.56976  Biso   1.000  Cu
  Cu3      1.0000 0.89374  0.30579  0.93024  Biso   1.000  Cu
  Cu4      1.0000 0.10626  0.30579  0.56976  Biso   1.000  Cu
  Cu5      1.0000 0.60626  0.19421  0.06976  Biso   1.000  Cu
  Cu6      1.0000 0.39374  0.19421  0.43024  Biso   1.000  Cu
  Cu7      1.0000 0.10626  0.69421  0.06976  Biso   1.000  Cu
  Cu8      1.0000 0.89374  0.69421  0.43024  Biso   1.000  Cu
  Cu9      1.0000 0.13618  0.77645  0.17732  Biso   1.000  Cu
  Cu10     1.0000 0.86382  0.77645  0.32268  Biso   1.000  Cu
  Cu11     1.0000 0.63618  0.27645  0.17732  Biso   1.000  Cu
  Cu12     1.0000 0.36382  0.27645  0.32268  Biso   1.000  Cu
  Cu13     1.0000 0.86382  0.22355  0.82268  Biso   1.000  Cu
  Cu14     1.0000 0.13618  0.22355  0.67732  Biso   1.000  Cu
  Cu15     1.0000 0.36382  0.72355  0.82268  Biso   1.000  Cu
  Cu16     1.0000 0.63618  0.72355  0.67732  Biso   1.000  Cu
  Si1      1.0000 0.50000  0.83130  0.25000  Biso   1.000  Si
  Si2      1.0000 0.00000  0.33130  0.25000  Biso   1.000  Si
  Si3      1.0000 0.50000  0.16870  0.75000  Biso   1.000  Si
  Si4      1.0000 0.00000  0.66870  0.75000  Biso   1.000  Si
  O1       1.0000 0.16480  0.99680  0.77530  Biso   1.000  O
  O2       1.0000 0.83520  0.99680  0.72470  Biso   1.000  O
  O3       1.0000 0.66480  0.49680  0.77530  Biso   1.000  O
  O4       1.0000 0.33520  0.49680  0.72470  Biso   1.000  O
  O5       1.0000 0.83520  0.00320  0.22470  Biso   1.000  O
  O6       1.0000 0.16480  0.00320  0.27530  Biso   1.000  O
  O7       1.0000 0.33520  0.50320  0.22470  Biso   1.000  O
  O8       1.0000 0.66480  0.50320  0.27530  Biso   1.000  O
  O9       1.0000 0.62920  0.57840  0.97430  Biso   1.000  O
  O10      1.0000 0.37080  0.57840  0.52570  Biso   1.000  O
  O11      1.0000 0.12920  0.07840  0.97430  Biso   1.000  O
  O12      1.0000 0.87080  0.07840  0.52570  Biso   1.000  O
  O13      1.0000 0.37080  0.42160  0.02570  Biso   1.000  O
  O14      1.0000 0.62920  0.42160  0.47430  Biso   1.000  O
  O15      1.0000 0.87080  0.92160  0.02570  Biso   1.000  O
  O16      1.0000 0.12920  0.92160  0.47430  Biso   1.000  O
  O17      1.0000 0.35610  0.75680  0.13150  Biso   1.000  O
  O18      1.0000 0.64390  0.75680  0.36850  Biso   1.000  O
  O19      1.0000 0.85610  0.25680  0.13150  Biso   1.000  O
  O20      1.0000 0.14390  0.25680  0.36850  Biso   1.000  O
  O21      1.0000 0.64390  0.24320  0.86850  Biso   1.000  O
  O22      1.0000 0.35610  0.24320  0.63150  Biso   1.000  O
  O23      1.0000 0.14390  0.74320  0.86850  Biso   1.000  O
  O24      1.0000 0.85610  0.74320  0.63150  Biso   1.000  O
  O25      1.0000 0.42670  0.83130  0.27160  Biso   1.000  O
  O26      1.0000 0.57330  0.83130  0.22840  Biso   1.000  O
  O27      1.0000 0.92670  0.33130  0.27160  Biso   1.000  O
  O28      1.0000 0.07330  0.33130  0.22840  Biso   1.000  O
  O29      1.0000 0.57330  0.16870  0.72840  Biso   1.000  O
  O30      1.0000 0.42670  0.16870  0.77160  Biso   1.000  O
  O31      1.0000 0.07330  0.66870  0.72840  Biso   1.000  O
  O32      1.0000 0.92670  0.66870  0.77160  Biso   1.000  O
  O33      1.0000 0.44760  0.01460  0.16440  Biso   1.000  O
  O34      1.0000 0.55240  0.01460  0.33560  Biso   1.000  O
  O35      1.0000 0.94760  0.51460  0.16440  Biso   1.000  O
  O36      1.0000 0.05240  0.51460  0.33560  Biso   1.000  O
  O37      1.0000 0.55240  0.98540  0.83560  Biso   1.000  O
  O38      1.0000 0.44760  0.98540  0.66440  Biso   1.000  O
  O39      1.0000 0.05240  0.48540  0.83560  Biso   1.000  O
  O40      1.0000 0.94760  0.48540  0.66440  Biso   1.000  O
  O41      1.0000 0.42950  0.79940  0.82150  Biso   1.000  O
  O42      1.0000 0.57050  0.79940  0.67850  Biso   1.000  O
  O43      1.0000 0.92950  0.29940  0.82150  Biso   1.000  O
  O44      1.0000 0.07050  0.29940  0.67850  Biso   1.000  O
  O45      1.0000 0.57050  0.20060  0.17850  Biso   1.000  O
  O46      1.0000 0.42950  0.20060  0.32150  Biso   1.000  O
  O47      1.0000 0.07050  0.70060  0.17850  Biso   1.000  O
  O48      1.0000 0.92950  0.70060  0.32150  Biso   1.000  O
  O49      1.0000 0.33610  0.75530  0.25900  Biso   1.000  O
  O50      1.0000 0.66390  0.75530  0.24100  Biso   1.000  O
  O51      1.0000 0.83610  0.25530  0.25900  Biso   1.000  O
  O52      1.0000 0.16390  0.25530  0.24100  Biso   1.000  O
  O53      1.0000 0.66390  0.24470  0.74100  Biso   1.000  O
  O54      1.0000 0.33610  0.24470  0.75900  Biso   1.000  O
  O55      1.0000 0.16390  0.74470  0.74100  Biso   1.000  O
  O56      1.0000 0.83610  0.74470  0.75900  Biso   1.000  O
  O57      1.0000 0.43640  0.83130  0.06600  Biso   1.000  O
  O58      1.0000 0.56360  0.83130  0.43400  Biso   1.000  O
  O59      1.0000 0.93640  0.33130  0.06600  Biso   1.000  O
  O60      1.0000 0.06360  0.33130  0.43400  Biso   1.000  O
  O61      1.0000 0.56360  0.16870  0.93400  Biso   1.000  O
  O62      1.0000 0.43640  0.16870  0.56600  Biso   1.000  O
  O63      1.0000 0.06360  0.66870  0.93400  Biso   1.000  O
  O64      1.0000 0.93640  0.66870  0.56600  Biso   1.000  O
  O65      1.0000 0.33420  0.90620  0.25930  Biso   1.000  O
  O66      1.0000 0.66580  0.90620  0.24070  Biso   1.000  O
  O67      1.0000 0.83420  0.40620  0.25930  Biso   1.000  O
  O68      1.0000 0.16580  0.40620  0.24070  Biso   1.000  O
  O69      1.0000 0.66580  0.09380  0.74070  Biso   1.000  O
  O70      1.0000 0.33420  0.09380  0.75930  Biso   1.000  O
  O71      1.0000 0.16580  0.59380  0.74070  Biso   1.000  O
  O72      1.0000 0.83420  0.59380  0.75930  Biso   1.000  O
  O73      1.0000 0.50000  0.12800  0.25000  Biso   1.000  O
  O74      1.0000 0.00000  0.62800  0.25000  Biso   1.000  O
  O75      1.0000 0.50000  0.87200  0.75000  Biso   1.000  O
  O76      1.0000 0.00000  0.37200  0.75000  Biso   1.000  O
  O77      1.0000 0.50000  0.53390  0.25000  Biso   1.000  O
  O78      1.0000 0.00000  0.03390  0.25000  Biso   1.000  O
  O79      1.0000 0.50000  0.46610  0.75000  Biso   1.000  O
  O80      1.0000 0.00000  0.96610  0.75000  Biso   1.000  O
  O81      1.0000 0.24690  0.83120  0.16310  Biso   1.000  O
  O82      1.0000 0.75310  0.83120  0.33690  Biso   1.000  O
  O83      1.0000 0.74690  0.33120  0.16310  Biso   1.000  O
  O84      1.0000 0.25310  0.33120  0.33690  Biso   1.000  O
  O85      1.0000 0.75310  0.16880  0.83690  Biso   1.000  O
  O86      1.0000 0.24690  0.16880  0.66310  Biso   1.000  O
  O87      1.0000 0.25310  0.66880  0.83690  Biso   1.000  O
  O88      1.0000 0.74690  0.66880  0.66310  Biso   1.000  O
  O89      1.0000 0.40760  0.68550  0.03070  Biso   1.000  O
  O90      1.0000 0.59240  0.68550  0.46930  Biso   1.000  O
  O91      1.0000 0.90760  0.18550  0.03070  Biso   1.000  O
  O92      1.0000 0.09240  0.18550  0.46930  Biso   1.000  O
  O93      1.0000 0.59240  0.31450  0.96930  Biso   1.000  O
  O94      1.0000 0.40760  0.31450  0.53070  Biso   1.000  O
  O95      1.0000 0.09240  0.81450  0.96930  Biso   1.000  O
  O96      1.0000 0.90760  0.81450  0.53070  Biso   1.000  O
  O97      1.0000 0.44510  0.83040  0.18340  Biso   1.000  O
  O98      1.0000 0.55490  0.83040  0.31660  Biso   1.000  O
  O99      1.0000 0.94510  0.33040  0.18340  Biso   1.000  O
  O100     1.0000 0.05490  0.33040  0.31660  Biso   1.000  O
  O101     1.0000 0.55490  0.16960  0.81660  Biso   1.000  O
  O102     1.0000 0.44510  0.16960  0.68340  Biso   1.000  O
  O103     1.0000 0.05490  0.66960  0.81660  Biso   1.000  O
  O104     1.0000 0.94510  0.66960  0.68340  Biso   1.000  O
  O105     1.0000 0.34510  0.68340  0.38190  Biso   1.000  O
  O106     1.0000 0.65490  0.68340  0.11810  Biso   1.000  O
  O107     1.0000 0.84510  0.18340  0.38190  Biso   1.000  O
  O108     1.0000 0.15490  0.18340  0.11810  Biso   1.000  O
  O109     1.0000 0.65490  0.31660  0.61810  Biso   1.000  O
  O110     1.0000 0.34510  0.31660  0.88190  Biso   1.000  O
  O111     1.0000 0.15490  0.81660  0.61810  Biso   1.000  O
  O112     1.0000 0.84510  0.81660  0.88190  Biso   1.000  O
  O113     1.0000 0.57470  0.01590  0.20780  Biso   1.000  O
  O114     1.0000 0.42530  0.01590  0.29220  Biso   1.000  O
  O115     1.0000 0.07470  0.51590  0.20780  Biso   1.000  O
  O116     1.0000 0.92530  0.51590  0.29220  Biso   1.000  O
  O117     1.0000 0.42530  0.98410  0.79220  Biso   1.000  O
  O118     1.0000 0.57470  0.98410  0.70780  Biso   1.000  O
  O119     1.0000 0.92530  0.48410  0.79220  Biso   1.000  O
  O120     1.0000 0.07470  0.48410  0.70780  Biso   1.000  O
  O121     1.0000 0.34350  0.97770  0.38240  Biso   1.000  O
  O122     1.0000 0.65650  0.97770  0.11760  Biso   1.000  O
  O123     1.0000 0.84350  0.47770  0.38240  Biso   1.000  O
  O124     1.0000 0.15650  0.47770  0.11760  Biso   1.000  O
  O125     1.0000 0.65650  0.02230  0.61760  Biso   1.000  O
  O126     1.0000 0.34350  0.02230  0.88240  Biso   1.000  O
  O127     1.0000 0.15650  0.52230  0.61760  Biso   1.000  O
  O128     1.0000 0.84350  0.52230  0.88240  Biso   1.000  O
  O129     1.0000 0.50590  0.75710  0.20290  Biso   1.000  O
  O130     1.0000 0.49410  0.75710  0.29710  Biso   1.000  O
  O131     1.0000 0.00590  0.25710  0.20290  Biso   1.000  O
  O132     1.0000 0.99410  0.25710  0.29710  Biso   1.000  O
  O133     1.0000 0.49410  0.24290  0.79710  Biso   1.000  O
  O134     1.0000 0.50590  0.24290  0.70290  Biso   1.000  O
  O135     1.0000 0.99410  0.74290  0.79710  Biso   1.000  O
  O136     1.0000 0.00590  0.74290  0.70290  Biso   1.000  O
  O137     1.0000 0.52610  0.93600  0.09810  Biso   1.000  O
  O138     1.0000 0.47390  0.93600  0.40190  Biso   1.000  O
  O139     1.0000 0.02610  0.43600  0.09810  Biso   1.000  O
  O140     1.0000 0.97390  0.43600  0.40190  Biso   1.000  O
  O141     1.0000 0.47390  0.06400  0.90190  Biso   1.000  O
  O142     1.0000 0.52610  0.06400  0.59810  Biso   1.000  O
  O143     1.0000 0.97390  0.56400  0.90190  Biso   1.000  O
  O144     1.0000 0.02610  0.56400  0.59810  Biso   1.000  O
  O145     1.0000 0.49330  0.90770  0.29350  Biso   1.000  O
  O146     1.0000 0.50670  0.90770  0.20650  Biso   1.000  O
  O147     1.0000 0.99330  0.40770  0.29350  Biso   1.000  O
  O148     1.0000 0.00670  0.40770  0.20650  Biso   1.000  O
  O149     1.0000 0.50670  0.09230  0.70650  Biso   1.000  O
  O150     1.0000 0.49330  0.09230  0.79350  Biso   1.000  O
  O151     1.0000 0.00670  0.59230  0.70650  Biso   1.000  O
  O152     1.0000 0.99330  0.59230  0.79350  Biso   1.000  O
  O153     1.0000 0.44790  0.64920  0.16470  Biso   1.000  O
  O154     1.0000 0.55210  0.64920  0.33530  Biso   1.000  O
  O155     1.0000 0.94790  0.14920  0.16470  Biso   1.000  O
  O156     1.0000 0.05210  0.14920  0.33530  Biso   1.000  O
  O157     1.0000 0.55210  0.35080  0.83530  Biso   1.000  O
  O158     1.0000 0.44790  0.35080  0.66470  Biso   1.000  O
  O159     1.0000 0.05210  0.85080  0.83530  Biso   1.000  O
  O160     1.0000 0.94790  0.85080  0.66470  Biso   1.000  O
  O161     1.0000 0.42490  0.64980  0.28990  Biso   1.000  O
  O162     1.0000 0.57510  0.64980  0.21010  Biso   1.000  O
  O163     1.0000 0.92490  0.14980  0.28990  Biso   1.000  O
  O164     1.0000 0.07510  0.14980  0.21010  Biso   1.000  O
  O165     1.0000 0.57510  0.35020  0.71010  Biso   1.000  O
  O166     1.0000 0.42490  0.35020  0.78990  Biso   1.000  O
  O167     1.0000 0.07510  0.85020  0.71010  Biso   1.000  O
  O168     1.0000 0.92490  0.85020  0.78990  Biso   1.000  O
  O169     1.0000 0.47240  0.72490  0.40170  Biso   1.000  O
  O170     1.0000 0.52760  0.72490  0.09830  Biso   1.000  O
  O171     1.0000 0.97240  0.22490  0.40170  Biso   1.000  O
  O172     1.0000 0.02760  0.22490  0.09830  Biso   1.000  O
  O173     1.0000 0.52760  0.27510  0.59830  Biso   1.000  O
  O174     1.0000 0.47240  0.27510  0.90170  Biso   1.000  O
  O175     1.0000 0.02760  0.77510  0.59830  Biso   1.000  O
  O176     1.0000 0.97240  0.77510  0.90170  Biso   1.000  O
  O177     1.0000 0.40480  0.97860  0.03040  Biso   1.000  O
  O178     1.0000 0.59520  0.97860  0.46960  Biso   1.000  O
  O179     1.0000 0.90480  0.47860  0.03040  Biso   1.000  O
  O180     1.0000 0.09520  0.47860  0.46960  Biso   1.000  O
  O181     1.0000 0.59520  0.02140  0.96960  Biso   1.000  O
  O182     1.0000 0.40480  0.02140  0.53040  Biso   1.000  O
  O183     1.0000 0.09520  0.52140  0.96960  Biso   1.000  O
  O184     1.0000 0.90480  0.52140  0.53040  Biso   1.000  O
  O185     1.0000 0.35830  0.90640  0.13520  Biso   1.000  O
  O186     1.0000 0.64170  0.90640  0.36480  Biso   1.000  O
  O187     1.0000 0.85830  0.40640  0.13520  Biso   1.000  O
  O188     1.0000 0.14170  0.40640  0.36480  Biso   1.000  O
  O189     1.0000 0.64170  0.09360  0.86480  Biso   1.000  O
  O190     1.0000 0.35830  0.09360  0.63520  Biso   1.000  O
  O191     1.0000 0.14170  0.59360  0.86480  Biso   1.000  O
  O192     1.0000 0.85830  0.59360  0.63520  Biso   1.000  O
  O193     1.0000 0.38120  0.83130  0.37050  Biso   1.000  O
  O194     1.0000 0.61880  0.83130  0.12950  Biso   1.000  O
  O195     1.0000 0.88120  0.33130  0.37050  Biso   1.000  O
  O196     1.0000 0.11880  0.33130  0.12950  Biso   1.000  O
  O197     1.0000 0.61880  0.16870  0.62950  Biso   1.000  O
  O198     1.0000 0.38120  0.16870  0.87050  Biso   1.000  O
  O199     1.0000 0.11880  0.66870  0.62950  Biso   1.000  O
  O200     1.0000 0.88120  0.66870  0.87050  Biso   1.000  O
  N1       1.0000 0.33570  0.81860  0.77430  Biso   1.000  N
  N2       1.0000 0.66430  0.81860  0.72570  Biso   1.000  N
  N3       1.0000 0.83570  0.31860  0.77430  Biso   1.000  N
  N4       1.0000 0.16430  0.31860  0.72570  Biso   1.000  N
  N5       1.0000 0.66430  0.18140  0.22570  Biso   1.000  N
  N6       1.0000 0.33570  0.18140  0.27430  Biso   1.000  N
  N7       1.0000 0.16430  0.68140  0.22570  Biso   1.000  N
  N8       1.0000 0.83570  0.68140  0.27430  Biso   1.000  N
  N9       1.0000 0.41100  0.64160  0.87830  Biso   1.000  N
  N10      1.0000 0.58900  0.64160  0.62170  Biso   1.000  N
  N11      1.0000 0.91100  0.14160  0.87830  Biso   1.000  N
  N12      1.0000 0.08900  0.14160  0.62170  Biso   1.000  N
  N13      1.0000 0.58900  0.35840  0.12170  Biso   1.000  N
  N14      1.0000 0.41100  0.35840  0.37830  Biso   1.000  N
  N15      1.0000 0.08900  0.85840  0.12170  Biso   1.000  N
  N16      1.0000 0.91100  0.85840  0.37830  Biso   1.000  N
  N17      1.0000 0.48600  0.78910  0.92770  Biso   1.000  N
  N18      1.0000 0.51400  0.78910  0.57230  Biso   1.000  N
  N19      1.0000 0.98600  0.28910  0.92770  Biso   1.000  N
  N20      1.0000 0.01400  0.28910  0.57230  Biso   1.000  N
  N21      1.0000 0.51400  0.21090  0.07230  Biso   1.000  N
  N22      1.0000 0.48600  0.21090  0.42770  Biso   1.000  N
  N23      1.0000 0.01400  0.71090  0.07230  Biso   1.000  N
  N24      1.0000 0.98600  0.71090  0.42770  Biso   1.000  N
  N25      1.0000 0.30430  0.83450  0.92170  Biso   1.000  N
  N26      1.0000 0.69570  0.83450  0.57830  Biso   1.000  N
  N27      1.0000 0.80430  0.33450  0.92170  Biso   1.000  N
  N28      1.0000 0.19570  0.33450  0.57830  Biso   1.000  N
  N29      1.0000 0.69570  0.16550  0.07830  Biso   1.000  N
  N30      1.0000 0.30430  0.16550  0.42170  Biso   1.000  N
  N31      1.0000 0.19570  0.66550  0.07830  Biso   1.000  N
  N32      1.0000 0.80430  0.66550  0.42170  Biso   1.000  N
  C1       1.0000 0.26300  0.92750  0.68960  Biso   1.000  C
  C2       1.0000 0.73700  0.92750  0.81040  Biso   1.000  C
  C3       1.0000 0.76300  0.42750  0.68960  Biso   1.000  C
  C4       1.0000 0.23700  0.42750  0.81040  Biso   1.000  C
  C5       1.0000 0.73700  0.07250  0.31040  Biso   1.000  C
  C6       1.0000 0.26300  0.07250  0.18960  Biso   1.000  C
  C7       1.0000 0.23700  0.57250  0.31040  Biso   1.000  C
  C8       1.0000 0.76300  0.57250  0.18960  Biso   1.000  C
  H1       1.0000 0.23840  0.96340  0.66160  Biso   1.000  H
  H2       1.0000 0.76160  0.96340  0.83840  Biso   1.000  H
  H3       1.0000 0.73840  0.46340  0.66160  Biso   1.000  H
  H4       1.0000 0.26160  0.46340  0.83840  Biso   1.000  H
  H5       1.0000 0.76160  0.03660  0.33840  Biso   1.000  H
  H6       1.0000 0.23840  0.03660  0.16160  Biso   1.000  H
  H7       1.0000 0.26160  0.53660  0.33840  Biso   1.000  H
  H8       1.0000 0.73840  0.53660  0.16160  Biso   1.000  H
  C9       1.0000 0.25420  0.91580  0.75400  Biso   1.000  C
  C10      1.0000 0.74580  0.91580  0.74600  Biso   1.000  C
  C11      1.0000 0.75420  0.41580  0.75400  Biso   1.000  C
  C12      1.0000 0.24580  0.41580  0.74600  Biso   1.000  C
  C13      1.0000 0.74580  0.08420  0.24600  Biso   1.000  C
  C14      1.0000 0.25420  0.08420  0.25400  Biso   1.000  C
  C15      1.0000 0.24580  0.58420  0.24600  Biso   1.000  C
  C16      1.0000 0.75420  0.58420  0.25400  Biso   1.000  C
  C17      1.0000 0.31230  0.88170  0.66630  Biso   1.000  C
  C18      1.0000 0.68770  0.88170  0.83370  Biso   1.000  C
  C19      1.0000 0.81230  0.38170  0.66630  Biso   1.000  C
  C20      1.0000 0.18770  0.38170  0.83370  Biso   1.000  C
  C21      1.0000 0.68770  0.11830  0.33370  Biso   1.000  C
  C22      1.0000 0.31230  0.11830  0.16630  Biso   1.000  C
  C23      1.0000 0.18770  0.61830  0.33370  Biso   1.000  C
  C24      1.0000 0.81230  0.61830  0.16630  Biso   1.000  C
  H9       1.0000 0.32220  0.88800  0.62250  Biso   1.000  H
  H10      1.0000 0.67780  0.88800  0.87750  Biso   1.000  H
  H11      1.0000 0.82220  0.38800  0.62250  Biso   1.000  H
  H12      1.0000 0.17780  0.38800  0.87750  Biso   1.000  H
  H13      1.0000 0.67780  0.11200  0.37750  Biso   1.000  H
  H14      1.0000 0.32220  0.11200  0.12250  Biso   1.000  H
  H15      1.0000 0.17780  0.61200  0.37750  Biso   1.000  H
  H16      1.0000 0.82220  0.61200  0.12250  Biso   1.000  H
  C25      1.0000 0.49070  0.51290  0.91420  Biso   1.000  C
  C26      1.0000 0.50930  0.51290  0.58580  Biso   1.000  C
  C27      1.0000 0.99070  0.01290  0.91420  Biso   1.000  C
  C28      1.0000 0.00930  0.01290  0.58580  Biso   1.000  C
  C29      1.0000 0.50930  0.48710  0.08580  Biso   1.000  C
  C30      1.0000 0.49070  0.48710  0.41420  Biso   1.000  C
  C31      1.0000 0.00930  0.98710  0.08580  Biso   1.000  C
  C32      1.0000 0.99070  0.98710  0.41420  Biso   1.000  C
  H17      1.0000 0.51760  0.47020  0.92400  Biso   1.000  H
  H18      1.0000 0.48240  0.47020  0.57600  Biso   1.000  H
  H19      1.0000 0.01760  0.97020  0.92400  Biso   1.000  H
  H20      1.0000 0.98240  0.97020  0.57600  Biso   1.000  H
  H21      1.0000 0.48240  0.52980  0.07600  Biso   1.000  H
  H22      1.0000 0.51760  0.52980  0.42400  Biso   1.000  H
  H23      1.0000 0.98240  0.02980  0.07600  Biso   1.000  H
  H24      1.0000 0.01760  0.02980  0.42400  Biso   1.000  H
  C33      1.0000 0.29160  0.86310  0.79490  Biso   1.000  C
  C34      1.0000 0.70840  0.86310  0.70510  Biso   1.000  C
  C35      1.0000 0.79160  0.36310  0.79490  Biso   1.000  C
  C36      1.0000 0.20840  0.36310  0.70510  Biso   1.000  C
  C37      1.0000 0.70840  0.13690  0.20510  Biso   1.000  C
  C38      1.0000 0.29160  0.13690  0.29490  Biso   1.000  C
  C39      1.0000 0.20840  0.63690  0.20510  Biso   1.000  C
  C40      1.0000 0.79160  0.63690  0.29490  Biso   1.000  C
  C41      1.0000 0.34460  0.82840  0.71000  Biso   1.000  C
  C42      1.0000 0.65540  0.82840  0.79000  Biso   1.000  C
  C43      1.0000 0.84460  0.32840  0.71000  Biso   1.000  C
  C44      1.0000 0.15540  0.32840  0.79000  Biso   1.000  C
  C45      1.0000 0.65540  0.17160  0.29000  Biso   1.000  C
  C46      1.0000 0.34460  0.17160  0.21000  Biso   1.000  C
  C47      1.0000 0.15540  0.67160  0.29000  Biso   1.000  C
  C48      1.0000 0.84460  0.67160  0.21000  Biso   1.000  C
  H25      1.0000 0.37490  0.79680  0.69350  Biso   1.000  H
  H26      1.0000 0.62510  0.79680  0.80650  Biso   1.000  H
  H27      1.0000 0.87490  0.29680  0.69350  Biso   1.000  H
  H28      1.0000 0.12510  0.29680  0.80650  Biso   1.000  H
  H29      1.0000 0.62510  0.20320  0.30650  Biso   1.000  H
  H30      1.0000 0.37490  0.20320  0.19350  Biso   1.000  H
  H31      1.0000 0.12510  0.70320  0.30650  Biso   1.000  H
  H32      1.0000 0.87490  0.70320  0.19350  Biso   1.000  H
  C49      1.0000 0.52880  0.84670  0.94950  Biso   1.000  C
  C50      1.0000 0.47120  0.84670  0.55050  Biso   1.000  C
  C51      1.0000 0.02880  0.34670  0.94950  Biso   1.000  C
  C52      1.0000 0.97120  0.34670  0.55050  Biso   1.000  C
  C53      1.0000 0.47120  0.15330  0.05050  Biso   1.000  C
  C54      1.0000 0.52880  0.15330  0.44950  Biso   1.000  C
  C55      1.0000 0.97120  0.65330  0.05050  Biso   1.000  C
  C56      1.0000 0.02880  0.65330  0.44950  Biso   1.000  C
  H33      1.0000 0.51260  0.89630  0.95110  Biso   1.000  H
  H34      1.0000 0.48740  0.89630  0.54890  Biso   1.000  H
  H35      1.0000 0.01260  0.39630  0.95110  Biso   1.000  H
  H36      1.0000 0.98740  0.39630  0.54890  Biso   1.000  H
  H37      1.0000 0.48740  0.10370  0.04890  Biso   1.000  H
  H38      1.0000 0.51260  0.10370  0.45110  Biso   1.000  H
  H39      1.0000 0.98740  0.60370  0.04890  Biso   1.000  H
  H40      1.0000 0.01260  0.60370  0.45110  Biso   1.000  H
  C57      1.0000 0.27820  0.84710  0.97860  Biso   1.000  C
  C58      1.0000 0.72180  0.84710  0.52140  Biso   1.000  C
  C59      1.0000 0.77820  0.34710  0.97860  Biso   1.000  C
  C60      1.0000 0.22180  0.34710  0.52140  Biso   1.000  C
  C61      1.0000 0.72180  0.15290  0.02140  Biso   1.000  C
  C62      1.0000 0.27820  0.15290  0.47860  Biso   1.000  C
  C63      1.0000 0.22180  0.65290  0.02140  Biso   1.000  C
  C64      1.0000 0.77820  0.65290  0.47860  Biso   1.000  C
  H41      1.0000 0.29820  0.82520  0.01950  Biso   1.000  H
  H42      1.0000 0.70180  0.82520  0.48050  Biso   1.000  H
  H43      1.0000 0.79820  0.32520  0.01950  Biso   1.000  H
  H44      1.0000 0.20180  0.32520  0.48050  Biso   1.000  H
  H45      1.0000 0.70180  0.17480  0.98050  Biso   1.000  H
  H46      1.0000 0.29820  0.17480  0.51950  Biso   1.000  H
  H47      1.0000 0.20180  0.67480  0.98050  Biso   1.000  H
  H48      1.0000 0.79820  0.67480  0.51950  Biso   1.000  H
  C65      1.0000 0.38770  0.56920  0.86840  Biso   1.000  C
  C66      1.0000 0.61230  0.56920  0.63160  Biso   1.000  C
  C67      1.0000 0.88770  0.06920  0.86840  Biso   1.000  C
  C68      1.0000 0.11230  0.06920  0.63160  Biso   1.000  C
  C69      1.0000 0.61230  0.43080  0.13160  Biso   1.000  C
  C70      1.0000 0.38770  0.43080  0.36840  Biso   1.000  C
  C71      1.0000 0.11230  0.93080  0.13160  Biso   1.000  C
  C72      1.0000 0.88770  0.93080  0.36840  Biso   1.000  C
  H49      1.0000 0.34420  0.56230  0.84780  Biso   1.000  H
  H50      1.0000 0.65580  0.56230  0.65220  Biso   1.000  H
  H51      1.0000 0.84420  0.06230  0.84780  Biso   1.000  H
  H52      1.0000 0.15580  0.06230  0.65220  Biso   1.000  H
  H53      1.0000 0.65580  0.43770  0.15220  Biso   1.000  H
  H54      1.0000 0.34420  0.43770  0.34780  Biso   1.000  H
  H55      1.0000 0.15580  0.93770  0.15220  Biso   1.000  H
  H56      1.0000 0.84420  0.93770  0.34780  Biso   1.000  H
  C73      1.0000 0.20540  0.95040  0.79450  Biso   1.000  C
  C74      1.0000 0.79460  0.95040  0.70550  Biso   1.000  C
  C75      1.0000 0.70540  0.45040  0.79450  Biso   1.000  C
  C76      1.0000 0.29460  0.45040  0.70550  Biso   1.000  C
  C77      1.0000 0.79460  0.04960  0.20550  Biso   1.000  C
  C78      1.0000 0.20540  0.04960  0.29450  Biso   1.000  C
  C79      1.0000 0.29460  0.54960  0.20550  Biso   1.000  C
  C80      1.0000 0.70540  0.54960  0.29450  Biso   1.000  C
  C81      1.0000 0.22330  0.89120  0.97830  Biso   1.000  C
  C82      1.0000 0.77670  0.89120  0.52170  Biso   1.000  C
  C83      1.0000 0.72330  0.39120  0.97830  Biso   1.000  C
  C84      1.0000 0.27670  0.39120  0.52170  Biso   1.000  C
  C85      1.0000 0.77670  0.10880  0.02170  Biso   1.000  C
  C86      1.0000 0.22330  0.10880  0.47830  Biso   1.000  C
  C87      1.0000 0.27670  0.60880  0.02170  Biso   1.000  C
  C88      1.0000 0.72330  0.60880  0.47830  Biso   1.000  C
  H57      1.0000 0.20530  0.89640  0.01810  Biso   1.000  H
  H58      1.0000 0.79470  0.89640  0.48190  Biso   1.000  H
  H59      1.0000 0.70530  0.39640  0.01810  Biso   1.000  H
  H60      1.0000 0.29470  0.39640  0.48190  Biso   1.000  H
  H61      1.0000 0.79470  0.10360  0.98190  Biso   1.000  H
  H62      1.0000 0.20530  0.10360  0.51810  Biso   1.000  H
  H63      1.0000 0.29470  0.60360  0.98190  Biso   1.000  H
  H64      1.0000 0.70530  0.60360  0.51810  Biso   1.000  H
  C89      1.0000 0.19560  0.92620  0.92210  Biso   1.000  C
  C90      1.0000 0.80440  0.92620  0.57790  Biso   1.000  C
  C91      1.0000 0.69560  0.42620  0.92210  Biso   1.000  C
  C92      1.0000 0.30440  0.42620  0.57790  Biso   1.000  C
  C93      1.0000 0.80440  0.07380  0.07790  Biso   1.000  C
  C94      1.0000 0.19560  0.07380  0.42210  Biso   1.000  C
  C95      1.0000 0.30440  0.57380  0.07790  Biso   1.000  C
  C96      1.0000 0.69560  0.57380  0.42210  Biso   1.000  C
  H65      1.0000 0.15930  0.95790  0.92230  Biso   1.000  H
  H66      1.0000 0.84070  0.95790  0.57770  Biso   1.000  H
  H67      1.0000 0.65930  0.45790  0.92230  Biso   1.000  H
  H68      1.0000 0.34070  0.45790  0.57770  Biso   1.000  H
  H69      1.0000 0.84070  0.04210  0.07770  Biso   1.000  H
  H70      1.0000 0.15930  0.04210  0.42230  Biso   1.000  H
  H71      1.0000 0.34070  0.54210  0.07770  Biso   1.000  H
  H72      1.0000 0.65930  0.54210  0.42230  Biso   1.000  H
  C97      1.0000 0.59380  0.83430  0.96890  Biso   1.000  C
  C98      1.0000 0.40620  0.83430  0.53110  Biso   1.000  C
  C99      1.0000 0.09380  0.33430  0.96890  Biso   1.000  C
  C100     1.0000 0.90620  0.33430  0.53110  Biso   1.000  C
  C101     1.0000 0.40620  0.16570  0.03110  Biso   1.000  C
  C102     1.0000 0.59380  0.16570  0.46890  Biso   1.000  C
  C103     1.0000 0.90620  0.66570  0.03110  Biso   1.000  C
  C104     1.0000 0.09380  0.66570  0.46890  Biso   1.000  C
  H73      1.0000 0.62210  0.87560  0.97990  Biso   1.000  H
  H74      1.0000 0.37790  0.87560  0.52010  Biso   1.000  H
  H75      1.0000 0.12210  0.37560  0.97990  Biso   1.000  H
  H76      1.0000 0.87790  0.37560  0.52010  Biso   1.000  H
  H77      1.0000 0.37790  0.12440  0.02010  Biso   1.000  H
  H78      1.0000 0.62210  0.12440  0.47990  Biso   1.000  H
  H79      1.0000 0.87790  0.62440  0.02010  Biso   1.000  H
  H80      1.0000 0.12210  0.62440  0.47990  Biso   1.000  H
  C105     1.0000 0.58100  0.61620  0.95350  Biso   1.000  C
  C106     1.0000 0.41900  0.61620  0.54650  Biso   1.000  C
  C107     1.0000 0.08100  0.11620  0.95350  Biso   1.000  C
  C108     1.0000 0.91900  0.11620  0.54650  Biso   1.000  C
  C109     1.0000 0.41900  0.38380  0.04650  Biso   1.000  C
  C110     1.0000 0.58100  0.38380  0.45350  Biso   1.000  C
  C111     1.0000 0.91900  0.88380  0.04650  Biso   1.000  C
  C112     1.0000 0.08100  0.88380  0.45350  Biso   1.000  C
  C113     1.0000 0.27390  0.86650  0.86580  Biso   1.000  C
  C114     1.0000 0.72610  0.86650  0.63420  Biso   1.000  C
  C115     1.0000 0.77390  0.36650  0.86580  Biso   1.000  C
  C116     1.0000 0.22610  0.36650  0.63420  Biso   1.000  C
  C117     1.0000 0.72610  0.13350  0.13420  Biso   1.000  C
  C118     1.0000 0.27390  0.13350  0.36580  Biso   1.000  C
  C119     1.0000 0.22610  0.63350  0.13420  Biso   1.000  C
  C120     1.0000 0.77390  0.63350  0.36580  Biso   1.000  C
  C121     1.0000 0.61880  0.75910  0.97270  Biso   1.000  C
  C122     1.0000 0.38120  0.75910  0.52730  Biso   1.000  C
  C123     1.0000 0.11880  0.25910  0.97270  Biso   1.000  C
  C124     1.0000 0.88120  0.25910  0.52730  Biso   1.000  C
  C125     1.0000 0.38120  0.24090  0.02730  Biso   1.000  C
  C126     1.0000 0.61880  0.24090  0.47270  Biso   1.000  C
  C127     1.0000 0.88120  0.74090  0.02730  Biso   1.000  C
  C128     1.0000 0.11880  0.74090  0.47270  Biso   1.000  C
  H81      1.0000 0.66280  0.74910  0.98970  Biso   1.000  H
  H82      1.0000 0.33720  0.74910  0.51030  Biso   1.000  H
  H83      1.0000 0.16280  0.24910  0.98970  Biso   1.000  H
  H84      1.0000 0.83720  0.24910  0.51030  Biso   1.000  H
  H85      1.0000 0.33720  0.25090  0.01030  Biso   1.000  H
  H86      1.0000 0.66280  0.25090  0.48970  Biso   1.000  H
  H87      1.0000 0.83720  0.75090  0.01030  Biso   1.000  H
  H88      1.0000 0.16280  0.75090  0.48970  Biso   1.000  H
  C129     1.0000 0.50910  0.71890  0.92770  Biso   1.000  C
  C130     1.0000 0.49090  0.71890  0.57230  Biso   1.000  C
  C131     1.0000 0.00910  0.21890  0.92770  Biso   1.000  C
  C132     1.0000 0.99090  0.21890  0.57230  Biso   1.000  C
  C133     1.0000 0.49090  0.28110  0.07230  Biso   1.000  C
  C134     1.0000 0.50910  0.28110  0.42770  Biso   1.000  C
  C135     1.0000 0.99090  0.78110  0.07230  Biso   1.000  C
  C136     1.0000 0.00910  0.78110  0.42770  Biso   1.000  C
  C137     1.0000 0.57550  0.70100  0.95020  Biso   1.000  C
  C138     1.0000 0.42450  0.70100  0.54980  Biso   1.000  C
  C139     1.0000 0.07550  0.20100  0.95020  Biso   1.000  C
  C140     1.0000 0.92450  0.20100  0.54980  Biso   1.000  C
  C141     1.0000 0.42450  0.29900  0.04980  Biso   1.000  C
  C142     1.0000 0.57550  0.29900  0.45020  Biso   1.000  C
  C143     1.0000 0.92450  0.79900  0.04980  Biso   1.000  C
  C144     1.0000 0.07550  0.79900  0.45020  Biso   1.000  C
  C145     1.0000 0.22100  0.91500  0.86470  Biso   1.000  C
  C146     1.0000 0.77900  0.91500  0.63530  Biso   1.000  C
  C147     1.0000 0.72100  0.41500  0.86470  Biso   1.000  C
  C148     1.0000 0.27900  0.41500  0.63530  Biso   1.000  C
  C149     1.0000 0.77900  0.08500  0.13530  Biso   1.000  C
  C150     1.0000 0.22100  0.08500  0.36470  Biso   1.000  C
  C151     1.0000 0.27900  0.58500  0.13530  Biso   1.000  C
  C152     1.0000 0.72100  0.58500  0.36470  Biso   1.000  C
  C153     1.0000 0.42480  0.50680  0.88730  Biso   1.000  C
  C154     1.0000 0.57520  0.50680  0.61270  Biso   1.000  C
  C155     1.0000 0.92480  0.00680  0.88730  Biso   1.000  C
  C156     1.0000 0.07520  0.00680  0.61270  Biso   1.000  C
  C157     1.0000 0.57520  0.49320  0.11270  Biso   1.000  C
  C158     1.0000 0.42480  0.49320  0.38730  Biso   1.000  C
  C159     1.0000 0.07520  0.99320  0.11270  Biso   1.000  C
  C160     1.0000 0.92480  0.99320  0.38730  Biso   1.000  C
  H89      1.0000 0.40550  0.45850  0.88210  Biso   1.000  H
  H90      1.0000 0.59450  0.45850  0.61790  Biso   1.000  H
  H91      1.0000 0.90550  0.95850  0.88210  Biso   1.000  H
  H92      1.0000 0.09450  0.95850  0.61790  Biso   1.000  H
  H93      1.0000 0.59450  0.54150  0.11790  Biso   1.000  H
  H94      1.0000 0.40550  0.54150  0.38210  Biso   1.000  H
  H95      1.0000 0.09450  0.04150  0.11790  Biso   1.000  H
  H96      1.0000 0.90550  0.04150  0.38210  Biso   1.000  H
  C161     1.0000 0.47320  0.64880  0.90780  Biso   1.000  C
  C162     1.0000 0.52680  0.64880  0.59220  Biso   1.000  C
  C163     1.0000 0.97320  0.14880  0.90780  Biso   1.000  C
  C164     1.0000 0.02680  0.14880  0.59220  Biso   1.000  C
  C165     1.0000 0.52680  0.35120  0.09220  Biso   1.000  C
  C166     1.0000 0.47320  0.35120  0.40780  Biso   1.000  C
  C167     1.0000 0.02680  0.85120  0.09220  Biso   1.000  C
  C168     1.0000 0.97320  0.85120  0.40780  Biso   1.000  C
  C169     1.0000 0.51420  0.58660  0.92540  Biso   1.000  C
  C170     1.0000 0.48580  0.58660  0.57460  Biso   1.000  C
  C171     1.0000 0.01420  0.08660  0.92540  Biso   1.000  C
  C172     1.0000 0.98580  0.08660  0.57460  Biso   1.000  C
  C173     1.0000 0.48580  0.41340  0.07460  Biso   1.000  C
  C174     1.0000 0.51420  0.41340  0.42540  Biso   1.000  C
  C175     1.0000 0.98580  0.91340  0.07460  Biso   1.000  C
  C176     1.0000 0.01420  0.91340  0.42540  Biso   1.000  C
