data_image0
_cell_length_a       10.041
_cell_length_b       10.979
_cell_length_c       21.964
_cell_angle_alpha    91.68
_cell_angle_beta     96.02
_cell_angle_gamma    101.91

_symmetry_space_group_name_H-M    "P 1"
_symmetry_int_tables_number       1

loop_
  _symmetry_equiv_pos_as_xyz
  'x, y, z'

loop_
  _atom_site_label
  _atom_site_occupancy
  _atom_site_fract_x
  _atom_site_fract_y
  _atom_site_fract_z
  _atom_site_thermal_displace_type
  _atom_site_B_iso_or_equiv
  _atom_site_type_symbol
  Cu1      1.0000 0.85880  0.57550  0.98046  Biso   1.000  Cu
  Cu2      1.0000 0.14120  0.42450  0.01954  Biso   1.000  Cu
  Mo1      1.0000 0.61631  0.00730  0.06827  Biso   1.000  Mo
  Mo2      1.0000 0.38369  0.99270  0.93173  Biso   1.000  Mo
  Mo3      1.0000 0.69331  0.20956  0.96975  Biso   1.000  Mo
  Mo4      1.0000 0.30669  0.79044  0.03025  Biso   1.000  Mo
  Mo5      1.0000 0.39565  0.21270  0.03256  Biso   1.000  Mo
  Mo6      1.0000 0.60435  0.78730  0.96744  Biso   1.000  Mo
  Mo7      1.0000 0.67913  0.99029  0.86219  Biso   1.000  Mo
  Mo8      1.0000 0.32087  0.00971  0.13781  Biso   1.000  Mo
  O1       1.0000 0.45540  0.36510  0.03700  Biso   1.000  O
  O2       1.0000 0.54460  0.63490  0.96300  Biso   1.000  O
  O3       1.0000 0.68250  0.16110  0.88560  Biso   1.000  O
  O4       1.0000 0.31750  0.83890  0.11440  Biso   1.000  O
  O5       1.0000 0.68930  0.35990  0.96500  Biso   1.000  O
  O6       1.0000 0.31070  0.64010  0.03500  Biso   1.000  O
  O7       1.0000 0.84910  0.99420  0.88340  Biso   1.000  O
  O8       1.0000 0.15090  0.00580  0.11660  Biso   1.000  O
  O9       1.0000 0.85950  0.20800  0.99550  Biso   1.000  O
  O10      1.0000 0.14050  0.79200  0.00450  Biso   1.000  O
  O11      1.0000 0.61530  0.17410  0.04960  Biso   1.000  O
  O12      1.0000 0.38470  0.82590  0.95040  Biso   1.000  O
  O13      1.0000 0.60940  0.82430  0.88350  Biso   1.000  O
  O14      1.0000 0.39060  0.17570  0.11650  Biso   1.000  O
  O15      1.0000 0.78440  0.01210  0.08770  Biso   1.000  O
  O16      1.0000 0.21560  0.98790  0.91230  Biso   1.000  O
  O17      1.0000 0.45440  0.17250  0.95220  Biso   1.000  O
  O18      1.0000 0.54560  0.82750  0.04780  Biso   1.000  O
  O19      1.0000 0.61570  0.00160  0.97120  Biso   1.000  O
  O20      1.0000 0.38430  0.99840  0.02880  Biso   1.000  O
  O21      1.0000 0.22450  0.19720  0.00930  Biso   1.000  O
  O22      1.0000 0.77550  0.80280  0.99070  Biso   1.000  O
  O23      1.0000 0.45410  0.99040  0.86210  Biso   1.000  O
  O24      1.0000 0.54590  0.00960  0.13790  Biso   1.000  O
  O25      1.0000 0.66280  0.98390  0.78560  Biso   1.000  O
  O26      1.0000 0.33720  0.01610  0.21440  Biso   1.000  O
  C1       1.0000 0.71100  0.97960  0.47410  Biso   1.000  C
  C2       1.0000 0.28900  0.02040  0.52590  Biso   1.000  C
  H1       1.0000 0.62750  0.92700  0.47860  Biso   1.000  H
  H2       1.0000 0.37250  0.07300  0.52140  Biso   1.000  H
  N1       1.0000 0.80200  0.03800  0.52090  Biso   1.000  N
  N2       1.0000 0.19800  0.96200  0.47910  Biso   1.000  N
  C3       1.0000 0.90800  0.11200  0.49340  Biso   1.000  C
  C4       1.0000 0.09200  0.88800  0.50660  Biso   1.000  C
  H3       1.0000 0.98380  0.16580  0.51380  Biso   1.000  H
  H4       1.0000 0.01620  0.83420  0.48620  Biso   1.000  H
  C5       1.0000 0.88000  0.09120  0.43260  Biso   1.000  C
  C6       1.0000 0.12000  0.90880  0.56740  Biso   1.000  C
  H5       1.0000 0.93450  0.12710  0.40340  Biso   1.000  H
  H6       1.0000 0.06550  0.87290  0.59660  Biso   1.000  H
  N3       1.0000 0.75720  0.00790  0.42090  Biso   1.000  N
  N4       1.0000 0.24280  0.99210  0.57910  Biso   1.000  N
  C7       1.0000 0.68400  0.96700  0.36040  Biso   1.000  C
  C8       1.0000 0.31600  0.03300  0.63960  Biso   1.000  C
  H7       1.0000 0.65970  0.03840  0.34020  Biso   1.000  H
  H8       1.0000 0.34030  0.96160  0.65980  Biso   1.000  H
  H9       1.0000 0.60010  0.90770  0.36470  Biso   1.000  H
  H10      1.0000 0.39990  0.09230  0.63530  Biso   1.000  H
  C9       1.0000 0.77190  0.90770  0.32130  Biso   1.000  C
  C10      1.0000 0.22810  0.09230  0.67870  Biso   1.000  C
  C11      1.0000 0.84170  0.81960  0.34460  Biso   1.000  C
  C12      1.0000 0.15830  0.18040  0.65540  Biso   1.000  C
  H11      1.0000 0.83330  0.79530  0.38450  Biso   1.000  H
  H12      1.0000 0.16670  0.20470  0.61550  Biso   1.000  H
  C13      1.0000 0.92190  0.76850  0.30980  Biso   1.000  C
  C14      1.0000 0.07810  0.23150  0.69020  Biso   1.000  C
  H13      1.0000 0.96990  0.71140  0.32690  Biso   1.000  H
  H14      1.0000 0.03010  0.28860  0.67310  Biso   1.000  H
  C15      1.0000 0.93480  0.79830  0.25000  Biso   1.000  C
  C16      1.0000 0.06520  0.20170  0.75000  Biso   1.000  C
  C17      1.0000 0.86200  0.88210  0.22600  Biso   1.000  C
  C18      1.0000 0.13800  0.11790  0.77400  Biso   1.000  C
  H15      1.0000 0.86780  0.90290  0.18550  Biso   1.000  H
  H16      1.0000 0.13220  0.09710  0.81450  Biso   1.000  H
  C19      1.0000 0.78130  0.93600  0.26080  Biso   1.000  C
  C20      1.0000 0.21870  0.06400  0.73920  Biso   1.000  C
  H17      1.0000 0.73260  0.99210  0.24330  Biso   1.000  H
  H18      1.0000 0.26740  0.00790  0.75670  Biso   1.000  H
  C21      1.0000 0.02370  0.74350  0.21200  Biso   1.000  C
  C22      1.0000 0.97630  0.25650  0.78800  Biso   1.000  C
  H19      1.0000 0.08690  0.81080  0.19600  Biso   1.000  H
  H20      1.0000 0.91310  0.18920  0.80400  Biso   1.000  H
  H21      1.0000 0.07750  0.69750  0.23810  Biso   1.000  H
  H22      1.0000 0.92250  0.30250  0.76190  Biso   1.000  H
  N5       1.0000 0.95060  0.66080  0.16100  Biso   1.000  N
  N6       1.0000 0.04940  0.33920  0.83900  Biso   1.000  N
  C23      1.0000 0.95420  0.68330  0.10220  Biso   1.000  C
  C24      1.0000 0.04580  0.31670  0.89780  Biso   1.000  C
  H23      1.0000 0.00230  0.75600  0.08740  Biso   1.000  H
  H24      1.0000 0.99770  0.24400  0.91260  Biso   1.000  H
  N7       1.0000 0.87780  0.58520  0.06660  Biso   1.000  N
  N8       1.0000 0.12220  0.41480  0.93340  Biso   1.000  N
  C25      1.0000 0.82890  0.50030  0.10680  Biso   1.000  C
  C26      1.0000 0.17110  0.49970  0.89320  Biso   1.000  C
  H25      1.0000 0.77490  0.42170  0.09570  Biso   1.000  H
  H26      1.0000 0.22510  0.57830  0.90430  Biso   1.000  H
  C27      1.0000 0.86890  0.54520  0.16460  Biso   1.000  C
  C28      1.0000 0.13110  0.45480  0.83540  Biso   1.000  C
  H27      1.0000 0.84580  0.50590  0.20010  Biso   1.000  H
  H28      1.0000 0.15420  0.49410  0.79990  Biso   1.000  H
  N9       1.0000 0.85330  0.58720  0.89520  Biso   1.000  N
  N10      1.0000 0.14670  0.41280  0.10480  Biso   1.000  N
  C29      1.0000 0.90480  0.68960  0.86620  Biso   1.000  C
  C30      1.0000 0.09520  0.31040  0.13380  Biso   1.000  C
  H29      1.0000 0.94860  0.76560  0.88590  Biso   1.000  H
  H30      1.0000 0.05140  0.23440  0.11410  Biso   1.000  H
  N11      1.0000 0.88540  0.66870  0.80620  Biso   1.000  N
  N12      1.0000 0.11460  0.33130  0.19380  Biso   1.000  N
  C31      1.0000 0.82190  0.54770  0.79480  Biso   1.000  C
  C32      1.0000 0.17810  0.45230  0.20520  Biso   1.000  C
  H31      1.0000 0.79490  0.50680  0.75640  Biso   1.000  H
  H32      1.0000 0.20510  0.49320  0.24360  Biso   1.000  H
  C33      1.0000 0.80530  0.49790  0.84930  Biso   1.000  C
  C34      1.0000 0.19470  0.50210  0.15070  Biso   1.000  C
  H33      1.0000 0.76690  0.41490  0.85480  Biso   1.000  H
  H34      1.0000 0.23310  0.58510  0.14520  Biso   1.000  H
  C35      1.0000 0.94660  0.75290  0.76050  Biso   1.000  C
  C36      1.0000 0.05340  0.24710  0.23950  Biso   1.000  C
  H35      1.0000 0.96220  0.83900  0.77590  Biso   1.000  H
  H36      1.0000 0.03780  0.16100  0.22410  Biso   1.000  H
  H37      1.0000 0.88530  0.74290  0.72270  Biso   1.000  H
  H38      1.0000 0.11470  0.25710  0.27730  Biso   1.000  H
  C37      1.0000 0.08220  0.71930  0.74880  Biso   1.000  C
  C38      1.0000 0.91780  0.28070  0.25120  Biso   1.000  C
  C39      1.0000 0.19500  0.76460  0.79120  Biso   1.000  C
  C40      1.0000 0.80500  0.23540  0.20880  Biso   1.000  C
  H39      1.0000 0.18790  0.81790  0.82390  Biso   1.000  H
  H40      1.0000 0.81210  0.18210  0.17610  Biso   1.000  H
  C41      1.0000 0.31720  0.73090  0.78520  Biso   1.000  C
  C42      1.0000 0.68280  0.26910  0.21480  Biso   1.000  C
  H41      1.0000 0.39310  0.76320  0.81330  Biso   1.000  H
  H42      1.0000 0.60690  0.23680  0.18670  Biso   1.000  H
  C43      1.0000 0.32890  0.65030  0.73820  Biso   1.000  C
  C44      1.0000 0.67110  0.34970  0.26180  Biso   1.000  C
  C45      1.0000 0.21660  0.60910  0.69460  Biso   1.000  C
  C46      1.0000 0.78340  0.39090  0.30540  Biso   1.000  C
  H43      1.0000 0.22420  0.55730  0.66150  Biso   1.000  H
  H44      1.0000 0.77580  0.44270  0.33850  Biso   1.000  H
  C47      1.0000 0.09240  0.64470  0.70010  Biso   1.000  C
  C48      1.0000 0.90760  0.35530  0.29990  Biso   1.000  C
  H45      1.0000 0.01770  0.61750  0.67070  Biso   1.000  H
  H46      1.0000 0.98230  0.38250  0.32930  Biso   1.000  H
  C49      1.0000 0.45820  0.59950  0.73570  Biso   1.000  C
  C50      1.0000 0.54180  0.40050  0.26430  Biso   1.000  C
  H47      1.0000 0.46010  0.56670  0.69440  Biso   1.000  H
  H48      1.0000 0.53990  0.43330  0.30560  Biso   1.000  H
  H49      1.0000 0.53760  0.66700  0.74530  Biso   1.000  H
  H50      1.0000 0.46240  0.33300  0.25470  Biso   1.000  H
  N13      1.0000 0.46630  0.50160  0.77830  Biso   1.000  N
  N14      1.0000 0.53370  0.49840  0.22170  Biso   1.000  N
  C51      1.0000 0.49060  0.52200  0.83740  Biso   1.000  C
  C52      1.0000 0.50940  0.47800  0.16260  Biso   1.000  C
  H51      1.0000 0.50760  0.60010  0.85760  Biso   1.000  H
  H52      1.0000 0.49240  0.39990  0.14240  Biso   1.000  H
  N15      1.0000 0.48800  0.42000  0.86420  Biso   1.000  N
  N16      1.0000 0.51200  0.58000  0.13580  Biso   1.000  N
  C53      1.0000 0.45800  0.32100  0.81930  Biso   1.000  C
  C54      1.0000 0.54200  0.67900  0.18070  Biso   1.000  C
  H53      1.0000 0.44880  0.23630  0.82550  Biso   1.000  H
  H54      1.0000 0.55120  0.76370  0.17450  Biso   1.000  H
  C55      1.0000 0.44400  0.37700  0.76400  Biso   1.000  C
  C56      1.0000 0.55600  0.62300  0.23600  Biso   1.000  C
  H55      1.0000 0.42380  0.33770  0.72500  Biso   1.000  H
  H56      1.0000 0.57620  0.66230  0.27500  Biso   1.000  H
  Mo9      1.0000 0.38980  0.42241  0.55126  Biso   1.000  Mo
  Mo10     1.0000 0.61020  0.57759  0.44874  Biso   1.000  Mo
  Mo11     1.0000 0.29925  0.36700  0.40714  Biso   1.000  Mo
  Mo12     1.0000 0.70075  0.63300  0.59286  Biso   1.000  Mo
  Mo13     1.0000 0.68930  0.33734  0.60998  Biso   1.000  Mo
  Mo14     1.0000 0.31070  0.66266  0.39002  Biso   1.000  Mo
  Mo15     1.0000 0.59509  0.28477  0.46328  Biso   1.000  Mo
  Mo16     1.0000 0.40491  0.71523  0.53672  Biso   1.000  Mo
  O27      1.0000 0.29570  0.24910  0.35690  Biso   1.000  O
  O28      1.0000 0.70430  0.75090  0.64310  Biso   1.000  O
  O29      1.0000 0.60560  0.22210  0.54280  Biso   1.000  O
  O30      1.0000 0.39440  0.77790  0.45720  Biso   1.000  O
  O31      1.0000 0.13620  0.34770  0.42560  Biso   1.000  O
  O32      1.0000 0.86380  0.65230  0.57440  Biso   1.000  O
  O33      1.0000 0.22370  0.40480  0.56260  Biso   1.000  O
  O34      1.0000 0.77630  0.59520  0.43740  Biso   1.000  O
  O35      1.0000 0.38030  0.30420  0.48430  Biso   1.000  O
  O36      1.0000 0.61970  0.69580  0.51570  Biso   1.000  O
  O37      1.0000 0.76300  0.31920  0.45020  Biso   1.000  O
  O38      1.0000 0.23700  0.68080  0.54980  Biso   1.000  O
  O39      1.0000 0.46240  0.33850  0.60810  Biso   1.000  O
  O40      1.0000 0.53760  0.66150  0.39190  Biso   1.000  O
  O41      1.0000 0.30690  0.50100  0.35360  Biso   1.000  O
  O42      1.0000 0.69310  0.49900  0.64640  Biso   1.000  O
  O43      1.0000 0.85600  0.36450  0.59360  Biso   1.000  O
  O44      1.0000 0.14400  0.63550  0.40640  Biso   1.000  O
  O45      1.0000 0.38550  0.53800  0.47360  Biso   1.000  O
  O46      1.0000 0.61450  0.46200  0.52640  Biso   1.000  O
  O47      1.0000 0.46660  0.59030  0.58980  Biso   1.000  O
  O48      1.0000 0.53340  0.40970  0.41020  Biso   1.000  O
  O49      1.0000 0.52750  0.15590  0.42050  Biso   1.000  O
  O50      1.0000 0.47250  0.84410  0.57950  Biso   1.000  O
  O51      1.0000 0.68380  0.24830  0.67130  Biso   1.000  O
  O52      1.0000 0.31620  0.75170  0.32870  Biso   1.000  O
  O53      1.0000 0.00000  0.00000  0.00000  Biso   1.000  O
  O54      1.0000 0.00000  0.50000  0.50000  Biso   1.000  O
  O55      1.0000 0.77690  0.01530  0.64120  Biso   1.000  O
  O56      1.0000 0.22310  0.98470  0.35880  Biso   1.000  O
