data_image0
_cell_length_a       9.8269
_cell_length_b       21.536
_cell_length_c       13.757
_cell_angle_alpha    90
_cell_angle_beta     106.645
_cell_angle_gamma    90

_symmetry_space_group_name_H-M    "P 1"
_symmetry_int_tables_number       1

loop_
  _symmetry_equiv_pos_as_xyz
  'x, y, z'

loop_
  _atom_site_label
  _atom_site_occupancy
  _atom_site_fract_x
  _atom_site_fract_y
  _atom_site_fract_z
  _atom_site_thermal_displace_type
  _atom_site_B_iso_or_equiv
  _atom_site_type_symbol
  C1       1.0000 0.42620  0.07750  0.53500  Biso   1.000  C
  C2       1.0000 0.07380  0.57750  0.96500  Biso   1.000  C
  C3       1.0000 0.57380  0.92250  0.46500  Biso   1.000  C
  C4       1.0000 0.92620  0.42250  0.03500  Biso   1.000  C
  H1       1.0000 0.49350  0.11100  0.55220  Biso   1.000  H
  H2       1.0000 0.00650  0.61100  0.94780  Biso   1.000  H
  H3       1.0000 0.50650  0.88900  0.44780  Biso   1.000  H
  H4       1.0000 0.99350  0.38900  0.05220  Biso   1.000  H
  H5       1.0000 0.47570  0.03900  0.53590  Biso   1.000  H
  H6       1.0000 0.02430  0.53900  0.96410  Biso   1.000  H
  H7       1.0000 0.52430  0.96100  0.46410  Biso   1.000  H
  H8       1.0000 0.97570  0.46100  0.03590  Biso   1.000  H
  H9       1.0000 0.37270  0.07580  0.58340  Biso   1.000  H
  H10      1.0000 0.12730  0.57580  0.91660  Biso   1.000  H
  H11      1.0000 0.62730  0.92420  0.41660  Biso   1.000  H
  H12      1.0000 0.87270  0.42420  0.08340  Biso   1.000  H
  C5       1.0000 0.32710  0.08830  0.43080  Biso   1.000  C
  C6       1.0000 0.17290  0.58830  0.06920  Biso   1.000  C
  C7       1.0000 0.67290  0.91170  0.56920  Biso   1.000  C
  C8       1.0000 0.82710  0.41170  0.93080  Biso   1.000  C
  C9       1.0000 0.21680  0.05120  0.37780  Biso   1.000  C
  C10      1.0000 0.28320  0.55120  0.12220  Biso   1.000  C
  C11      1.0000 0.78320  0.94880  0.62220  Biso   1.000  C
  C12      1.0000 0.71680  0.44880  0.87780  Biso   1.000  C
  H13      1.0000 0.18780  0.01350  0.39820  Biso   1.000  H
  H14      1.0000 0.31220  0.51350  0.10180  Biso   1.000  H
  H15      1.0000 0.81220  0.98650  0.60180  Biso   1.000  H
  H16      1.0000 0.68780  0.48650  0.89820  Biso   1.000  H
  C13      1.0000 0.15990  0.08170  0.28930  Biso   1.000  C
  C14      1.0000 0.34010  0.58170  0.21070  Biso   1.000  C
  C15      1.0000 0.84010  0.91830  0.71070  Biso   1.000  C
  C16      1.0000 0.65990  0.41830  0.78930  Biso   1.000  C
  C17      1.0000 0.03180  0.06780  0.20000  Biso   1.000  C
  C18      1.0000 0.46820  0.56780  0.30000  Biso   1.000  C
  C19      1.0000 0.96820  0.93220  0.80000  Biso   1.000  C
  C20      1.0000 0.53180  0.43220  0.70000  Biso   1.000  C
  H17      1.0000 0.02180  0.09960  0.14970  Biso   1.000  H
  H18      1.0000 0.47820  0.59960  0.35030  Biso   1.000  H
  H19      1.0000 0.97820  0.90040  0.85030  Biso   1.000  H
  H20      1.0000 0.52180  0.40040  0.64970  Biso   1.000  H
  H21      1.0000 0.94800  0.06650  0.22260  Biso   1.000  H
  H22      1.0000 0.55200  0.56650  0.27740  Biso   1.000  H
  H23      1.0000 0.05200  0.93350  0.77740  Biso   1.000  H
  H24      1.0000 0.44800  0.43350  0.72260  Biso   1.000  H
  H25      1.0000 0.04450  0.02830  0.17120  Biso   1.000  H
  H26      1.0000 0.45550  0.52830  0.32880  Biso   1.000  H
  H27      1.0000 0.95550  0.97170  0.82880  Biso   1.000  H
  H28      1.0000 0.54450  0.47170  0.67120  Biso   1.000  H
  C21      1.0000 0.20760  0.18640  0.21850  Biso   1.000  C
  C22      1.0000 0.29240  0.68640  0.28150  Biso   1.000  C
  C23      1.0000 0.79240  0.81360  0.78150  Biso   1.000  C
  C24      1.0000 0.70760  0.31360  0.71850  Biso   1.000  C
  H29      1.0000 0.17870  0.16950  0.15030  Biso   1.000  H
  H30      1.0000 0.32130  0.66950  0.34970  Biso   1.000  H
  H31      1.0000 0.82130  0.83050  0.84970  Biso   1.000  H
  H32      1.0000 0.67870  0.33050  0.65030  Biso   1.000  H
  H33      1.0000 0.29640  0.20840  0.22710  Biso   1.000  H
  H34      1.0000 0.20360  0.70840  0.27290  Biso   1.000  H
  H35      1.0000 0.70360  0.79160  0.77290  Biso   1.000  H
  H36      1.0000 0.79640  0.29160  0.72710  Biso   1.000  H
  C25      1.0000 0.09800  0.23100  0.23010  Biso   1.000  C
  C26      1.0000 0.40200  0.73100  0.26990  Biso   1.000  C
  C27      1.0000 0.90200  0.76900  0.76990  Biso   1.000  C
  C28      1.0000 0.59800  0.26900  0.73010  Biso   1.000  C
  C29      1.0000 0.96550  0.24350  0.16910  Biso   1.000  C
  C30      1.0000 0.53450  0.74350  0.33090  Biso   1.000  C
  C31      1.0000 0.03450  0.75650  0.83090  Biso   1.000  C
  C32      1.0000 0.46550  0.25650  0.66910  Biso   1.000  C
  H37      1.0000 0.91980  0.22380  0.10830  Biso   1.000  H
  H38      1.0000 0.58020  0.72380  0.39170  Biso   1.000  H
  H39      1.0000 0.08020  0.77620  0.89170  Biso   1.000  H
  H40      1.0000 0.41980  0.27620  0.60830  Biso   1.000  H
  C33      1.0000 0.91070  0.29160  0.21520  Biso   1.000  C
  C34      1.0000 0.58930  0.79160  0.28480  Biso   1.000  C
  C35      1.0000 0.08930  0.70840  0.78480  Biso   1.000  C
  C36      1.0000 0.41070  0.20840  0.71520  Biso   1.000  C
  H41      1.0000 0.82160  0.30990  0.19060  Biso   1.000  H
  H42      1.0000 0.67840  0.80990  0.30940  Biso   1.000  H
  H43      1.0000 0.17840  0.69010  0.80940  Biso   1.000  H
  H44      1.0000 0.32160  0.19010  0.69060  Biso   1.000  H
  C37      1.0000 0.01420  0.30740  0.30510  Biso   1.000  C
  C38      1.0000 0.48580  0.80740  0.19490  Biso   1.000  C
  C39      1.0000 0.98580  0.69260  0.69490  Biso   1.000  C
  C40      1.0000 0.51420  0.19260  0.80510  Biso   1.000  C
  C41      1.0000 0.00210  0.35390  0.38370  Biso   1.000  C
  C42      1.0000 0.49790  0.85390  0.11630  Biso   1.000  C
  C43      1.0000 0.99790  0.64610  0.61630  Biso   1.000  C
  C44      1.0000 0.50210  0.14610  0.88370  Biso   1.000  C
  C45      1.0000 0.13930  0.39640  0.41030  Biso   1.000  C
  C46      1.0000 0.36070  0.89640  0.08970  Biso   1.000  C
  C47      1.0000 0.86070  0.60360  0.58970  Biso   1.000  C
  C48      1.0000 0.63930  0.10360  0.91030  Biso   1.000  C
  H45      1.0000 0.13230  0.42650  0.46110  Biso   1.000  H
  H46      1.0000 0.36770  0.92650  0.03890  Biso   1.000  H
  H47      1.0000 0.86770  0.57350  0.53890  Biso   1.000  H
  H48      1.0000 0.63230  0.07350  0.96110  Biso   1.000  H
  H49      1.0000 0.22180  0.37060  0.44000  Biso   1.000  H
  H50      1.0000 0.27820  0.87060  0.06000  Biso   1.000  H
  H51      1.0000 0.77820  0.62940  0.56000  Biso   1.000  H
  H52      1.0000 0.72180  0.12940  0.94000  Biso   1.000  H
  C49      1.0000 0.16230  0.43060  0.32040  Biso   1.000  C
  C50      1.0000 0.33770  0.93060  0.17960  Biso   1.000  C
  C51      1.0000 0.83770  0.56940  0.67960  Biso   1.000  C
  C52      1.0000 0.66230  0.06940  0.82040  Biso   1.000  C
  H53      1.0000 0.24540  0.45630  0.34250  Biso   1.000  H
  H54      1.0000 0.25460  0.95630  0.15750  Biso   1.000  H
  H55      1.0000 0.75460  0.54370  0.65750  Biso   1.000  H
  H56      1.0000 0.74540  0.04370  0.84250  Biso   1.000  H
  H57      1.0000 0.08110  0.45620  0.29020  Biso   1.000  H
  H58      1.0000 0.41890  0.95620  0.20980  Biso   1.000  H
  H59      1.0000 0.91890  0.54380  0.70980  Biso   1.000  H
  H60      1.0000 0.58110  0.04380  0.79020  Biso   1.000  H
  H61      1.0000 0.17500  0.40120  0.27130  Biso   1.000  H
  H62      1.0000 0.32500  0.90120  0.22870  Biso   1.000  H
  H63      1.0000 0.82500  0.59880  0.72870  Biso   1.000  H
  H64      1.0000 0.67500  0.09880  0.77130  Biso   1.000  H
  C53      1.0000 0.86470  0.39330  0.34620  Biso   1.000  C
  C54      1.0000 0.63530  0.89330  0.15380  Biso   1.000  C
  C55      1.0000 0.13530  0.60670  0.65380  Biso   1.000  C
  C56      1.0000 0.36470  0.10670  0.84620  Biso   1.000  C
  H65      1.0000 0.86750  0.41620  0.28610  Biso   1.000  H
  H66      1.0000 0.63250  0.91620  0.21390  Biso   1.000  H
  H67      1.0000 0.13250  0.58380  0.71390  Biso   1.000  H
  H68      1.0000 0.36750  0.08380  0.78610  Biso   1.000  H
  H69      1.0000 0.78330  0.36570  0.32730  Biso   1.000  H
  H70      1.0000 0.71670  0.86570  0.17270  Biso   1.000  H
  H71      1.0000 0.21670  0.63430  0.67270  Biso   1.000  H
  H72      1.0000 0.28330  0.13430  0.82730  Biso   1.000  H
  C57      1.0000 0.84590  0.43820  0.42480  Biso   1.000  C
  C58      1.0000 0.65410  0.93820  0.07520  Biso   1.000  C
  C59      1.0000 0.15410  0.56180  0.57520  Biso   1.000  C
  C60      1.0000 0.34590  0.06180  0.92480  Biso   1.000  C
  H73      1.0000 0.76030  0.46160  0.39760  Biso   1.000  H
  H74      1.0000 0.73970  0.96160  0.10240  Biso   1.000  H
  H75      1.0000 0.23970  0.53840  0.60240  Biso   1.000  H
  H76      1.0000 0.26030  0.03840  0.89760  Biso   1.000  H
  H77      1.0000 0.92560  0.46600  0.44330  Biso   1.000  H
  H78      1.0000 0.57440  0.96600  0.05670  Biso   1.000  H
  H79      1.0000 0.07440  0.53400  0.55670  Biso   1.000  H
  H80      1.0000 0.42560  0.03400  0.94330  Biso   1.000  H
  H81      1.0000 0.83980  0.41580  0.48360  Biso   1.000  H
  H82      1.0000 0.66020  0.91580  0.01640  Biso   1.000  H
  H83      1.0000 0.16020  0.58420  0.51640  Biso   1.000  H
  H84      1.0000 0.33980  0.08420  0.98360  Biso   1.000  H
  C61      1.0000 0.00630  0.31910  0.47870  Biso   1.000  C
  C62      1.0000 0.49370  0.81910  0.02130  Biso   1.000  C
  C63      1.0000 0.99370  0.68090  0.52130  Biso   1.000  C
  C64      1.0000 0.50630  0.18090  0.97870  Biso   1.000  C
  C65      1.0000 0.09560  0.31500  0.57360  Biso   1.000  C
  C66      1.0000 0.40440  0.81500  0.92640  Biso   1.000  C
  C67      1.0000 0.90440  0.68500  0.42640  Biso   1.000  C
  C68      1.0000 0.59560  0.18500  0.07360  Biso   1.000  C
  H85      1.0000 0.18000  0.33700  0.59820  Biso   1.000  H
  H86      1.0000 0.32000  0.83700  0.90180  Biso   1.000  H
  H87      1.0000 0.82000  0.66300  0.40180  Biso   1.000  H
  H88      1.0000 0.68000  0.16300  0.09820  Biso   1.000  H
  C69      1.0000 0.04030  0.27210  0.62890  Biso   1.000  C
  C70      1.0000 0.45970  0.77210  0.87110  Biso   1.000  C
  C71      1.0000 0.95970  0.72790  0.37110  Biso   1.000  C
  C72      1.0000 0.54030  0.22790  0.12890  Biso   1.000  C
  H89      1.0000 0.08140  0.26140  0.69650  Biso   1.000  H
  H90      1.0000 0.41860  0.76140  0.80350  Biso   1.000  H
  H91      1.0000 0.91860  0.73860  0.30350  Biso   1.000  H
  H92      1.0000 0.58140  0.23860  0.19650  Biso   1.000  H
  C73      1.0000 0.91700  0.24870  0.56790  Biso   1.000  C
  C74      1.0000 0.58300  0.74870  0.93210  Biso   1.000  C
  C75      1.0000 0.08300  0.75130  0.43210  Biso   1.000  C
  C76      1.0000 0.41700  0.25130  0.06790  Biso   1.000  C
  C77      1.0000 0.81720  0.20120  0.58430  Biso   1.000  C
  C78      1.0000 0.68280  0.70120  0.91570  Biso   1.000  C
  C79      1.0000 0.18280  0.79880  0.41570  Biso   1.000  C
  C80      1.0000 0.31720  0.29880  0.08430  Biso   1.000  C
  H93      1.0000 0.85120  0.18570  0.65330  Biso   1.000  H
  H94      1.0000 0.64880  0.68570  0.84670  Biso   1.000  H
  H95      1.0000 0.14880  0.81430  0.34670  Biso   1.000  H
  H96      1.0000 0.35120  0.31430  0.15330  Biso   1.000  H
  H97      1.0000 0.72500  0.22020  0.57610  Biso   1.000  H
  H98      1.0000 0.77500  0.72020  0.92390  Biso   1.000  H
  H99      1.0000 0.27500  0.77980  0.42390  Biso   1.000  H
  H100     1.0000 0.22500  0.27980  0.07610  Biso   1.000  H
  C81      1.0000 0.90020  0.10720  0.50870  Biso   1.000  C
  C82      1.0000 0.59980  0.60720  0.99130  Biso   1.000  C
  C83      1.0000 0.09980  0.89280  0.49130  Biso   1.000  C
  C84      1.0000 0.40020  0.39280  0.00870  Biso   1.000  C
  C85      1.0000 0.03940  0.10460  0.59290  Biso   1.000  C
  C86      1.0000 0.46060  0.60460  0.90710  Biso   1.000  C
  C87      1.0000 0.96060  0.89540  0.40710  Biso   1.000  C
  C88      1.0000 0.53940  0.39540  0.09290  Biso   1.000  C
  H101     1.0000 0.04240  0.13790  0.63990  Biso   1.000  H
  H102     1.0000 0.45760  0.63790  0.86010  Biso   1.000  H
  H103     1.0000 0.95760  0.86210  0.36010  Biso   1.000  H
  H104     1.0000 0.54240  0.36210  0.13990  Biso   1.000  H
  H105     1.0000 0.11730  0.10870  0.56430  Biso   1.000  H
  H106     1.0000 0.38270  0.60870  0.93570  Biso   1.000  H
  H107     1.0000 0.88270  0.89130  0.43570  Biso   1.000  H
  H108     1.0000 0.61730  0.39130  0.06430  Biso   1.000  H
  H109     1.0000 0.04640  0.06560  0.62780  Biso   1.000  H
  H110     1.0000 0.45360  0.56560  0.87220  Biso   1.000  H
  H111     1.0000 0.95360  0.93440  0.37220  Biso   1.000  H
  H112     1.0000 0.54640  0.43440  0.12780  Biso   1.000  H
  C89      1.0000 0.84090  0.07220  0.42270  Biso   1.000  C
  C90      1.0000 0.65910  0.57220  0.07730  Biso   1.000  C
  C91      1.0000 0.15910  0.92780  0.57730  Biso   1.000  C
  C92      1.0000 0.34090  0.42780  0.92270  Biso   1.000  C
  H113     1.0000 0.88260  0.03870  0.39940  Biso   1.000  H
  H114     1.0000 0.61740  0.53870  0.10060  Biso   1.000  H
  H115     1.0000 0.11740  0.96130  0.60060  Biso   1.000  H
  H116     1.0000 0.38260  0.46130  0.89940  Biso   1.000  H
  C93      1.0000 0.70680  0.09670  0.37790  Biso   1.000  C
  C94      1.0000 0.79320  0.59670  0.12210  Biso   1.000  C
  C95      1.0000 0.29320  0.90330  0.62210  Biso   1.000  C
  C96      1.0000 0.20680  0.40330  0.87790  Biso   1.000  C
  C97      1.0000 0.59930  0.07680  0.28240  Biso   1.000  C
  C98      1.0000 0.90070  0.57680  0.21760  Biso   1.000  C
  C99      1.0000 0.40070  0.92320  0.71760  Biso   1.000  C
  C100     1.0000 0.09930  0.42320  0.78240  Biso   1.000  C
  H117     1.0000 0.51580  0.10210  0.27130  Biso   1.000  H
  H118     1.0000 0.98420  0.60210  0.22870  Biso   1.000  H
  H119     1.0000 0.48420  0.89790  0.72870  Biso   1.000  H
  H120     1.0000 0.01580  0.39790  0.77130  Biso   1.000  H
  H121     1.0000 0.57470  0.03410  0.28810  Biso   1.000  H
  H122     1.0000 0.92530  0.53410  0.21190  Biso   1.000  H
  H123     1.0000 0.42530  0.96590  0.71190  Biso   1.000  H
  H124     1.0000 0.07470  0.46590  0.78810  Biso   1.000  H
  H125     1.0000 0.63820  0.08150  0.22620  Biso   1.000  H
  H126     1.0000 0.86180  0.58150  0.27380  Biso   1.000  H
  H127     1.0000 0.36180  0.91850  0.77380  Biso   1.000  H
  H128     1.0000 0.13820  0.41850  0.72620  Biso   1.000  H
  N1       1.0000 0.33710  0.14000  0.37930  Biso   1.000  N
  N2       1.0000 0.16290  0.64000  0.12070  Biso   1.000  N
  N3       1.0000 0.66290  0.86000  0.62070  Biso   1.000  N
  N4       1.0000 0.83710  0.36000  0.87930  Biso   1.000  N
  N5       1.0000 0.23090  0.13550  0.29090  Biso   1.000  N
  N6       1.0000 0.26910  0.63550  0.20910  Biso   1.000  N
  N7       1.0000 0.76910  0.86450  0.70910  Biso   1.000  N
  N8       1.0000 0.73090  0.36450  0.79090  Biso   1.000  N
  N9       1.0000 0.12100  0.27120  0.31050  Biso   1.000  N
  N10      1.0000 0.37900  0.77120  0.18950  Biso   1.000  N
  N11      1.0000 0.87900  0.72880  0.68950  Biso   1.000  N
  N12      1.0000 0.62100  0.22880  0.81050  Biso   1.000  N
  H129     1.0000 0.19850  0.27220  0.35940  Biso   1.000  H
  H130     1.0000 0.30150  0.77220  0.14060  Biso   1.000  H
  H131     1.0000 0.80150  0.72780  0.64060  Biso   1.000  H
  H132     1.0000 0.69850  0.22780  0.85940  Biso   1.000  H
  N13      1.0000 0.89280  0.27770  0.47620  Biso   1.000  N
  N14      1.0000 0.60720  0.77770  0.02380  Biso   1.000  N
  N15      1.0000 0.10720  0.72230  0.52380  Biso   1.000  N
  N16      1.0000 0.39280  0.22230  0.97620  Biso   1.000  N
  H133     1.0000 0.82000  0.27180  0.42480  Biso   1.000  H
  H134     1.0000 0.68000  0.77180  0.07520  Biso   1.000  H
  H135     1.0000 0.18000  0.72820  0.57520  Biso   1.000  H
  H136     1.0000 0.32000  0.22820  0.92480  Biso   1.000  H
  N17      1.0000 0.80190  0.14930  0.51330  Biso   1.000  N
  N18      1.0000 0.69810  0.64930  0.98670  Biso   1.000  N
  N19      1.0000 0.19810  0.85070  0.48670  Biso   1.000  N
  N20      1.0000 0.30190  0.35070  0.01330  Biso   1.000  N
  N21      1.0000 0.68230  0.14370  0.43210  Biso   1.000  N
  N22      1.0000 0.81770  0.64370  0.06790  Biso   1.000  N
  N23      1.0000 0.31770  0.85630  0.56790  Biso   1.000  N
  N24      1.0000 0.18230  0.35630  0.93210  Biso   1.000  N
  Cu1      1.0000 0.50587  0.19631  0.40557  Biso   1.000  Cu
  Cu2      1.0000 0.99413  0.69631  0.09443  Biso   1.000  Cu
  Cu3      1.0000 0.49413  0.80369  0.59443  Biso   1.000  Cu
  Cu4      1.0000 0.00587  0.30369  0.90557  Biso   1.000  Cu
  I1       1.0000 0.50706  0.31217  0.39607  Biso   1.000  I
  I2       1.0000 0.99294  0.81217  0.10393  Biso   1.000  I
  I3       1.0000 0.49294  0.68783  0.60393  Biso   1.000  I
  I4       1.0000 0.00706  0.18783  0.89607  Biso   1.000  I
