data_image0
_cell_length_a       20.886
_cell_length_b       11.0602
_cell_length_c       21.071
_cell_angle_alpha    90
_cell_angle_beta     109.502
_cell_angle_gamma    90

_symmetry_space_group_name_H-M    "P 1"
_symmetry_int_tables_number       1

loop_
  _symmetry_equiv_pos_as_xyz
  'x, y, z'

loop_
  _atom_site_label
  _atom_site_occupancy
  _atom_site_fract_x
  _atom_site_fract_y
  _atom_site_fract_z
  _atom_site_thermal_displace_type
  _atom_site_B_iso_or_equiv
  _atom_site_type_symbol
  Cu1      1.0000 0.95447  0.47381  0.33335  Biso   1.000  Cu
  Cu2      1.0000 0.04553  0.47381  0.16665  Biso   1.000  Cu
  Cu3      1.0000 0.45447  0.97381  0.33335  Biso   1.000  Cu
  Cu4      1.0000 0.54553  0.97381  0.16665  Biso   1.000  Cu
  Cu5      1.0000 0.04553  0.52619  0.66665  Biso   1.000  Cu
  Cu6      1.0000 0.95447  0.52619  0.83335  Biso   1.000  Cu
  Cu7      1.0000 0.54553  0.02619  0.66665  Biso   1.000  Cu
  Cu8      1.0000 0.45447  0.02619  0.83335  Biso   1.000  Cu
  Cu9      1.0000 0.04825  0.47130  0.45674  Biso   1.000  Cu
  Cu10     1.0000 0.95175  0.47130  0.04326  Biso   1.000  Cu
  Cu11     1.0000 0.54825  0.97130  0.45674  Biso   1.000  Cu
  Cu12     1.0000 0.45175  0.97130  0.04326  Biso   1.000  Cu
  Cu13     1.0000 0.95175  0.52870  0.54326  Biso   1.000  Cu
  Cu14     1.0000 0.04825  0.52870  0.95674  Biso   1.000  Cu
  Cu15     1.0000 0.45175  0.02870  0.54326  Biso   1.000  Cu
  Cu16     1.0000 0.54825  0.02870  0.95674  Biso   1.000  Cu
  Cu17     1.0000 0.08856  0.45483  0.34477  Biso   1.000  Cu
  Cu18     1.0000 0.91144  0.45483  0.15523  Biso   1.000  Cu
  Cu19     1.0000 0.58856  0.95483  0.34477  Biso   1.000  Cu
  Cu20     1.0000 0.41144  0.95483  0.15523  Biso   1.000  Cu
  Cu21     1.0000 0.91144  0.54517  0.65523  Biso   1.000  Cu
  Cu22     1.0000 0.08856  0.54517  0.84477  Biso   1.000  Cu
  Cu23     1.0000 0.41144  0.04517  0.65523  Biso   1.000  Cu
  Cu24     1.0000 0.58856  0.04517  0.84477  Biso   1.000  Cu
  I1       1.0000 0.94075  0.62295  0.42495  Biso   1.000  I
  I2       1.0000 0.05925  0.62295  0.07505  Biso   1.000  I
  I3       1.0000 0.44075  0.12295  0.42495  Biso   1.000  I
  I4       1.0000 0.55925  0.12295  0.07505  Biso   1.000  I
  I5       1.0000 0.05925  0.37705  0.57505  Biso   1.000  I
  I6       1.0000 0.94075  0.37705  0.92495  Biso   1.000  I
  I7       1.0000 0.55925  0.87705  0.57505  Biso   1.000  I
  I8       1.0000 0.44075  0.87705  0.92495  Biso   1.000  I
  I9       1.0000 0.02305  0.27083  0.37506  Biso   1.000  I
  I10      1.0000 0.97695  0.27083  0.12494  Biso   1.000  I
  I11      1.0000 0.52305  0.77083  0.37506  Biso   1.000  I
  I12      1.0000 0.47695  0.77083  0.12494  Biso   1.000  I
  I13      1.0000 0.97695  0.72917  0.62494  Biso   1.000  I
  I14      1.0000 0.02305  0.72917  0.87506  Biso   1.000  I
  I15      1.0000 0.47695  0.22917  0.62494  Biso   1.000  I
  I16      1.0000 0.52305  0.22917  0.87506  Biso   1.000  I
  I17      1.0000 0.00000  0.60207  0.25000  Biso   1.000  I
  I18      1.0000 0.50000  0.10207  0.25000  Biso   1.000  I
  I19      1.0000 0.00000  0.39793  0.75000  Biso   1.000  I
  I20      1.0000 0.50000  0.89793  0.75000  Biso   1.000  I
  I21      1.0000 0.15841  0.57646  0.45180  Biso   1.000  I
  I22      1.0000 0.84159  0.57646  0.04820  Biso   1.000  I
  I23      1.0000 0.65841  0.07646  0.45180  Biso   1.000  I
  I24      1.0000 0.34159  0.07646  0.04820  Biso   1.000  I
  I25      1.0000 0.84159  0.42354  0.54820  Biso   1.000  I
  I26      1.0000 0.15841  0.42354  0.95180  Biso   1.000  I
  I27      1.0000 0.34159  0.92354  0.54820  Biso   1.000  I
  I28      1.0000 0.65841  0.92354  0.95180  Biso   1.000  I
  N1       1.0000 0.79340  0.32170  0.18400  Biso   1.000  N
  N2       1.0000 0.20660  0.32170  0.31600  Biso   1.000  N
  N3       1.0000 0.29340  0.82170  0.18400  Biso   1.000  N
  N4       1.0000 0.70660  0.82170  0.31600  Biso   1.000  N
  N5       1.0000 0.20660  0.67830  0.81600  Biso   1.000  N
  N6       1.0000 0.79340  0.67830  0.68400  Biso   1.000  N
  N7       1.0000 0.70660  0.17830  0.81600  Biso   1.000  N
  N8       1.0000 0.29340  0.17830  0.68400  Biso   1.000  N
  N9       1.0000 0.85130  0.38920  0.20790  Biso   1.000  N
  N10      1.0000 0.14870  0.38920  0.29210  Biso   1.000  N
  N11      1.0000 0.35130  0.88920  0.20790  Biso   1.000  N
  N12      1.0000 0.64870  0.88920  0.29210  Biso   1.000  N
  N13      1.0000 0.14870  0.61080  0.79210  Biso   1.000  N
  N14      1.0000 0.85130  0.61080  0.70790  Biso   1.000  N
  N15      1.0000 0.64870  0.11080  0.79210  Biso   1.000  N
  N16      1.0000 0.35130  0.11080  0.70790  Biso   1.000  N
  N17      1.0000 0.86360  0.40870  0.27130  Biso   1.000  N
  N18      1.0000 0.13640  0.40870  0.22870  Biso   1.000  N
  N19      1.0000 0.36360  0.90870  0.27130  Biso   1.000  N
  N20      1.0000 0.63640  0.90870  0.22870  Biso   1.000  N
  N21      1.0000 0.13640  0.59130  0.72870  Biso   1.000  N
  N22      1.0000 0.86360  0.59130  0.77130  Biso   1.000  N
  N23      1.0000 0.63640  0.09130  0.72870  Biso   1.000  N
  N24      1.0000 0.36360  0.09130  0.77130  Biso   1.000  N
  N25      1.0000 0.56700  0.45200  0.53200  Biso   1.000  N
  N26      1.0000 0.43300  0.45200  0.96800  Biso   1.000  N
  N27      1.0000 0.06700  0.95200  0.53200  Biso   1.000  N
  N28      1.0000 0.93300  0.95200  0.96800  Biso   1.000  N
  N29      1.0000 0.43300  0.54800  0.46800  Biso   1.000  N
  N30      1.0000 0.56700  0.54800  0.03200  Biso   1.000  N
  N31      1.0000 0.93300  0.04800  0.46800  Biso   1.000  N
  N32      1.0000 0.06700  0.04800  0.03200  Biso   1.000  N
  N33      1.0000 0.50000  0.50000  0.50000  Biso   1.000  N
  N34      1.0000 0.50000  0.50000  0.00000  Biso   1.000  N
  N35      1.0000 0.00000  0.00000  0.50000  Biso   1.000  N
  N36      1.0000 0.00000  0.00000  0.00000  Biso   1.000  N
  N37      1.0000 0.52400  0.44100  0.45100  Biso   1.000  N
  N38      1.0000 0.47600  0.44100  0.04900  Biso   1.000  N
  N39      1.0000 0.02400  0.94100  0.45100  Biso   1.000  N
  N40      1.0000 0.97600  0.94100  0.04900  Biso   1.000  N
  N41      1.0000 0.47600  0.55900  0.54900  Biso   1.000  N
  N42      1.0000 0.52400  0.55900  0.95100  Biso   1.000  N
  N43      1.0000 0.97600  0.05900  0.54900  Biso   1.000  N
  N44      1.0000 0.02400  0.05900  0.95100  Biso   1.000  N
  H1       1.0000 0.43640  0.58990  0.54220  Biso   1.000  H
  H2       1.0000 0.56360  0.58990  0.95780  Biso   1.000  H
  H3       1.0000 0.93640  0.08990  0.54220  Biso   1.000  H
  H4       1.0000 0.06360  0.08990  0.95780  Biso   1.000  H
  H5       1.0000 0.56360  0.41010  0.45780  Biso   1.000  H
  H6       1.0000 0.43640  0.41010  0.04220  Biso   1.000  H
  H7       1.0000 0.06360  0.91010  0.45780  Biso   1.000  H
  H8       1.0000 0.93640  0.91010  0.04220  Biso   1.000  H
  C1       1.0000 0.81500  0.35300  0.29200  Biso   1.000  C
  C2       1.0000 0.18500  0.35300  0.20800  Biso   1.000  C
  C3       1.0000 0.31500  0.85300  0.29200  Biso   1.000  C
  C4       1.0000 0.68500  0.85300  0.20800  Biso   1.000  C
  C5       1.0000 0.18500  0.64700  0.70800  Biso   1.000  C
  C6       1.0000 0.81500  0.64700  0.79200  Biso   1.000  C
  C7       1.0000 0.68500  0.14700  0.70800  Biso   1.000  C
  C8       1.0000 0.31500  0.14700  0.79200  Biso   1.000  C
  C9       1.0000 0.77070  0.29140  0.23600  Biso   1.000  C
  C10      1.0000 0.22930  0.29140  0.26400  Biso   1.000  C
  C11      1.0000 0.27070  0.79140  0.23600  Biso   1.000  C
  C12      1.0000 0.72930  0.79140  0.26400  Biso   1.000  C
  C13      1.0000 0.22930  0.70860  0.76400  Biso   1.000  C
  C14      1.0000 0.77070  0.70860  0.73600  Biso   1.000  C
  C15      1.0000 0.72930  0.20860  0.76400  Biso   1.000  C
  C16      1.0000 0.27070  0.20860  0.73600  Biso   1.000  C
  C17      1.0000 0.71640  0.22930  0.23920  Biso   1.000  C
  C18      1.0000 0.28360  0.22930  0.26080  Biso   1.000  C
  C19      1.0000 0.21640  0.72930  0.23920  Biso   1.000  C
  C20      1.0000 0.78360  0.72930  0.26080  Biso   1.000  C
  C21      1.0000 0.28360  0.77070  0.76080  Biso   1.000  C
  C22      1.0000 0.71640  0.77070  0.73920  Biso   1.000  C
  C23      1.0000 0.78360  0.27070  0.76080  Biso   1.000  C
  C24      1.0000 0.21640  0.27070  0.73920  Biso   1.000  C
  H9       1.0000 0.68590  0.19180  0.20170  Biso   1.000  H
  H10      1.0000 0.31410  0.19180  0.29830  Biso   1.000  H
  H11      1.0000 0.18590  0.69180  0.20170  Biso   1.000  H
  H12      1.0000 0.81410  0.69180  0.29830  Biso   1.000  H
  H13      1.0000 0.31410  0.80820  0.79830  Biso   1.000  H
  H14      1.0000 0.68590  0.80820  0.70170  Biso   1.000  H
  H15      1.0000 0.81410  0.30820  0.79830  Biso   1.000  H
  H16      1.0000 0.18590  0.30820  0.70170  Biso   1.000  H
  C25      1.0000 0.70890  0.22480  0.30280  Biso   1.000  C
  C26      1.0000 0.29110  0.22480  0.19720  Biso   1.000  C
  C27      1.0000 0.20890  0.72480  0.30280  Biso   1.000  C
  C28      1.0000 0.79110  0.72480  0.19720  Biso   1.000  C
  C29      1.0000 0.29110  0.77520  0.69720  Biso   1.000  C
  C30      1.0000 0.70890  0.77520  0.80280  Biso   1.000  C
  C31      1.0000 0.79110  0.27520  0.69720  Biso   1.000  C
  C32      1.0000 0.20890  0.27520  0.80280  Biso   1.000  C
  H17      1.0000 0.67220  0.18300  0.30770  Biso   1.000  H
  H18      1.0000 0.32780  0.18300  0.19230  Biso   1.000  H
  H19      1.0000 0.17220  0.68300  0.30770  Biso   1.000  H
  H20      1.0000 0.82780  0.68300  0.19230  Biso   1.000  H
  H21      1.0000 0.32780  0.81700  0.69230  Biso   1.000  H
  H22      1.0000 0.67220  0.81700  0.80770  Biso   1.000  H
  H23      1.0000 0.82780  0.31700  0.69230  Biso   1.000  H
  H24      1.0000 0.17220  0.31700  0.80770  Biso   1.000  H
  C33      1.0000 0.75410  0.28030  0.35820  Biso   1.000  C
  C34      1.0000 0.24590  0.28030  0.14180  Biso   1.000  C
  C35      1.0000 0.25410  0.78030  0.35820  Biso   1.000  C
  C36      1.0000 0.74590  0.78030  0.14180  Biso   1.000  C
  C37      1.0000 0.24590  0.71970  0.64180  Biso   1.000  C
  C38      1.0000 0.75410  0.71970  0.85820  Biso   1.000  C
  C39      1.0000 0.74590  0.21970  0.64180  Biso   1.000  C
  C40      1.0000 0.25410  0.21970  0.85820  Biso   1.000  C
  H25      1.0000 0.74780  0.27270  0.39970  Biso   1.000  H
  H26      1.0000 0.25220  0.27270  0.10030  Biso   1.000  H
  H27      1.0000 0.24780  0.77270  0.39970  Biso   1.000  H
  H28      1.0000 0.75220  0.77270  0.10030  Biso   1.000  H
  H29      1.0000 0.25220  0.72730  0.60030  Biso   1.000  H
  H30      1.0000 0.74780  0.72730  0.89970  Biso   1.000  H
  H31      1.0000 0.75220  0.22730  0.60030  Biso   1.000  H
  H32      1.0000 0.24780  0.22730  0.89970  Biso   1.000  H
  C41      1.0000 0.80670  0.34440  0.35450  Biso   1.000  C
  C42      1.0000 0.19330  0.34440  0.14550  Biso   1.000  C
  C43      1.0000 0.30670  0.84440  0.35450  Biso   1.000  C
  C44      1.0000 0.69330  0.84440  0.14550  Biso   1.000  C
  C45      1.0000 0.19330  0.65560  0.64550  Biso   1.000  C
  C46      1.0000 0.80670  0.65560  0.85450  Biso   1.000  C
  C47      1.0000 0.69330  0.15560  0.64550  Biso   1.000  C
  C48      1.0000 0.30670  0.15560  0.85450  Biso   1.000  C
  H33      1.0000 0.83660  0.38200  0.39220  Biso   1.000  H
  H34      1.0000 0.16340  0.38200  0.10780  Biso   1.000  H
  H35      1.0000 0.33660  0.88200  0.39220  Biso   1.000  H
  H36      1.0000 0.66340  0.88200  0.10780  Biso   1.000  H
  H37      1.0000 0.16340  0.61800  0.60780  Biso   1.000  H
  H38      1.0000 0.83660  0.61800  0.89220  Biso   1.000  H
  H39      1.0000 0.66340  0.11800  0.60780  Biso   1.000  H
  H40      1.0000 0.33660  0.11800  0.89220  Biso   1.000  H
  C49      1.0000 0.76130  0.29040  0.11320  Biso   1.000  C
  C50      1.0000 0.23870  0.29040  0.38680  Biso   1.000  C
  C51      1.0000 0.26130  0.79040  0.11320  Biso   1.000  C
  C52      1.0000 0.73870  0.79040  0.38680  Biso   1.000  C
  C53      1.0000 0.23870  0.70960  0.88680  Biso   1.000  C
  C54      1.0000 0.76130  0.70960  0.61320  Biso   1.000  C
  C55      1.0000 0.73870  0.20960  0.88680  Biso   1.000  C
  C56      1.0000 0.26130  0.20960  0.61320  Biso   1.000  C
  H41      1.0000 0.78090  0.33670  0.08520  Biso   1.000  H
  H42      1.0000 0.21910  0.33670  0.41480  Biso   1.000  H
  H43      1.0000 0.28090  0.83670  0.08520  Biso   1.000  H
  H44      1.0000 0.71910  0.83670  0.41480  Biso   1.000  H
  H45      1.0000 0.21910  0.66330  0.91480  Biso   1.000  H
  H46      1.0000 0.78090  0.66330  0.58520  Biso   1.000  H
  H47      1.0000 0.71910  0.16330  0.91480  Biso   1.000  H
  H48      1.0000 0.28090  0.16330  0.58520  Biso   1.000  H
  H49      1.0000 0.71290  0.30620  0.09880  Biso   1.000  H
  H50      1.0000 0.28710  0.30620  0.40120  Biso   1.000  H
  H51      1.0000 0.21290  0.80620  0.09880  Biso   1.000  H
  H52      1.0000 0.78710  0.80620  0.40120  Biso   1.000  H
  H53      1.0000 0.28710  0.69380  0.90120  Biso   1.000  H
  H54      1.0000 0.71290  0.69380  0.59880  Biso   1.000  H
  H55      1.0000 0.78710  0.19380  0.90120  Biso   1.000  H
  H56      1.0000 0.21290  0.19380  0.59880  Biso   1.000  H
  C57      1.0000 0.77470  0.15800  0.10900  Biso   1.000  C
  C58      1.0000 0.22530  0.15800  0.39100  Biso   1.000  C
  C59      1.0000 0.27470  0.65800  0.10900  Biso   1.000  C
  C60      1.0000 0.72530  0.65800  0.39100  Biso   1.000  C
  C61      1.0000 0.22530  0.84200  0.89100  Biso   1.000  C
  C62      1.0000 0.77470  0.84200  0.60900  Biso   1.000  C
  C63      1.0000 0.72530  0.34200  0.89100  Biso   1.000  C
  C64      1.0000 0.27470  0.34200  0.60900  Biso   1.000  C
  H57      1.0000 0.82200  0.14610  0.11520  Biso   1.000  H
  H58      1.0000 0.17800  0.14610  0.38480  Biso   1.000  H
  H59      1.0000 0.32200  0.64610  0.11520  Biso   1.000  H
  H60      1.0000 0.67800  0.64610  0.38480  Biso   1.000  H
  H61      1.0000 0.17800  0.85390  0.88480  Biso   1.000  H
  H62      1.0000 0.82200  0.85390  0.61520  Biso   1.000  H
  H63      1.0000 0.67800  0.35390  0.88480  Biso   1.000  H
  H64      1.0000 0.32200  0.35390  0.61520  Biso   1.000  H
  H65      1.0000 0.74770  0.12810  0.06560  Biso   1.000  H
  H66      1.0000 0.25230  0.12810  0.43440  Biso   1.000  H
  H67      1.0000 0.24770  0.62810  0.06560  Biso   1.000  H
  H68      1.0000 0.75230  0.62810  0.43440  Biso   1.000  H
  H69      1.0000 0.25230  0.87190  0.93440  Biso   1.000  H
  H70      1.0000 0.74770  0.87190  0.56560  Biso   1.000  H
  H71      1.0000 0.75230  0.37190  0.93440  Biso   1.000  H
  H72      1.0000 0.24770  0.37190  0.56560  Biso   1.000  H
  H73      1.0000 0.76320  0.11570  0.14340  Biso   1.000  H
  H74      1.0000 0.23680  0.11570  0.35660  Biso   1.000  H
  H75      1.0000 0.26320  0.61570  0.14340  Biso   1.000  H
  H76      1.0000 0.73680  0.61570  0.35660  Biso   1.000  H
  H77      1.0000 0.23680  0.88430  0.85660  Biso   1.000  H
  H78      1.0000 0.76320  0.88430  0.64340  Biso   1.000  H
  H79      1.0000 0.73680  0.38430  0.85660  Biso   1.000  H
  H80      1.0000 0.26320  0.38430  0.64340  Biso   1.000  H
  C65      1.0000 0.47100  0.44400  0.39100  Biso   1.000  C
  C66      1.0000 0.52900  0.44400  0.10900  Biso   1.000  C
  C67      1.0000 0.97100  0.94400  0.39100  Biso   1.000  C
  C68      1.0000 0.02900  0.94400  0.10900  Biso   1.000  C
  C69      1.0000 0.52900  0.55600  0.60900  Biso   1.000  C
  C70      1.0000 0.47100  0.55600  0.89100  Biso   1.000  C
  C71      1.0000 0.02900  0.05600  0.60900  Biso   1.000  C
  C72      1.0000 0.97100  0.05600  0.89100  Biso   1.000  C
  C73      1.0000 0.58600  0.49500  0.60400  Biso   1.000  C
  C74      1.0000 0.41400  0.49500  0.89600  Biso   1.000  C
  C75      1.0000 0.08600  0.99500  0.60400  Biso   1.000  C
  C76      1.0000 0.91400  0.99500  0.89600  Biso   1.000  C
  C77      1.0000 0.41400  0.50500  0.39600  Biso   1.000  C
  C78      1.0000 0.58600  0.50500  0.10400  Biso   1.000  C
  C79      1.0000 0.91400  0.00500  0.39600  Biso   1.000  C
  C80      1.0000 0.08600  0.00500  0.10400  Biso   1.000  C
  C81      1.0000 0.63900  0.46300  0.66200  Biso   1.000  C
  C82      1.0000 0.36100  0.46300  0.83800  Biso   1.000  C
  C83      1.0000 0.13900  0.96300  0.66200  Biso   1.000  C
  C84      1.0000 0.86100  0.96300  0.83800  Biso   1.000  C
  C85      1.0000 0.36100  0.53700  0.33800  Biso   1.000  C
  C86      1.0000 0.63900  0.53700  0.16200  Biso   1.000  C
  C87      1.0000 0.86100  0.03700  0.33800  Biso   1.000  C
  C88      1.0000 0.13900  0.03700  0.16200  Biso   1.000  C
  H81      1.0000 0.67630  0.42250  0.65820  Biso   1.000  H
  H82      1.0000 0.32370  0.42250  0.84180  Biso   1.000  H
  H83      1.0000 0.17630  0.92250  0.65820  Biso   1.000  H
  H84      1.0000 0.82370  0.92250  0.84180  Biso   1.000  H
  H85      1.0000 0.32370  0.57750  0.34180  Biso   1.000  H
  H86      1.0000 0.67630  0.57750  0.15820  Biso   1.000  H
  H87      1.0000 0.82370  0.07750  0.34180  Biso   1.000  H
  H88      1.0000 0.17630  0.07750  0.15820  Biso   1.000  H
  C89      1.0000 0.63500  0.49200  0.72400  Biso   1.000  C
  C90      1.0000 0.36500  0.49200  0.77600  Biso   1.000  C
  C91      1.0000 0.13500  0.99200  0.72400  Biso   1.000  C
  C92      1.0000 0.86500  0.99200  0.77600  Biso   1.000  C
  C93      1.0000 0.36500  0.50800  0.27600  Biso   1.000  C
  C94      1.0000 0.63500  0.50800  0.22400  Biso   1.000  C
  C95      1.0000 0.86500  0.00800  0.27600  Biso   1.000  C
  C96      1.0000 0.13500  0.00800  0.22400  Biso   1.000  C
  H89      1.0000 0.67020  0.47040  0.76320  Biso   1.000  H
  H90      1.0000 0.32980  0.47040  0.73680  Biso   1.000  H
  H91      1.0000 0.17020  0.97040  0.76320  Biso   1.000  H
  H92      1.0000 0.82980  0.97040  0.73680  Biso   1.000  H
  H93      1.0000 0.32980  0.52960  0.23680  Biso   1.000  H
  H94      1.0000 0.67020  0.52960  0.26320  Biso   1.000  H
  H95      1.0000 0.82980  0.02960  0.23680  Biso   1.000  H
  H96      1.0000 0.17020  0.02960  0.26320  Biso   1.000  H
  C97      1.0000 0.57900  0.55300  0.72900  Biso   1.000  C
  C98      1.0000 0.42100  0.55300  0.77100  Biso   1.000  C
  C99      1.0000 0.07900  0.05300  0.72900  Biso   1.000  C
  C100     1.0000 0.92100  0.05300  0.77100  Biso   1.000  C
  C101     1.0000 0.42100  0.44700  0.27100  Biso   1.000  C
  C102     1.0000 0.57900  0.44700  0.22900  Biso   1.000  C
  C103     1.0000 0.92100  0.94700  0.27100  Biso   1.000  C
  C104     1.0000 0.07900  0.94700  0.22900  Biso   1.000  C
  H97      1.0000 0.57610  0.57180  0.77150  Biso   1.000  H
  H98      1.0000 0.42390  0.57180  0.72850  Biso   1.000  H
  H99      1.0000 0.07610  0.07180  0.77150  Biso   1.000  H
  H100     1.0000 0.92390  0.07180  0.72850  Biso   1.000  H
  H101     1.0000 0.42390  0.42820  0.22850  Biso   1.000  H
  H102     1.0000 0.57610  0.42820  0.27150  Biso   1.000  H
  H103     1.0000 0.92390  0.92820  0.22850  Biso   1.000  H
  H104     1.0000 0.07610  0.92820  0.27150  Biso   1.000  H
  C105     1.0000 0.47400  0.41600  0.32800  Biso   1.000  C
  C106     1.0000 0.52600  0.41600  0.17200  Biso   1.000  C
  C107     1.0000 0.97400  0.91600  0.32800  Biso   1.000  C
  C108     1.0000 0.02600  0.91600  0.17200  Biso   1.000  C
  C109     1.0000 0.52600  0.58400  0.67200  Biso   1.000  C
  C110     1.0000 0.47400  0.58400  0.82800  Biso   1.000  C
  C111     1.0000 0.02600  0.08400  0.67200  Biso   1.000  C
  C112     1.0000 0.97400  0.08400  0.82800  Biso   1.000  C
  H105     1.0000 0.51200  0.37490  0.32510  Biso   1.000  H
  H106     1.0000 0.48800  0.37490  0.17490  Biso   1.000  H
  H107     1.0000 0.01200  0.87490  0.32510  Biso   1.000  H
  H108     1.0000 0.98800  0.87490  0.17490  Biso   1.000  H
  H109     1.0000 0.48800  0.62510  0.67490  Biso   1.000  H
  H110     1.0000 0.51200  0.62510  0.82510  Biso   1.000  H
  H111     1.0000 0.98800  0.12510  0.67490  Biso   1.000  H
  H112     1.0000 0.01200  0.12510  0.82510  Biso   1.000  H
  C113     1.0000 0.59900  0.36700  0.50000  Biso   1.000  C
  C114     1.0000 0.40100  0.36700  0.00000  Biso   1.000  C
  C115     1.0000 0.09900  0.86700  0.50000  Biso   1.000  C
  C116     1.0000 0.90100  0.86700  0.00000  Biso   1.000  C
  C117     1.0000 0.40100  0.63300  0.50000  Biso   1.000  C
  C118     1.0000 0.59900  0.63300  0.00000  Biso   1.000  C
  C119     1.0000 0.90100  0.13300  0.50000  Biso   1.000  C
  C120     1.0000 0.09900  0.13300  0.00000  Biso   1.000  C
  H113     1.0000 0.63180  0.31790  0.53330  Biso   1.000  H
  H114     1.0000 0.36820  0.31790  0.96670  Biso   1.000  H
  H115     1.0000 0.13180  0.81790  0.53330  Biso   1.000  H
  H116     1.0000 0.86820  0.81790  0.96670  Biso   1.000  H
  H117     1.0000 0.36820  0.68210  0.46670  Biso   1.000  H
  H118     1.0000 0.63180  0.68210  0.03330  Biso   1.000  H
  H119     1.0000 0.86820  0.18210  0.46670  Biso   1.000  H
  H120     1.0000 0.13180  0.18210  0.03330  Biso   1.000  H
  H121     1.0000 0.56520  0.31520  0.46950  Biso   1.000  H
  H122     1.0000 0.43480  0.31520  0.03050  Biso   1.000  H
  H123     1.0000 0.06520  0.81520  0.46950  Biso   1.000  H
  H124     1.0000 0.93480  0.81520  0.03050  Biso   1.000  H
  H125     1.0000 0.43480  0.68480  0.53050  Biso   1.000  H
  H126     1.0000 0.56520  0.68480  0.96950  Biso   1.000  H
  H127     1.0000 0.93480  0.18480  0.53050  Biso   1.000  H
  H128     1.0000 0.06520  0.18480  0.96950  Biso   1.000  H
  C121     1.0000 0.63300  0.44500  0.46200  Biso   1.000  C
  C122     1.0000 0.36700  0.44500  0.03800  Biso   1.000  C
  C123     1.0000 0.13300  0.94500  0.46200  Biso   1.000  C
  C124     1.0000 0.86700  0.94500  0.03800  Biso   1.000  C
  C125     1.0000 0.36700  0.55500  0.53800  Biso   1.000  C
  C126     1.0000 0.63300  0.55500  0.96200  Biso   1.000  C
  C127     1.0000 0.86700  0.05500  0.53800  Biso   1.000  C
  C128     1.0000 0.13300  0.05500  0.96200  Biso   1.000  C
  H129     1.0000 0.61790  0.52740  0.46210  Biso   1.000  H
  H130     1.0000 0.38210  0.52740  0.03790  Biso   1.000  H
  H131     1.0000 0.11790  0.02740  0.46210  Biso   1.000  H
  H132     1.0000 0.88210  0.02740  0.03790  Biso   1.000  H
  H133     1.0000 0.38210  0.47260  0.53790  Biso   1.000  H
  H134     1.0000 0.61790  0.47260  0.96210  Biso   1.000  H
  H135     1.0000 0.88210  0.97260  0.53790  Biso   1.000  H
  H136     1.0000 0.11790  0.97260  0.96210  Biso   1.000  H
  H137     1.0000 0.68120  0.44150  0.48410  Biso   1.000  H
  H138     1.0000 0.31880  0.44150  0.01590  Biso   1.000  H
  H139     1.0000 0.18120  0.94150  0.48410  Biso   1.000  H
  H140     1.0000 0.81880  0.94150  0.01590  Biso   1.000  H
  H141     1.0000 0.31880  0.55850  0.51590  Biso   1.000  H
  H142     1.0000 0.68120  0.55850  0.98410  Biso   1.000  H
  H143     1.0000 0.81880  0.05850  0.51590  Biso   1.000  H
  H144     1.0000 0.18120  0.05850  0.98410  Biso   1.000  H
  H145     1.0000 0.62140  0.41660  0.41700  Biso   1.000  H
  H146     1.0000 0.37860  0.41660  0.08300  Biso   1.000  H
  H147     1.0000 0.12140  0.91660  0.41700  Biso   1.000  H
  H148     1.0000 0.87860  0.91660  0.08300  Biso   1.000  H
  H149     1.0000 0.37860  0.58340  0.58300  Biso   1.000  H
  H150     1.0000 0.62140  0.58340  0.91700  Biso   1.000  H
  H151     1.0000 0.87860  0.08340  0.58300  Biso   1.000  H
  H152     1.0000 0.12140  0.08340  0.91700  Biso   1.000  H
