data_image0
_cell_length_a       7.959
_cell_length_b       19.14
_cell_length_c       10.1109
_cell_angle_alpha    90
_cell_angle_beta     100.984
_cell_angle_gamma    90

_symmetry_space_group_name_H-M    "P 1"
_symmetry_int_tables_number       1

loop_
  _symmetry_equiv_pos_as_xyz
  'x, y, z'

loop_
  _atom_site_label
  _atom_site_occupancy
  _atom_site_fract_x
  _atom_site_fract_y
  _atom_site_fract_z
  _atom_site_thermal_displace_type
  _atom_site_B_iso_or_equiv
  _atom_site_type_symbol
  Br1      1.0000 0.56600  0.25000  0.33226  Biso   1.000  Br
  Br2      1.0000 0.43400  0.75000  0.66774  Biso   1.000  Br
  Br3      1.0000 0.07139  0.25000  0.22971  Biso   1.000  Br
  Br4      1.0000 0.92861  0.75000  0.77029  Biso   1.000  Br
  Br5      1.0000 0.84003  0.08298  0.00267  Biso   1.000  Br
  Br6      1.0000 0.15997  0.58298  0.99733  Biso   1.000  Br
  Br7      1.0000 0.15997  0.91702  0.99733  Biso   1.000  Br
  Br8      1.0000 0.84003  0.41702  0.00267  Biso   1.000  Br
  Br9      1.0000 0.97672  0.25000  0.82604  Biso   1.000  Br
  Br10     1.0000 0.02328  0.75000  0.17396  Biso   1.000  Br
  Br11     1.0000 0.35986  0.11389  0.03146  Biso   1.000  Br
  Br12     1.0000 0.64014  0.61389  0.96854  Biso   1.000  Br
  Br13     1.0000 0.64014  0.88611  0.96854  Biso   1.000  Br
  Br14     1.0000 0.35986  0.38611  0.03146  Biso   1.000  Br
  Cu1      1.0000 0.87939  0.96798  0.89692  Biso   1.000  Cu
  Cu2      1.0000 0.12061  0.46798  0.10308  Biso   1.000  Cu
  Cu3      1.0000 0.12061  0.03202  0.10308  Biso   1.000  Cu
  Cu4      1.0000 0.87939  0.53202  0.89692  Biso   1.000  Cu
  Cu5      1.0000 0.34233  0.33295  0.25447  Biso   1.000  Cu
  Cu6      1.0000 0.65767  0.83295  0.74553  Biso   1.000  Cu
  Cu7      1.0000 0.65767  0.66705  0.74553  Biso   1.000  Cu
  Cu8      1.0000 0.34233  0.16705  0.25447  Biso   1.000  Cu
  Cu9      1.0000 0.08746  0.33046  0.00220  Biso   1.000  Cu
  Cu10     1.0000 0.91254  0.83046  0.99780  Biso   1.000  Cu
  Cu11     1.0000 0.91254  0.66954  0.99780  Biso   1.000  Cu
  Cu12     1.0000 0.08746  0.16954  0.00220  Biso   1.000  Cu
  K1       1.0000 0.67860  0.25000  0.04660  Biso   1.000  K
  K2       1.0000 0.32140  0.75000  0.95340  Biso   1.000  K
  N1       1.0000 0.66600  0.93100  0.50490  Biso   1.000  N
  N2       1.0000 0.33400  0.43100  0.49510  Biso   1.000  N
  N3       1.0000 0.33400  0.06900  0.49510  Biso   1.000  N
  N4       1.0000 0.66600  0.56900  0.50490  Biso   1.000  N
  N5       1.0000 0.70880  0.91740  0.63760  Biso   1.000  N
  N6       1.0000 0.29120  0.41740  0.36240  Biso   1.000  N
  N7       1.0000 0.29120  0.08260  0.36240  Biso   1.000  N
  N8       1.0000 0.70880  0.58260  0.63760  Biso   1.000  N
  N9       1.0000 0.80350  0.96850  0.69670  Biso   1.000  N
  N10      1.0000 0.19650  0.46850  0.30330  Biso   1.000  N
  N11      1.0000 0.19650  0.03150  0.30330  Biso   1.000  N
  N12      1.0000 0.80350  0.53150  0.69670  Biso   1.000  N
  C1       1.0000 0.82000  0.01700  0.60110  Biso   1.000  C
  C2       1.0000 0.18000  0.51700  0.39890  Biso   1.000  C
  C3       1.0000 0.18000  0.98300  0.39890  Biso   1.000  C
  C4       1.0000 0.82000  0.48300  0.60110  Biso   1.000  C
  C5       1.0000 0.73230  0.99320  0.47720  Biso   1.000  C
  C6       1.0000 0.26770  0.49320  0.52280  Biso   1.000  C
  C7       1.0000 0.26770  0.00680  0.52280  Biso   1.000  C
  C8       1.0000 0.73230  0.50680  0.47720  Biso   1.000  C
  C9       1.0000 0.72810  0.03130  0.35850  Biso   1.000  C
  C10      1.0000 0.27190  0.53130  0.64150  Biso   1.000  C
  C11      1.0000 0.27190  0.96870  0.64150  Biso   1.000  C
  C12      1.0000 0.72810  0.46870  0.35850  Biso   1.000  C
  H1       1.0000 0.67000  0.01540  0.27530  Biso   1.000  H
  H2       1.0000 0.33000  0.51540  0.72470  Biso   1.000  H
  H3       1.0000 0.33000  0.98460  0.72470  Biso   1.000  H
  H4       1.0000 0.67000  0.48460  0.27530  Biso   1.000  H
  C13      1.0000 0.81460  0.09310  0.37260  Biso   1.000  C
  C14      1.0000 0.18540  0.59310  0.62740  Biso   1.000  C
  C15      1.0000 0.18540  0.90690  0.62740  Biso   1.000  C
  C16      1.0000 0.81460  0.40690  0.37260  Biso   1.000  C
  H5       1.0000 0.81810  0.11960  0.29600  Biso   1.000  H
  H6       1.0000 0.18190  0.61960  0.70400  Biso   1.000  H
  H7       1.0000 0.18190  0.88040  0.70400  Biso   1.000  H
  H8       1.0000 0.81810  0.38040  0.29600  Biso   1.000  H
  C17      1.0000 0.89690  0.11790  0.49570  Biso   1.000  C
  C18      1.0000 0.10310  0.61790  0.50430  Biso   1.000  C
  C19      1.0000 0.10310  0.88210  0.50430  Biso   1.000  C
  C20      1.0000 0.89690  0.38210  0.49570  Biso   1.000  C
  H9       1.0000 0.94980  0.16130  0.49900  Biso   1.000  H
  H10      1.0000 0.05020  0.66130  0.50100  Biso   1.000  H
  H11      1.0000 0.05020  0.83870  0.50100  Biso   1.000  H
  H12      1.0000 0.94980  0.33870  0.49900  Biso   1.000  H
  C21      1.0000 0.90490  0.08190  0.61340  Biso   1.000  C
  C22      1.0000 0.09510  0.58190  0.38660  Biso   1.000  C
  C23      1.0000 0.09510  0.91810  0.38660  Biso   1.000  C
  C24      1.0000 0.90490  0.41810  0.61340  Biso   1.000  C
  H13      1.0000 0.96230  0.09910  0.69580  Biso   1.000  H
  H14      1.0000 0.03770  0.59910  0.30420  Biso   1.000  H
  H15      1.0000 0.03770  0.90090  0.30420  Biso   1.000  H
  H16      1.0000 0.96230  0.40090  0.69580  Biso   1.000  H
  C25      1.0000 0.55400  0.88410  0.41540  Biso   1.000  C
  C26      1.0000 0.44600  0.38410  0.58460  Biso   1.000  C
  C27      1.0000 0.44600  0.11590  0.58460  Biso   1.000  C
  C28      1.0000 0.55400  0.61590  0.41540  Biso   1.000  C
  H17      1.0000 0.46460  0.86840  0.46140  Biso   1.000  H
  H18      1.0000 0.53540  0.36840  0.53860  Biso   1.000  H
  H19      1.0000 0.53540  0.13160  0.53860  Biso   1.000  H
  H20      1.0000 0.46460  0.63160  0.46140  Biso   1.000  H
  H21      1.0000 0.49940  0.91060  0.33710  Biso   1.000  H
  H22      1.0000 0.50060  0.41060  0.66290  Biso   1.000  H
  H23      1.0000 0.50060  0.08940  0.66290  Biso   1.000  H
  H24      1.0000 0.49940  0.58940  0.33710  Biso   1.000  H
  C29      1.0000 0.36400  0.32090  0.63300  Biso   1.000  C
  C30      1.0000 0.63600  0.82090  0.36700  Biso   1.000  C
  C31      1.0000 0.63600  0.67910  0.36700  Biso   1.000  C
  C32      1.0000 0.36400  0.17910  0.63300  Biso   1.000  C
  H25      1.0000 0.28960  0.33410  0.69460  Biso   1.000  H
  H26      1.0000 0.71040  0.83410  0.30540  Biso   1.000  H
  H27      1.0000 0.71040  0.66590  0.30540  Biso   1.000  H
  H28      1.0000 0.28960  0.16590  0.69460  Biso   1.000  H
  H29      1.0000 0.29640  0.29570  0.55770  Biso   1.000  H
  H30      1.0000 0.70360  0.79570  0.44230  Biso   1.000  H
  H31      1.0000 0.70360  0.70430  0.44230  Biso   1.000  H
  H32      1.0000 0.29640  0.20430  0.55770  Biso   1.000  H
  C33      1.0000 0.51200  0.27650  0.70380  Biso   1.000  C
  C34      1.0000 0.48800  0.77650  0.29620  Biso   1.000  C
  C35      1.0000 0.48800  0.72350  0.29620  Biso   1.000  C
  C36      1.0000 0.51200  0.22350  0.70380  Biso   1.000  C
  H33      1.0000 0.58000  0.30160  0.77880  Biso   1.000  H
  H34      1.0000 0.42000  0.80160  0.22120  Biso   1.000  H
  H35      1.0000 0.42000  0.69840  0.22120  Biso   1.000  H
  H36      1.0000 0.58000  0.19840  0.77880  Biso   1.000  H
  H37      1.0000 0.58570  0.23730  0.64200  Biso   1.000  H
  H38      1.0000 0.41430  0.73730  0.35800  Biso   1.000  H
  H39      1.0000 0.41430  0.76270  0.35800  Biso   1.000  H
  H40      1.0000 0.58570  0.26270  0.64200  Biso   1.000  H
  C37      1.0000 0.57500  0.78700  0.24690  Biso   1.000  C
  C38      1.0000 0.42500  0.28700  0.75310  Biso   1.000  C
  C39      1.0000 0.42500  0.21300  0.75310  Biso   1.000  C
  C40      1.0000 0.57500  0.71300  0.24690  Biso   1.000  C
  H41      1.0000 0.34520  0.26900  0.80600  Biso   1.000  H
  H42      1.0000 0.65480  0.76900  0.19400  Biso   1.000  H
  H43      1.0000 0.65480  0.73100  0.19400  Biso   1.000  H
  H44      1.0000 0.34520  0.23100  0.80600  Biso   1.000  H
  H45      1.0000 0.48680  0.81170  0.18470  Biso   1.000  H
  H46      1.0000 0.51320  0.31170  0.81530  Biso   1.000  H
  H47      1.0000 0.51320  0.18830  0.81530  Biso   1.000  H
  H48      1.0000 0.48680  0.68830  0.18470  Biso   1.000  H
  C41      1.0000 0.67000  0.84130  0.34000  Biso   1.000  C
  C42      1.0000 0.33000  0.34130  0.66000  Biso   1.000  C
  C43      1.0000 0.33000  0.15870  0.66000  Biso   1.000  C
  C44      1.0000 0.67000  0.65870  0.34000  Biso   1.000  C
  H49      1.0000 0.72730  0.87290  0.28810  Biso   1.000  H
  H50      1.0000 0.27270  0.37290  0.71190  Biso   1.000  H
  H51      1.0000 0.27270  0.12710  0.71190  Biso   1.000  H
  H52      1.0000 0.72730  0.62710  0.28810  Biso   1.000  H
  H53      1.0000 0.75740  0.81830  0.40560  Biso   1.000  H
  H54      1.0000 0.24260  0.31830  0.59440  Biso   1.000  H
  H55      1.0000 0.24260  0.18170  0.59440  Biso   1.000  H
  H56      1.0000 0.75740  0.68170  0.40560  Biso   1.000  H
