data_image0
_cell_length_a       9.915
_cell_length_b       11.214
_cell_length_c       13.049
_cell_angle_alpha    77.275
_cell_angle_beta     70.73
_cell_angle_gamma    76.875

_symmetry_space_group_name_H-M    "P 1"
_symmetry_int_tables_number       1

loop_
  _symmetry_equiv_pos_as_xyz
  'x, y, z'

loop_
  _atom_site_label
  _atom_site_occupancy
  _atom_site_fract_x
  _atom_site_fract_y
  _atom_site_fract_z
  _atom_site_thermal_displace_type
  _atom_site_B_iso_or_equiv
  _atom_site_type_symbol
  Cu1      1.0000 0.96478  0.05308  0.10296  Biso   1.000  Cu
  Cu2      1.0000 0.03522  0.94692  0.89704  Biso   1.000  Cu
  I1       1.0000 0.14184  0.83994  0.06597  Biso   1.000  I
  I2       1.0000 0.85816  0.16006  0.93403  Biso   1.000  I
  P1       1.0000 0.78235  0.02670  0.25675  Biso   1.000  P
  P2       1.0000 0.21765  0.97330  0.74325  Biso   1.000  P
  N1       1.0000 0.09630  0.17650  0.09400  Biso   1.000  N
  N2       1.0000 0.90370  0.82350  0.90600  Biso   1.000  N
  N3       1.0000 0.46500  0.44900  0.00820  Biso   1.000  N
  N4       1.0000 0.53500  0.55100  0.99180  Biso   1.000  N
  C1       1.0000 0.97780  0.92250  0.37550  Biso   1.000  C
  C2       1.0000 0.02220  0.07750  0.62450  Biso   1.000  C
  H1       1.0000 0.04300  0.96160  0.31570  Biso   1.000  H
  H2       1.0000 0.95700  0.03840  0.68430  Biso   1.000  H
  C3       1.0000 0.02380  0.85550  0.46310  Biso   1.000  C
  C4       1.0000 0.97620  0.14450  0.53690  Biso   1.000  C
  H3       1.0000 0.11890  0.85060  0.46250  Biso   1.000  H
  H4       1.0000 0.88110  0.14940  0.53750  Biso   1.000  H
  C5       1.0000 0.93000  0.79600  0.55070  Biso   1.000  C
  C6       1.0000 0.07000  0.20400  0.44930  Biso   1.000  C
  H5       1.0000 0.96070  0.75030  0.61010  Biso   1.000  H
  H6       1.0000 0.03930  0.24970  0.38990  Biso   1.000  H
  C7       1.0000 0.79170  0.80410  0.55030  Biso   1.000  C
  C8       1.0000 0.20830  0.19590  0.44970  Biso   1.000  C
  H7       1.0000 0.72800  0.76330  0.61000  Biso   1.000  H
  H8       1.0000 0.27200  0.23670  0.39000  Biso   1.000  H
  C9       1.0000 0.74350  0.87070  0.46430  Biso   1.000  C
  C10      1.0000 0.25650  0.12930  0.53570  Biso   1.000  C
  H9       1.0000 0.64830  0.87440  0.46560  Biso   1.000  H
  H10      1.0000 0.35170  0.12560  0.53440  Biso   1.000  H
  C11      1.0000 0.83700  0.93300  0.37480  Biso   1.000  C
  C12      1.0000 0.16300  0.06700  0.62520  Biso   1.000  C
  C13      1.0000 0.64430  0.94740  0.25080  Biso   1.000  C
  C14      1.0000 0.35570  0.05260  0.74920  Biso   1.000  C
  C15      1.0000 0.69040  0.83090  0.21910  Biso   1.000  C
  C16      1.0000 0.30960  0.16910  0.78090  Biso   1.000  C
  H11      1.0000 0.78850  0.79730  0.20010  Biso   1.000  H
  H12      1.0000 0.21150  0.20270  0.79990  Biso   1.000  H
  C17      1.0000 0.59020  0.76480  0.21560  Biso   1.000  C
  C18      1.0000 0.40980  0.23520  0.78440  Biso   1.000  C
  H13      1.0000 0.62190  0.68640  0.19520  Biso   1.000  H
  H14      1.0000 0.37810  0.31360  0.80480  Biso   1.000  H
  C19      1.0000 0.44740  0.81190  0.24120  Biso   1.000  C
  C20      1.0000 0.55260  0.18810  0.75880  Biso   1.000  C
  H15      1.0000 0.38150  0.76630  0.23850  Biso   1.000  H
  H16      1.0000 0.61850  0.23370  0.76150  Biso   1.000  H
  C21      1.0000 0.40080  0.92640  0.27080  Biso   1.000  C
  C22      1.0000 0.59920  0.07360  0.72920  Biso   1.000  C
  H17      1.0000 0.30270  0.96000  0.28710  Biso   1.000  H
  H18      1.0000 0.69730  0.04000  0.71290  Biso   1.000  H
  C23      1.0000 0.49910  0.99390  0.27720  Biso   1.000  C
  C24      1.0000 0.50090  0.00610  0.72280  Biso   1.000  C
  H19      1.0000 0.46570  0.07130  0.29950  Biso   1.000  H
  H20      1.0000 0.53430  0.92870  0.70050  Biso   1.000  H
  C25      1.0000 0.67890  0.17090  0.30750  Biso   1.000  C
  C26      1.0000 0.32110  0.82910  0.69250  Biso   1.000  C
  C27      1.0000 0.64710  0.18970  0.41590  Biso   1.000  C
  C28      1.0000 0.35290  0.81030  0.58410  Biso   1.000  C
  H21      1.0000 0.67720  0.12600  0.46680  Biso   1.000  H
  H22      1.0000 0.32280  0.87400  0.53320  Biso   1.000  H
  C29      1.0000 0.57250  0.30010  0.44850  Biso   1.000  C
  C30      1.0000 0.42750  0.69990  0.55150  Biso   1.000  C
  H23      1.0000 0.55000  0.30990  0.52150  Biso   1.000  H
  H24      1.0000 0.45000  0.69010  0.47850  Biso   1.000  H
  C31      1.0000 0.53070  0.39630  0.37430  Biso   1.000  C
  C32      1.0000 0.46930  0.60370  0.62570  Biso   1.000  C
  H25      1.0000 0.48320  0.47230  0.39600  Biso   1.000  H
  H26      1.0000 0.51680  0.52770  0.60400  Biso   1.000  H
  C33      1.0000 0.55900  0.37990  0.26840  Biso   1.000  C
  C34      1.0000 0.44100  0.62010  0.73160  Biso   1.000  C
  H27      1.0000 0.52760  0.44410  0.21850  Biso   1.000  H
  H28      1.0000 0.47240  0.55590  0.78150  Biso   1.000  H
  C35      1.0000 0.63380  0.26910  0.23450  Biso   1.000  C
  C36      1.0000 0.36620  0.73090  0.76550  Biso   1.000  C
  H29      1.0000 0.65440  0.26020  0.16140  Biso   1.000  H
  H30      1.0000 0.34560  0.73980  0.83860  Biso   1.000  H
  C37      1.0000 0.03330  0.29710  0.10180  Biso   1.000  C
  C38      1.0000 0.96670  0.70290  0.89820  Biso   1.000  C
  H31      1.0000 0.93310  0.31570  0.11710  Biso   1.000  H
  H32      1.0000 0.06690  0.68430  0.88290  Biso   1.000  H
  C39      1.0000 0.10450  0.39270  0.08930  Biso   1.000  C
  C40      1.0000 0.89550  0.60730  0.91070  Biso   1.000  C
  H33      1.0000 0.05580  0.47320  0.09630  Biso   1.000  H
  H34      1.0000 0.94420  0.52680  0.90370  Biso   1.000  H
  C41      1.0000 0.24790  0.36350  0.06630  Biso   1.000  C
  C42      1.0000 0.75210  0.63650  0.93370  Biso   1.000  C
  C43      1.0000 0.31970  0.24680  0.06060  Biso   1.000  C
  C44      1.0000 0.68030  0.75320  0.93940  Biso   1.000  C
  H35      1.0000 0.41990  0.22890  0.04660  Biso   1.000  H
  H36      1.0000 0.58010  0.77110  0.95340  Biso   1.000  H
  C45      1.0000 0.23620  0.14910  0.07710  Biso   1.000  C
  C46      1.0000 0.76380  0.85090  0.92290  Biso   1.000  C
  H37      1.0000 0.28270  0.06720  0.07550  Biso   1.000  H
  H38      1.0000 0.71730  0.93280  0.92450  Biso   1.000  H
  C47      1.0000 0.33810  0.46510  0.04540  Biso   1.000  C
  C48      1.0000 0.66190  0.53490  0.95460  Biso   1.000  C
  H39      1.0000 0.29060  0.54290  0.06280  Biso   1.000  H
  H40      1.0000 0.70940  0.45710  0.93720  Biso   1.000  H
  C49      1.0000 0.98870  0.60280  0.33950  Biso   1.000  C
  C50      1.0000 0.01130  0.39720  0.66050  Biso   1.000  C
  H41      1.0000 0.99220  0.67090  0.27870  Biso   1.000  H
  H42      1.0000 0.00780  0.32910  0.72130  Biso   1.000  H
  H43      1.0000 0.95280  0.63840  0.40680  Biso   1.000  H
  H44      1.0000 0.04720  0.36160  0.59320  Biso   1.000  H
  Cl1      1.0000 0.16010  0.52640  0.32870  Biso   1.000  Cl
  Cl2      1.0000 0.83990  0.47360  0.67130  Biso   1.000  Cl
  Cl3      1.0000 0.86650  0.51540  0.34010  Biso   1.000  Cl
  Cl4      1.0000 0.13350  0.48460  0.65990  Biso   1.000  Cl
