data_image0
_cell_length_a       13.4414
_cell_length_b       24.6684
_cell_length_c       13.8239
_cell_angle_alpha    90
_cell_angle_beta     96.796
_cell_angle_gamma    90

_symmetry_space_group_name_H-M    "P 1"
_symmetry_int_tables_number       1

loop_
  _symmetry_equiv_pos_as_xyz
  'x, y, z'

loop_
  _atom_site_label
  _atom_site_occupancy
  _atom_site_fract_x
  _atom_site_fract_y
  _atom_site_fract_z
  _atom_site_thermal_displace_type
  _atom_site_B_iso_or_equiv
  _atom_site_type_symbol
  Cu1      1.0000 0.50000  0.21289  0.25000  Biso   1.000  Cu
  Cu2      1.0000 0.00000  0.71289  0.25000  Biso   1.000  Cu
  Cu3      1.0000 0.50000  0.78711  0.75000  Biso   1.000  Cu
  Cu4      1.0000 0.00000  0.28711  0.75000  Biso   1.000  Cu
  P1       1.0000 0.47248  0.16904  0.10456  Biso   1.000  P
  P2       1.0000 0.97248  0.66904  0.10456  Biso   1.000  P
  P3       1.0000 0.52752  0.16904  0.39544  Biso   1.000  P
  P4       1.0000 0.02752  0.66904  0.39544  Biso   1.000  P
  P5       1.0000 0.52752  0.83096  0.89544  Biso   1.000  P
  P6       1.0000 0.02752  0.33096  0.89544  Biso   1.000  P
  P7       1.0000 0.47248  0.83096  0.60456  Biso   1.000  P
  P8       1.0000 0.97248  0.33096  0.60456  Biso   1.000  P
  N1       1.0000 0.60710  0.27160  0.21960  Biso   1.000  N
  N2       1.0000 0.10710  0.77160  0.21960  Biso   1.000  N
  N3       1.0000 0.39290  0.27160  0.28040  Biso   1.000  N
  N4       1.0000 0.89290  0.77160  0.28040  Biso   1.000  N
  N5       1.0000 0.39290  0.72840  0.78040  Biso   1.000  N
  N6       1.0000 0.89290  0.22840  0.78040  Biso   1.000  N
  N7       1.0000 0.60710  0.72840  0.71960  Biso   1.000  N
  N8       1.0000 0.10710  0.22840  0.71960  Biso   1.000  N
  N9       1.0000 0.89380  0.40253  0.21960  Biso   1.000  N
  N10      1.0000 0.39380  0.90253  0.21960  Biso   1.000  N
  N11      1.0000 0.10620  0.40253  0.28040  Biso   1.000  N
  N12      1.0000 0.60620  0.90253  0.28040  Biso   1.000  N
  N13      1.0000 0.10620  0.59747  0.78040  Biso   1.000  N
  N14      1.0000 0.60620  0.09747  0.78040  Biso   1.000  N
  N15      1.0000 0.89380  0.59747  0.71960  Biso   1.000  N
  N16      1.0000 0.39380  0.09747  0.71960  Biso   1.000  N
  C1       1.0000 0.46750  0.21821  0.00460  Biso   1.000  C
  C2       1.0000 0.96750  0.71821  0.00460  Biso   1.000  C
  C3       1.0000 0.53250  0.21821  0.49540  Biso   1.000  C
  C4       1.0000 0.03250  0.71821  0.49540  Biso   1.000  C
  C5       1.0000 0.53250  0.78179  0.99540  Biso   1.000  C
  C6       1.0000 0.03250  0.28179  0.99540  Biso   1.000  C
  C7       1.0000 0.46750  0.78179  0.50460  Biso   1.000  C
  C8       1.0000 0.96750  0.28179  0.50460  Biso   1.000  C
  C9       1.0000 0.39200  0.25707  0.00090  Biso   1.000  C
  C10      1.0000 0.89200  0.75707  0.00090  Biso   1.000  C
  C11      1.0000 0.60800  0.25707  0.49910  Biso   1.000  C
  C12      1.0000 0.10800  0.75707  0.49910  Biso   1.000  C
  C13      1.0000 0.60800  0.74293  0.99910  Biso   1.000  C
  C14      1.0000 0.10800  0.24293  0.99910  Biso   1.000  C
  C15      1.0000 0.39200  0.74293  0.50090  Biso   1.000  C
  C16      1.0000 0.89200  0.24293  0.50090  Biso   1.000  C
  H1       1.0000 0.34260  0.25420  0.04250  Biso   1.000  H
  H2       1.0000 0.84260  0.75420  0.04250  Biso   1.000  H
  H3       1.0000 0.65740  0.25420  0.45750  Biso   1.000  H
  H4       1.0000 0.15740  0.75420  0.45750  Biso   1.000  H
  H5       1.0000 0.65740  0.74580  0.95750  Biso   1.000  H
  H6       1.0000 0.15740  0.24580  0.95750  Biso   1.000  H
  H7       1.0000 0.34260  0.74580  0.54250  Biso   1.000  H
  H8       1.0000 0.84260  0.24580  0.54250  Biso   1.000  H
  C17      1.0000 0.38970  0.29971  0.93650  Biso   1.000  C
  C18      1.0000 0.88970  0.79971  0.93650  Biso   1.000  C
  C19      1.0000 0.61030  0.29971  0.56350  Biso   1.000  C
  C20      1.0000 0.11030  0.79971  0.56350  Biso   1.000  C
  C21      1.0000 0.61030  0.70029  0.06350  Biso   1.000  C
  C22      1.0000 0.11030  0.20029  0.06350  Biso   1.000  C
  C23      1.0000 0.38970  0.70029  0.43650  Biso   1.000  C
  C24      1.0000 0.88970  0.20029  0.43650  Biso   1.000  C
  H9       1.0000 0.33840  0.32520  0.93450  Biso   1.000  H
  H10      1.0000 0.83840  0.82520  0.93450  Biso   1.000  H
  H11      1.0000 0.66160  0.32520  0.56550  Biso   1.000  H
  H12      1.0000 0.16160  0.82520  0.56550  Biso   1.000  H
  H13      1.0000 0.66160  0.67480  0.06550  Biso   1.000  H
  H14      1.0000 0.16160  0.17480  0.06550  Biso   1.000  H
  H15      1.0000 0.33840  0.67480  0.43450  Biso   1.000  H
  H16      1.0000 0.83840  0.17480  0.43450  Biso   1.000  H
  C25      1.0000 0.46180  0.30503  0.87540  Biso   1.000  C
  C26      1.0000 0.96180  0.80503  0.87540  Biso   1.000  C
  C27      1.0000 0.53820  0.30503  0.62460  Biso   1.000  C
  C28      1.0000 0.03820  0.80503  0.62460  Biso   1.000  C
  C29      1.0000 0.53820  0.69497  0.12460  Biso   1.000  C
  C30      1.0000 0.03820  0.19497  0.12460  Biso   1.000  C
  C31      1.0000 0.46180  0.69497  0.37540  Biso   1.000  C
  C32      1.0000 0.96180  0.19497  0.37540  Biso   1.000  C
  H17      1.0000 0.46100  0.33440  0.83320  Biso   1.000  H
  H18      1.0000 0.96100  0.83440  0.83320  Biso   1.000  H
  H19      1.0000 0.53900  0.33440  0.66680  Biso   1.000  H
  H20      1.0000 0.03900  0.83440  0.66680  Biso   1.000  H
  H21      1.0000 0.53900  0.66560  0.16680  Biso   1.000  H
  H22      1.0000 0.03900  0.16560  0.16680  Biso   1.000  H
  H23      1.0000 0.46100  0.66560  0.33320  Biso   1.000  H
  H24      1.0000 0.96100  0.16560  0.33320  Biso   1.000  H
  C33      1.0000 0.53500  0.26670  0.87730  Biso   1.000  C
  C34      1.0000 0.03500  0.76670  0.87730  Biso   1.000  C
  C35      1.0000 0.46500  0.26670  0.62270  Biso   1.000  C
  C36      1.0000 0.96500  0.76670  0.62270  Biso   1.000  C
  C37      1.0000 0.46500  0.73330  0.12270  Biso   1.000  C
  C38      1.0000 0.96500  0.23330  0.12270  Biso   1.000  C
  C39      1.0000 0.53500  0.73330  0.37730  Biso   1.000  C
  C40      1.0000 0.03500  0.23330  0.37730  Biso   1.000  C
  H25      1.0000 0.58400  0.26990  0.83540  Biso   1.000  H
  H26      1.0000 0.08400  0.76990  0.83540  Biso   1.000  H
  H27      1.0000 0.41600  0.26990  0.66460  Biso   1.000  H
  H28      1.0000 0.91600  0.76990  0.66460  Biso   1.000  H
  H29      1.0000 0.41600  0.73010  0.16460  Biso   1.000  H
  H30      1.0000 0.91600  0.23010  0.16460  Biso   1.000  H
  H31      1.0000 0.58400  0.73010  0.33540  Biso   1.000  H
  H32      1.0000 0.08400  0.23010  0.33540  Biso   1.000  H
  C41      1.0000 0.53750  0.22290  0.94080  Biso   1.000  C
  C42      1.0000 0.03750  0.72290  0.94080  Biso   1.000  C
  C43      1.0000 0.46250  0.22290  0.55920  Biso   1.000  C
  C44      1.0000 0.96250  0.72290  0.55920  Biso   1.000  C
  C45      1.0000 0.46250  0.77710  0.05920  Biso   1.000  C
  C46      1.0000 0.96250  0.27710  0.05920  Biso   1.000  C
  C47      1.0000 0.53750  0.77710  0.44080  Biso   1.000  C
  C48      1.0000 0.03750  0.27710  0.44080  Biso   1.000  C
  H33      1.0000 0.58700  0.19670  0.94000  Biso   1.000  H
  H34      1.0000 0.08700  0.69670  0.94000  Biso   1.000  H
  H35      1.0000 0.41300  0.19670  0.56000  Biso   1.000  H
  H36      1.0000 0.91300  0.69670  0.56000  Biso   1.000  H
  H37      1.0000 0.41300  0.80330  0.06000  Biso   1.000  H
  H38      1.0000 0.91300  0.30330  0.06000  Biso   1.000  H
  H39      1.0000 0.58700  0.80330  0.44000  Biso   1.000  H
  H40      1.0000 0.08700  0.30330  0.44000  Biso   1.000  H
  C49      1.0000 0.36220  0.12704  0.07300  Biso   1.000  C
  C50      1.0000 0.86220  0.62704  0.07300  Biso   1.000  C
  C51      1.0000 0.63780  0.12704  0.42700  Biso   1.000  C
  C52      1.0000 0.13780  0.62704  0.42700  Biso   1.000  C
  C53      1.0000 0.63780  0.87296  0.92700  Biso   1.000  C
  C54      1.0000 0.13780  0.37296  0.92700  Biso   1.000  C
  C55      1.0000 0.36220  0.87296  0.57300  Biso   1.000  C
  C56      1.0000 0.86220  0.37296  0.57300  Biso   1.000  C
  C57      1.0000 0.31800  0.10243  0.14790  Biso   1.000  C
  C58      1.0000 0.81800  0.60243  0.14790  Biso   1.000  C
  C59      1.0000 0.68200  0.10243  0.35210  Biso   1.000  C
  C60      1.0000 0.18200  0.60243  0.35210  Biso   1.000  C
  C61      1.0000 0.68200  0.89757  0.85210  Biso   1.000  C
  C62      1.0000 0.18200  0.39757  0.85210  Biso   1.000  C
  C63      1.0000 0.31800  0.89757  0.64790  Biso   1.000  C
  C64      1.0000 0.81800  0.39757  0.64790  Biso   1.000  C
  H41      1.0000 0.34590  0.10720  0.21220  Biso   1.000  H
  H42      1.0000 0.84590  0.60720  0.21220  Biso   1.000  H
  H43      1.0000 0.65410  0.10720  0.28780  Biso   1.000  H
  H44      1.0000 0.15410  0.60720  0.28780  Biso   1.000  H
  H45      1.0000 0.65410  0.89280  0.78780  Biso   1.000  H
  H46      1.0000 0.15410  0.39280  0.78780  Biso   1.000  H
  H47      1.0000 0.34590  0.89280  0.71220  Biso   1.000  H
  H48      1.0000 0.84590  0.39280  0.71220  Biso   1.000  H
  C65      1.0000 0.23260  0.07087  0.12740  Biso   1.000  C
  C66      1.0000 0.73260  0.57087  0.12740  Biso   1.000  C
  C67      1.0000 0.76740  0.07087  0.37260  Biso   1.000  C
  C68      1.0000 0.26740  0.57087  0.37260  Biso   1.000  C
  C69      1.0000 0.76740  0.92913  0.87260  Biso   1.000  C
  C70      1.0000 0.26740  0.42913  0.87260  Biso   1.000  C
  C71      1.0000 0.23260  0.92913  0.62740  Biso   1.000  C
  C72      1.0000 0.73260  0.42913  0.62740  Biso   1.000  C
  H49      1.0000 0.20400  0.05440  0.17790  Biso   1.000  H
  H50      1.0000 0.70400  0.55440  0.17790  Biso   1.000  H
  H51      1.0000 0.79600  0.05440  0.32210  Biso   1.000  H
  H52      1.0000 0.29600  0.55440  0.32210  Biso   1.000  H
  H53      1.0000 0.79600  0.94560  0.82210  Biso   1.000  H
  H54      1.0000 0.29600  0.44560  0.82210  Biso   1.000  H
  H55      1.0000 0.20400  0.94560  0.67790  Biso   1.000  H
  H56      1.0000 0.70400  0.44560  0.67790  Biso   1.000  H
  C73      1.0000 0.19010  0.06384  0.03310  Biso   1.000  C
  C74      1.0000 0.69010  0.56384  0.03310  Biso   1.000  C
  C75      1.0000 0.80990  0.06384  0.46690  Biso   1.000  C
  C76      1.0000 0.30990  0.56384  0.46690  Biso   1.000  C
  C77      1.0000 0.80990  0.93616  0.96690  Biso   1.000  C
  C78      1.0000 0.30990  0.43616  0.96690  Biso   1.000  C
  C79      1.0000 0.19010  0.93616  0.53310  Biso   1.000  C
  C80      1.0000 0.69010  0.43616  0.53310  Biso   1.000  C
  H57      1.0000 0.13260  0.04290  0.02000  Biso   1.000  H
  H58      1.0000 0.63260  0.54290  0.02000  Biso   1.000  H
  H59      1.0000 0.86740  0.04290  0.48000  Biso   1.000  H
  H60      1.0000 0.36740  0.54290  0.48000  Biso   1.000  H
  H61      1.0000 0.86740  0.95710  0.98000  Biso   1.000  H
  H62      1.0000 0.36740  0.45710  0.98000  Biso   1.000  H
  H63      1.0000 0.13260  0.95710  0.52000  Biso   1.000  H
  H64      1.0000 0.63260  0.45710  0.52000  Biso   1.000  H
  C81      1.0000 0.23270  0.08768  0.95800  Biso   1.000  C
  C82      1.0000 0.73270  0.58768  0.95800  Biso   1.000  C
  C83      1.0000 0.76730  0.08768  0.54200  Biso   1.000  C
  C84      1.0000 0.26730  0.58768  0.54200  Biso   1.000  C
  C85      1.0000 0.76730  0.91232  0.04200  Biso   1.000  C
  C86      1.0000 0.26730  0.41232  0.04200  Biso   1.000  C
  C87      1.0000 0.23270  0.91232  0.45800  Biso   1.000  C
  C88      1.0000 0.73270  0.41232  0.45800  Biso   1.000  C
  H65      1.0000 0.20360  0.08310  0.89400  Biso   1.000  H
  H66      1.0000 0.70360  0.58310  0.89400  Biso   1.000  H
  H67      1.0000 0.79640  0.08310  0.60600  Biso   1.000  H
  H68      1.0000 0.29640  0.58310  0.60600  Biso   1.000  H
  H69      1.0000 0.79640  0.91690  0.10600  Biso   1.000  H
  H70      1.0000 0.29640  0.41690  0.10600  Biso   1.000  H
  H71      1.0000 0.20360  0.91690  0.39400  Biso   1.000  H
  H72      1.0000 0.70360  0.41690  0.39400  Biso   1.000  H
  C89      1.0000 0.31940  0.11864  0.97770  Biso   1.000  C
  C90      1.0000 0.81940  0.61864  0.97770  Biso   1.000  C
  C91      1.0000 0.68060  0.11864  0.52230  Biso   1.000  C
  C92      1.0000 0.18060  0.61864  0.52230  Biso   1.000  C
  C93      1.0000 0.68060  0.88136  0.02230  Biso   1.000  C
  C94      1.0000 0.18060  0.38136  0.02230  Biso   1.000  C
  C95      1.0000 0.31940  0.88136  0.47770  Biso   1.000  C
  C96      1.0000 0.81940  0.38136  0.47770  Biso   1.000  C
  H73      1.0000 0.34890  0.13380  0.92650  Biso   1.000  H
  H74      1.0000 0.84890  0.63380  0.92650  Biso   1.000  H
  H75      1.0000 0.65110  0.13380  0.57350  Biso   1.000  H
  H76      1.0000 0.15110  0.63380  0.57350  Biso   1.000  H
  H77      1.0000 0.65110  0.86620  0.07350  Biso   1.000  H
  H78      1.0000 0.15110  0.36620  0.07350  Biso   1.000  H
  H79      1.0000 0.34890  0.86620  0.42650  Biso   1.000  H
  H80      1.0000 0.84890  0.36620  0.42650  Biso   1.000  H
  C97      1.0000 0.57800  0.12497  0.08800  Biso   1.000  C
  C98      1.0000 0.07800  0.62497  0.08800  Biso   1.000  C
  C99      1.0000 0.42200  0.12497  0.41200  Biso   1.000  C
  C100     1.0000 0.92200  0.62497  0.41200  Biso   1.000  C
  C101     1.0000 0.42200  0.87503  0.91200  Biso   1.000  C
  C102     1.0000 0.92200  0.37503  0.91200  Biso   1.000  C
  C103     1.0000 0.57800  0.87503  0.58800  Biso   1.000  C
  C104     1.0000 0.07800  0.37503  0.58800  Biso   1.000  C
  C105     1.0000 0.67470  0.14611  0.09850  Biso   1.000  C
  C106     1.0000 0.17470  0.64611  0.09850  Biso   1.000  C
  C107     1.0000 0.32530  0.14611  0.40150  Biso   1.000  C
  C108     1.0000 0.82530  0.64611  0.40150  Biso   1.000  C
  C109     1.0000 0.32530  0.85389  0.90150  Biso   1.000  C
  C110     1.0000 0.82530  0.35389  0.90150  Biso   1.000  C
  C111     1.0000 0.67470  0.85389  0.59850  Biso   1.000  C
  C112     1.0000 0.17470  0.35389  0.59850  Biso   1.000  C
  H81      1.0000 0.68380  0.18330  0.10630  Biso   1.000  H
  H82      1.0000 0.18380  0.68330  0.10630  Biso   1.000  H
  H83      1.0000 0.31620  0.18330  0.39370  Biso   1.000  H
  H84      1.0000 0.81620  0.68330  0.39370  Biso   1.000  H
  H85      1.0000 0.31620  0.81670  0.89370  Biso   1.000  H
  H86      1.0000 0.81620  0.31670  0.89370  Biso   1.000  H
  H87      1.0000 0.68380  0.81670  0.60630  Biso   1.000  H
  H88      1.0000 0.18380  0.31670  0.60630  Biso   1.000  H
  C113     1.0000 0.75680  0.11320  0.09750  Biso   1.000  C
  C114     1.0000 0.25680  0.61320  0.09750  Biso   1.000  C
  C115     1.0000 0.24320  0.11320  0.40250  Biso   1.000  C
  C116     1.0000 0.74320  0.61320  0.40250  Biso   1.000  C
  C117     1.0000 0.24320  0.88680  0.90250  Biso   1.000  C
  C118     1.0000 0.74320  0.38680  0.90250  Biso   1.000  C
  C119     1.0000 0.75680  0.88680  0.59750  Biso   1.000  C
  C120     1.0000 0.25680  0.38680  0.59750  Biso   1.000  C
  H89      1.0000 0.82090  0.12800  0.10430  Biso   1.000  H
  H90      1.0000 0.32090  0.62800  0.10430  Biso   1.000  H
  H91      1.0000 0.17910  0.12800  0.39570  Biso   1.000  H
  H92      1.0000 0.67910  0.62800  0.39570  Biso   1.000  H
  H93      1.0000 0.17910  0.87200  0.89570  Biso   1.000  H
  H94      1.0000 0.67910  0.37200  0.89570  Biso   1.000  H
  H95      1.0000 0.82090  0.87200  0.60430  Biso   1.000  H
  H96      1.0000 0.32090  0.37200  0.60430  Biso   1.000  H
  C121     1.0000 0.74410  0.05830  0.08640  Biso   1.000  C
  C122     1.0000 0.24410  0.55830  0.08640  Biso   1.000  C
  C123     1.0000 0.25590  0.05830  0.41360  Biso   1.000  C
  C124     1.0000 0.75590  0.55830  0.41360  Biso   1.000  C
  C125     1.0000 0.25590  0.94170  0.91360  Biso   1.000  C
  C126     1.0000 0.75590  0.44170  0.91360  Biso   1.000  C
  C127     1.0000 0.74410  0.94170  0.58640  Biso   1.000  C
  C128     1.0000 0.24410  0.44170  0.58640  Biso   1.000  C
  H97      1.0000 0.79970  0.03580  0.08650  Biso   1.000  H
  H98      1.0000 0.29970  0.53580  0.08650  Biso   1.000  H
  H99      1.0000 0.20030  0.03580  0.41350  Biso   1.000  H
  H100     1.0000 0.70030  0.53580  0.41350  Biso   1.000  H
  H101     1.0000 0.20030  0.96420  0.91350  Biso   1.000  H
  H102     1.0000 0.70030  0.46420  0.91350  Biso   1.000  H
  H103     1.0000 0.79970  0.96420  0.58650  Biso   1.000  H
  H104     1.0000 0.29970  0.46420  0.58650  Biso   1.000  H
  C129     1.0000 0.65080  0.03670  0.07540  Biso   1.000  C
  C130     1.0000 0.15080  0.53670  0.07540  Biso   1.000  C
  C131     1.0000 0.34920  0.03670  0.42460  Biso   1.000  C
  C132     1.0000 0.84920  0.53670  0.42460  Biso   1.000  C
  C133     1.0000 0.34920  0.96330  0.92460  Biso   1.000  C
  C134     1.0000 0.84920  0.46330  0.92460  Biso   1.000  C
  C135     1.0000 0.65080  0.96330  0.57540  Biso   1.000  C
  C136     1.0000 0.15080  0.46330  0.57540  Biso   1.000  C
  H105     1.0000 0.64260  0.99950  0.06750  Biso   1.000  H
  H106     1.0000 0.14260  0.49950  0.06750  Biso   1.000  H
  H107     1.0000 0.35740  0.99950  0.43250  Biso   1.000  H
  H108     1.0000 0.85740  0.49950  0.43250  Biso   1.000  H
  H109     1.0000 0.35740  0.00050  0.93250  Biso   1.000  H
  H110     1.0000 0.85740  0.50050  0.93250  Biso   1.000  H
  H111     1.0000 0.64260  0.00050  0.56750  Biso   1.000  H
  H112     1.0000 0.14260  0.50050  0.56750  Biso   1.000  H
  C137     1.0000 0.56780  0.06936  0.07580  Biso   1.000  C
  C138     1.0000 0.06780  0.56936  0.07580  Biso   1.000  C
  C139     1.0000 0.43220  0.06936  0.42420  Biso   1.000  C
  C140     1.0000 0.93220  0.56936  0.42420  Biso   1.000  C
  C141     1.0000 0.43220  0.93064  0.92420  Biso   1.000  C
  C142     1.0000 0.93220  0.43064  0.92420  Biso   1.000  C
  C143     1.0000 0.56780  0.93064  0.57580  Biso   1.000  C
  C144     1.0000 0.06780  0.43064  0.57580  Biso   1.000  C
  H113     1.0000 0.50430  0.05390  0.06780  Biso   1.000  H
  H114     1.0000 0.00430  0.55390  0.06780  Biso   1.000  H
  H115     1.0000 0.49570  0.05390  0.43220  Biso   1.000  H
  H116     1.0000 0.99570  0.55390  0.43220  Biso   1.000  H
  H117     1.0000 0.49570  0.94610  0.93220  Biso   1.000  H
  H118     1.0000 0.99570  0.44610  0.93220  Biso   1.000  H
  H119     1.0000 0.50430  0.94610  0.56780  Biso   1.000  H
  H120     1.0000 0.00430  0.44610  0.56780  Biso   1.000  H
  C145     1.0000 0.70490  0.26941  0.25360  Biso   1.000  C
  C146     1.0000 0.20490  0.76941  0.25360  Biso   1.000  C
  C147     1.0000 0.29510  0.26941  0.24640  Biso   1.000  C
  C148     1.0000 0.79510  0.76941  0.24640  Biso   1.000  C
  C149     1.0000 0.29510  0.73059  0.74640  Biso   1.000  C
  C150     1.0000 0.79510  0.23059  0.74640  Biso   1.000  C
  C151     1.0000 0.70490  0.73059  0.75360  Biso   1.000  C
  C152     1.0000 0.20490  0.23059  0.75360  Biso   1.000  C
  H121     1.0000 0.72870  0.23830  0.28660  Biso   1.000  H
  H122     1.0000 0.22870  0.73830  0.28660  Biso   1.000  H
  H123     1.0000 0.27130  0.23830  0.21340  Biso   1.000  H
  H124     1.0000 0.77130  0.73830  0.21340  Biso   1.000  H
  H125     1.0000 0.27130  0.76170  0.71340  Biso   1.000  H
  H126     1.0000 0.77130  0.26170  0.71340  Biso   1.000  H
  H127     1.0000 0.72870  0.76170  0.78660  Biso   1.000  H
  H128     1.0000 0.22870  0.26170  0.78660  Biso   1.000  H
  C153     1.0000 0.77170  0.31043  0.24250  Biso   1.000  C
  C154     1.0000 0.27170  0.81043  0.24250  Biso   1.000  C
  C155     1.0000 0.22830  0.31043  0.25750  Biso   1.000  C
  C156     1.0000 0.72830  0.81043  0.25750  Biso   1.000  C
  C157     1.0000 0.22830  0.68957  0.75750  Biso   1.000  C
  C158     1.0000 0.72830  0.18957  0.75750  Biso   1.000  C
  C159     1.0000 0.77170  0.68957  0.74250  Biso   1.000  C
  C160     1.0000 0.27170  0.18957  0.74250  Biso   1.000  C
  H129     1.0000 0.83890  0.30670  0.26670  Biso   1.000  H
  H130     1.0000 0.33890  0.80670  0.26670  Biso   1.000  H
  H131     1.0000 0.16110  0.30670  0.23330  Biso   1.000  H
  H132     1.0000 0.66110  0.80670  0.23330  Biso   1.000  H
  H133     1.0000 0.16110  0.69330  0.73330  Biso   1.000  H
  H134     1.0000 0.66110  0.19330  0.73330  Biso   1.000  H
  H135     1.0000 0.83890  0.69330  0.76670  Biso   1.000  H
  H136     1.0000 0.33890  0.19330  0.76670  Biso   1.000  H
  C161     1.0000 0.73750  0.35756  0.19480  Biso   1.000  C
  C162     1.0000 0.23750  0.85756  0.19480  Biso   1.000  C
  C163     1.0000 0.26250  0.35756  0.30520  Biso   1.000  C
  C164     1.0000 0.76250  0.85756  0.30520  Biso   1.000  C
  C165     1.0000 0.26250  0.64244  0.80520  Biso   1.000  C
  C166     1.0000 0.76250  0.14244  0.80520  Biso   1.000  C
  C167     1.0000 0.73750  0.64244  0.69480  Biso   1.000  C
  C168     1.0000 0.23750  0.14244  0.69480  Biso   1.000  C
  C169     1.0000 0.63760  0.36009  0.15750  Biso   1.000  C
  C170     1.0000 0.13760  0.86009  0.15750  Biso   1.000  C
  C171     1.0000 0.36240  0.36009  0.34250  Biso   1.000  C
  C172     1.0000 0.86240  0.86009  0.34250  Biso   1.000  C
  C173     1.0000 0.36240  0.63991  0.84250  Biso   1.000  C
  C174     1.0000 0.86240  0.13991  0.84250  Biso   1.000  C
  C175     1.0000 0.63760  0.63991  0.65750  Biso   1.000  C
  C176     1.0000 0.13760  0.13991  0.65750  Biso   1.000  C
  H137     1.0000 0.61230  0.39070  0.12370  Biso   1.000  H
  H138     1.0000 0.11230  0.89070  0.12370  Biso   1.000  H
  H139     1.0000 0.38770  0.39070  0.37630  Biso   1.000  H
  H140     1.0000 0.88770  0.89070  0.37630  Biso   1.000  H
  H141     1.0000 0.38770  0.60930  0.87630  Biso   1.000  H
  H142     1.0000 0.88770  0.10930  0.87630  Biso   1.000  H
  H143     1.0000 0.61230  0.60930  0.62370  Biso   1.000  H
  H144     1.0000 0.11230  0.10930  0.62370  Biso   1.000  H
  C177     1.0000 0.57590  0.31692  0.17090  Biso   1.000  C
  C178     1.0000 0.07590  0.81692  0.17090  Biso   1.000  C
  C179     1.0000 0.42410  0.31692  0.32910  Biso   1.000  C
  C180     1.0000 0.92410  0.81692  0.32910  Biso   1.000  C
  C181     1.0000 0.42410  0.68308  0.82910  Biso   1.000  C
  C182     1.0000 0.92410  0.18308  0.82910  Biso   1.000  C
  C183     1.0000 0.57590  0.68308  0.67090  Biso   1.000  C
  C184     1.0000 0.07590  0.18308  0.67090  Biso   1.000  C
  H145     1.0000 0.50900  0.31920  0.14490  Biso   1.000  H
  H146     1.0000 0.00900  0.81920  0.14490  Biso   1.000  H
  H147     1.0000 0.49100  0.31920  0.35510  Biso   1.000  H
  H148     1.0000 0.99100  0.81920  0.35510  Biso   1.000  H
  H149     1.0000 0.49100  0.68080  0.85510  Biso   1.000  H
  H150     1.0000 0.99100  0.18080  0.85510  Biso   1.000  H
  H151     1.0000 0.50900  0.68080  0.64490  Biso   1.000  H
  H152     1.0000 0.00900  0.18080  0.64490  Biso   1.000  H
  C185     1.0000 0.80560  0.40395  0.18630  Biso   1.000  C
  C186     1.0000 0.30560  0.90395  0.18630  Biso   1.000  C
  C187     1.0000 0.19440  0.40395  0.31370  Biso   1.000  C
  C188     1.0000 0.69440  0.90395  0.31370  Biso   1.000  C
  C189     1.0000 0.19440  0.59605  0.81370  Biso   1.000  C
  C190     1.0000 0.69440  0.09605  0.81370  Biso   1.000  C
  C191     1.0000 0.80560  0.59605  0.68630  Biso   1.000  C
  C192     1.0000 0.30560  0.09605  0.68630  Biso   1.000  C
  H153     1.0000 0.78040  0.43520  0.15470  Biso   1.000  H
  H154     1.0000 0.28040  0.93520  0.15470  Biso   1.000  H
  H155     1.0000 0.21960  0.43520  0.34530  Biso   1.000  H
  H156     1.0000 0.71960  0.93520  0.34530  Biso   1.000  H
  H157     1.0000 0.21960  0.56480  0.84530  Biso   1.000  H
  H158     1.0000 0.71960  0.06480  0.84530  Biso   1.000  H
  H159     1.0000 0.78040  0.56480  0.65470  Biso   1.000  H
  H160     1.0000 0.28040  0.06480  0.65470  Biso   1.000  H
  C193     1.0000 0.95720  0.44962  0.20950  Biso   1.000  C
  C194     1.0000 0.45720  0.94962  0.20950  Biso   1.000  C
  C195     1.0000 0.04280  0.44962  0.29050  Biso   1.000  C
  C196     1.0000 0.54280  0.94962  0.29050  Biso   1.000  C
  C197     1.0000 0.04280  0.55038  0.79050  Biso   1.000  C
  C198     1.0000 0.54280  0.05038  0.79050  Biso   1.000  C
  C199     1.0000 0.95720  0.55038  0.70950  Biso   1.000  C
  C200     1.0000 0.45720  0.05038  0.70950  Biso   1.000  C
  H161     1.0000 0.91820  0.48250  0.21230  Biso   1.000  H
  H162     1.0000 0.41820  0.98250  0.21230  Biso   1.000  H
  H163     1.0000 0.08180  0.48250  0.28770  Biso   1.000  H
  H164     1.0000 0.58180  0.98250  0.28770  Biso   1.000  H
  H165     1.0000 0.08180  0.51750  0.78770  Biso   1.000  H
  H166     1.0000 0.58180  0.01750  0.78770  Biso   1.000  H
  H167     1.0000 0.91820  0.51750  0.71230  Biso   1.000  H
  H168     1.0000 0.41820  0.01750  0.71230  Biso   1.000  H
  H169     1.0000 0.98310  0.44850  0.14700  Biso   1.000  H
  H170     1.0000 0.48310  0.94850  0.14700  Biso   1.000  H
  H171     1.0000 0.01690  0.44850  0.35300  Biso   1.000  H
  H172     1.0000 0.51690  0.94850  0.35300  Biso   1.000  H
  H173     1.0000 0.01690  0.55150  0.85300  Biso   1.000  H
  H174     1.0000 0.51690  0.05150  0.85300  Biso   1.000  H
  H175     1.0000 0.98310  0.55150  0.64700  Biso   1.000  H
  H176     1.0000 0.48310  0.05150  0.64700  Biso   1.000  H
  B1       1.0000 0.49670  0.50020  0.24120  Biso   1.000  B
  B2       1.0000 0.99670  0.00020  0.24120  Biso   1.000  B
  B3       1.0000 0.50330  0.50020  0.25880  Biso   1.000  B
  B4       1.0000 0.00330  0.00020  0.25880  Biso   1.000  B
  B5       1.0000 0.50330  0.49980  0.75880  Biso   1.000  B
  B6       1.0000 0.00330  0.99980  0.75880  Biso   1.000  B
  B7       1.0000 0.49670  0.49980  0.74120  Biso   1.000  B
  B8       1.0000 0.99670  0.99980  0.74120  Biso   1.000  B
  F1       1.0000 0.40620  0.48320  0.25810  Biso   1.000  F
  F2       1.0000 0.90620  0.98320  0.25810  Biso   1.000  F
  F3       1.0000 0.59380  0.48320  0.24190  Biso   1.000  F
  F4       1.0000 0.09380  0.98320  0.24190  Biso   1.000  F
  F5       1.0000 0.59380  0.51680  0.74190  Biso   1.000  F
  F6       1.0000 0.09380  0.01680  0.74190  Biso   1.000  F
  F7       1.0000 0.40620  0.51680  0.75810  Biso   1.000  F
  F8       1.0000 0.90620  0.01680  0.75810  Biso   1.000  F
  F9       1.0000 0.50700  0.49220  0.14740  Biso   1.000  F
  F10      1.0000 0.00700  0.99220  0.14740  Biso   1.000  F
  F11      1.0000 0.49300  0.49220  0.35260  Biso   1.000  F
  F12      1.0000 0.99300  0.99220  0.35260  Biso   1.000  F
  F13      1.0000 0.49300  0.50780  0.85260  Biso   1.000  F
  F14      1.0000 0.99300  0.00780  0.85260  Biso   1.000  F
  F15      1.0000 0.50700  0.50780  0.64740  Biso   1.000  F
  F16      1.0000 0.00700  0.00780  0.64740  Biso   1.000  F
  F17      1.0000 0.50670  0.55270  0.26290  Biso   1.000  F
  F18      1.0000 0.00670  0.05270  0.26290  Biso   1.000  F
  F19      1.0000 0.49330  0.55270  0.23710  Biso   1.000  F
  F20      1.0000 0.99330  0.05270  0.23710  Biso   1.000  F
  F21      1.0000 0.49330  0.44730  0.73710  Biso   1.000  F
  F22      1.0000 0.99330  0.94730  0.73710  Biso   1.000  F
  F23      1.0000 0.50670  0.44730  0.76290  Biso   1.000  F
  F24      1.0000 0.00670  0.94730  0.76290  Biso   1.000  F
  F25      1.0000 0.56710  0.47200  0.29600  Biso   1.000  F
  F26      1.0000 0.06710  0.97200  0.29600  Biso   1.000  F
  F27      1.0000 0.43290  0.47200  0.20400  Biso   1.000  F
  F28      1.0000 0.93290  0.97200  0.20400  Biso   1.000  F
  F29      1.0000 0.43290  0.52800  0.70400  Biso   1.000  F
  F30      1.0000 0.93290  0.02800  0.70400  Biso   1.000  F
  F31      1.0000 0.56710  0.52800  0.79600  Biso   1.000  F
  F32      1.0000 0.06710  0.02800  0.79600  Biso   1.000  F
