data_image0
_cell_length_a       8.7916
_cell_length_b       9.8806
_cell_length_c       10.766
_cell_angle_alpha    72.875
_cell_angle_beta     89.817
_cell_angle_gamma    64.172

_symmetry_space_group_name_H-M    "P 1"
_symmetry_int_tables_number       1

loop_
  _symmetry_equiv_pos_as_xyz
  'x, y, z'

loop_
  _atom_site_label
  _atom_site_occupancy
  _atom_site_fract_x
  _atom_site_fract_y
  _atom_site_fract_z
  _atom_site_thermal_displace_type
  _atom_site_B_iso_or_equiv
  _atom_site_type_symbol
  Cu1      1.0000 0.23806  0.89156  0.24465  Biso   1.000  Cu
  Cu2      1.0000 0.76194  0.10844  0.75535  Biso   1.000  Cu
  N1       1.0000 0.16090  0.79420  0.13882  Biso   1.000  N
  N2       1.0000 0.83910  0.20580  0.86118  Biso   1.000  N
  C1       1.0000 0.13170  0.72840  0.07910  Biso   1.000  C
  C2       1.0000 0.86830  0.27160  0.92090  Biso   1.000  C
  C3       1.0000 0.09760  0.64090  0.00390  Biso   1.000  C
  C4       1.0000 0.90240  0.35910  0.99610  Biso   1.000  C
  H1       1.0000 0.00300  0.71200  0.93100  Biso   1.000  H
  H2       1.0000 0.99700  0.28800  0.06900  Biso   1.000  H
  H3       1.0000 0.48100  0.26200  0.11300  Biso   1.000  H
  H4       1.0000 0.51900  0.73800  0.88700  Biso   1.000  H
  H5       1.0000 0.07000  0.56300  0.06300  Biso   1.000  H
  H6       1.0000 0.93000  0.43700  0.93700  Biso   1.000  H
  N3       1.0000 0.34440  0.02560  0.14134  Biso   1.000  N
  N4       1.0000 0.65560  0.97440  0.85866  Biso   1.000  N
  C5       1.0000 0.41340  0.10070  0.10700  Biso   1.000  C
  C6       1.0000 0.58660  0.89930  0.89300  Biso   1.000  C
  C7       1.0000 0.50310  0.19660  0.06440  Biso   1.000  C
  C8       1.0000 0.49690  0.80340  0.93560  Biso   1.000  C
  H7       1.0000 0.61300  0.13200  0.07400  Biso   1.000  H
  H8       1.0000 0.38700  0.86800  0.92600  Biso   1.000  H
  H9       1.0000 0.19300  0.59700  0.96600  Biso   1.000  H
  H10      1.0000 0.80700  0.40300  0.03400  Biso   1.000  H
  H11      1.0000 0.45800  0.26700  0.97600  Biso   1.000  H
  H12      1.0000 0.54200  0.73300  0.02400  Biso   1.000  H
  C9       1.0000 0.86770  0.32960  0.45670  Biso   1.000  C
  C10      1.0000 0.13230  0.67040  0.54330  Biso   1.000  C
  C11      1.0000 0.98550  0.30420  0.55910  Biso   1.000  C
  C12      1.0000 0.01450  0.69580  0.44090  Biso   1.000  C
  C13      1.0000 0.82460  0.43830  0.52690  Biso   1.000  C
  C14      1.0000 0.17540  0.56170  0.47310  Biso   1.000  C
  C15      1.0000 0.82500  0.28460  0.35930  Biso   1.000  C
  C16      1.0000 0.17500  0.71540  0.64070  Biso   1.000  C
  C17      1.0000 0.94580  0.14640  0.33360  Biso   1.000  C
  C18      1.0000 0.05420  0.85360  0.66640  Biso   1.000  C
  N5       1.0000 0.04480  0.03810  0.31049  Biso   1.000  N
  N6       1.0000 0.95520  0.96190  0.68951  Biso   1.000  N
  C19      1.0000 0.66390  0.37890  0.27630  Biso   1.000  C
  C20      1.0000 0.33610  0.62110  0.72370  Biso   1.000  C
  N7       1.0000 0.53640  0.45600  0.20740  Biso   1.000  N
  N8       1.0000 0.46360  0.54400  0.79260  Biso   1.000  N
  C21      1.0000 0.14490  0.21690  0.63330  Biso   1.000  C
  C22      1.0000 0.85510  0.78310  0.36670  Biso   1.000  C
  C23      1.0000 0.26520  0.07160  0.61640  Biso   1.000  C
  C24      1.0000 0.73480  0.92840  0.38360  Biso   1.000  C
  N9       1.0000 0.36110  0.95400  0.60340  Biso   1.000  N
  N10      1.0000 0.63890  0.04600  0.39660  Biso   1.000  N
  C25      1.0000 0.18710  0.26870  0.73250  Biso   1.000  C
  C26      1.0000 0.81290  0.73130  0.26750  Biso   1.000  C
  N11      1.0000 0.21700  0.31640  0.80960  Biso   1.000  N
  N12      1.0000 0.78300  0.68360  0.19040  Biso   1.000  N
  C27      1.0000 0.71060  0.57710  0.54480  Biso   1.000  C
  C28      1.0000 0.28940  0.42290  0.45520  Biso   1.000  C
  C29      1.0000 0.75410  0.62970  0.64340  Biso   1.000  C
  C30      1.0000 0.24590  0.37030  0.35660  Biso   1.000  C
  N13      1.0000 0.79970  0.66720  0.72170  Biso   1.000  N
  N14      1.0000 0.20030  0.33280  0.27830  Biso   1.000  N
  C31      1.0000 0.54940  0.66800  0.46300  Biso   1.000  C
  C32      1.0000 0.45060  0.33200  0.53700  Biso   1.000  C
  N15      1.0000 0.42400  0.73690  0.39209  Biso   1.000  N
  N16      1.0000 0.57600  0.26310  0.60791  Biso   1.000  N
