data_image0
_cell_length_a       24.7379
_cell_length_b       3.9383
_cell_length_c       32.063
_cell_angle_alpha    90
_cell_angle_beta     106.344
_cell_angle_gamma    90

_symmetry_space_group_name_H-M    "P 1"
_symmetry_int_tables_number       1

loop_
  _symmetry_equiv_pos_as_xyz
  'x, y, z'

loop_
  _atom_site_label
  _atom_site_occupancy
  _atom_site_fract_x
  _atom_site_fract_y
  _atom_site_fract_z
  _atom_site_thermal_displace_type
  _atom_site_B_iso_or_equiv
  _atom_site_type_symbol
  C1       1.0000 0.58930  0.25700  0.97850  Biso   1.000  C
  C2       1.0000 0.41070  0.75700  0.52150  Biso   1.000  C
  C3       1.0000 0.41070  0.74300  0.02150  Biso   1.000  C
  C4       1.0000 0.58930  0.24300  0.47850  Biso   1.000  C
  C5       1.0000 0.64280  0.20600  0.98070  Biso   1.000  C
  C6       1.0000 0.35720  0.70600  0.51930  Biso   1.000  C
  C7       1.0000 0.35720  0.79400  0.01930  Biso   1.000  C
  C8       1.0000 0.64280  0.29400  0.48070  Biso   1.000  C
  H1       1.0000 0.65540  0.24270  0.95630  Biso   1.000  H
  H2       1.0000 0.34460  0.74270  0.54370  Biso   1.000  H
  H3       1.0000 0.34460  0.75730  0.04370  Biso   1.000  H
  H4       1.0000 0.65540  0.25730  0.45630  Biso   1.000  H
  C9       1.0000 0.68000  0.09900  0.01920  Biso   1.000  C
  C10      1.0000 0.32000  0.59900  0.48080  Biso   1.000  C
  C11      1.0000 0.32000  0.90100  0.98080  Biso   1.000  C
  C12      1.0000 0.68000  0.40100  0.51920  Biso   1.000  C
  H5       1.0000 0.71730  0.05570  0.02020  Biso   1.000  H
  H6       1.0000 0.28270  0.55570  0.47980  Biso   1.000  H
  H7       1.0000 0.28270  0.94430  0.97980  Biso   1.000  H
  H8       1.0000 0.71730  0.44430  0.52020  Biso   1.000  H
  C13      1.0000 0.66270  0.05400  0.05600  Biso   1.000  C
  C14      1.0000 0.33730  0.55400  0.44400  Biso   1.000  C
  C15      1.0000 0.33730  0.94600  0.94400  Biso   1.000  C
  C16      1.0000 0.66270  0.44600  0.55600  Biso   1.000  C
  C17      1.0000 0.60810  0.10600  0.05400  Biso   1.000  C
  C18      1.0000 0.39190  0.60600  0.44600  Biso   1.000  C
  C19      1.0000 0.39190  0.89400  0.94600  Biso   1.000  C
  C20      1.0000 0.60810  0.39400  0.55400  Biso   1.000  C
  H9       1.0000 0.59520  0.07130  0.07820  Biso   1.000  H
  H10      1.0000 0.40480  0.57130  0.42180  Biso   1.000  H
  H11      1.0000 0.40480  0.92870  0.92180  Biso   1.000  H
  H12      1.0000 0.59520  0.42870  0.57820  Biso   1.000  H
  C21      1.0000 0.57080  0.21400  0.01380  Biso   1.000  C
  C22      1.0000 0.42920  0.71400  0.48620  Biso   1.000  C
  C23      1.0000 0.42920  0.78600  0.98620  Biso   1.000  C
  C24      1.0000 0.57080  0.28600  0.51380  Biso   1.000  C
  H13      1.0000 0.53310  0.25480  0.01190  Biso   1.000  H
  H14      1.0000 0.46690  0.75480  0.48810  Biso   1.000  H
  H15      1.0000 0.46690  0.74520  0.98810  Biso   1.000  H
  H16      1.0000 0.53310  0.24520  0.51190  Biso   1.000  H
  C25      1.0000 0.70500  0.94660  0.09770  Biso   1.000  C
  C26      1.0000 0.29500  0.44660  0.40230  Biso   1.000  C
  C27      1.0000 0.29500  0.05340  0.90230  Biso   1.000  C
  C28      1.0000 0.70500  0.55340  0.59770  Biso   1.000  C
  C29      1.0000 0.75680  0.80200  0.09850  Biso   1.000  C
  C30      1.0000 0.24320  0.30200  0.40150  Biso   1.000  C
  C31      1.0000 0.24320  0.19800  0.90150  Biso   1.000  C
  C32      1.0000 0.75680  0.69800  0.59850  Biso   1.000  C
  H17      1.0000 0.76480  0.75710  0.07240  Biso   1.000  H
  H18      1.0000 0.23520  0.25710  0.42760  Biso   1.000  H
  H19      1.0000 0.23520  0.24290  0.92760  Biso   1.000  H
  H20      1.0000 0.76480  0.74290  0.57240  Biso   1.000  H
  C33      1.0000 0.78260  0.79600  0.17620  Biso   1.000  C
  C34      1.0000 0.21740  0.29600  0.32380  Biso   1.000  C
  C35      1.0000 0.21740  0.20400  0.82380  Biso   1.000  C
  C36      1.0000 0.78260  0.70400  0.67620  Biso   1.000  C
  C37      1.0000 0.73330  0.92600  0.17640  Biso   1.000  C
  C38      1.0000 0.26670  0.42600  0.32360  Biso   1.000  C
  C39      1.0000 0.26670  0.07400  0.82360  Biso   1.000  C
  C40      1.0000 0.73330  0.57400  0.67640  Biso   1.000  C
  H21      1.0000 0.72490  0.96520  0.20250  Biso   1.000  H
  H22      1.0000 0.27510  0.46520  0.29750  Biso   1.000  H
  H23      1.0000 0.27510  0.03480  0.79750  Biso   1.000  H
  H24      1.0000 0.72490  0.53480  0.70250  Biso   1.000  H
  C41      1.0000 0.69560  0.00100  0.13830  Biso   1.000  C
  C42      1.0000 0.30440  0.50100  0.36170  Biso   1.000  C
  C43      1.0000 0.30440  0.99900  0.86170  Biso   1.000  C
  C44      1.0000 0.69560  0.49900  0.63830  Biso   1.000  C
  H25      1.0000 0.66130  0.09360  0.13890  Biso   1.000  H
  H26      1.0000 0.33870  0.59360  0.36110  Biso   1.000  H
  H27      1.0000 0.33870  0.90640  0.86110  Biso   1.000  H
  H28      1.0000 0.66130  0.40640  0.63890  Biso   1.000  H
  C45      1.0000 0.82390  0.73800  0.21870  Biso   1.000  C
  C46      1.0000 0.17610  0.23800  0.28130  Biso   1.000  C
  C47      1.0000 0.17610  0.26200  0.78130  Biso   1.000  C
  C48      1.0000 0.82390  0.76200  0.71870  Biso   1.000  C
  C49      1.0000 0.87410  0.56870  0.22260  Biso   1.000  C
  C50      1.0000 0.12590  0.06870  0.27740  Biso   1.000  C
  C51      1.0000 0.12590  0.43130  0.77740  Biso   1.000  C
  C52      1.0000 0.87410  0.93130  0.72260  Biso   1.000  C
  H29      1.0000 0.88220  0.48660  0.19780  Biso   1.000  H
  H30      1.0000 0.11780  0.98660  0.30220  Biso   1.000  H
  H31      1.0000 0.11780  0.51340  0.80220  Biso   1.000  H
  H32      1.0000 0.88220  0.01340  0.69780  Biso   1.000  H
  C53      1.0000 0.91250  0.52000  0.26320  Biso   1.000  C
  C54      1.0000 0.08750  0.02000  0.23680  Biso   1.000  C
  C55      1.0000 0.08750  0.48000  0.73680  Biso   1.000  C
  C56      1.0000 0.91250  0.98000  0.76320  Biso   1.000  C
  H33      1.0000 0.94580  0.40340  0.26510  Biso   1.000  H
  H34      1.0000 0.05420  0.90340  0.23490  Biso   1.000  H
  H35      1.0000 0.05420  0.59660  0.73490  Biso   1.000  H
  H36      1.0000 0.94580  0.09660  0.76510  Biso   1.000  H
  C57      1.0000 0.85440  0.79600  0.29580  Biso   1.000  C
  C58      1.0000 0.14560  0.29600  0.20420  Biso   1.000  C
  C59      1.0000 0.14560  0.20400  0.70420  Biso   1.000  C
  C60      1.0000 0.85440  0.70400  0.79580  Biso   1.000  C
  H37      1.0000 0.84650  0.87410  0.32080  Biso   1.000  H
  H38      1.0000 0.15350  0.37410  0.17920  Biso   1.000  H
  H39      1.0000 0.15350  0.12590  0.67920  Biso   1.000  H
  H40      1.0000 0.84650  0.62590  0.82080  Biso   1.000  H
  C61      1.0000 0.81500  0.85000  0.25700  Biso   1.000  C
  C62      1.0000 0.18500  0.35000  0.24300  Biso   1.000  C
  C63      1.0000 0.18500  0.15000  0.74300  Biso   1.000  C
  C64      1.0000 0.81500  0.65000  0.75700  Biso   1.000  C
  H41      1.0000 0.78180  0.96380  0.25640  Biso   1.000  H
  H42      1.0000 0.21820  0.46380  0.24360  Biso   1.000  H
  H43      1.0000 0.21820  0.03620  0.74360  Biso   1.000  H
  H44      1.0000 0.78180  0.53620  0.75640  Biso   1.000  H
  C65      1.0000 0.15230  0.99900  0.46340  Biso   1.000  C
  C66      1.0000 0.84770  0.49900  0.03660  Biso   1.000  C
  C67      1.0000 0.84770  0.00100  0.53660  Biso   1.000  C
  C68      1.0000 0.15230  0.50100  0.96340  Biso   1.000  C
  H45      1.0000 0.16410  0.87090  0.44320  Biso   1.000  H
  H46      1.0000 0.83590  0.37090  0.05680  Biso   1.000  H
  H47      1.0000 0.83590  0.12910  0.55680  Biso   1.000  H
  H48      1.0000 0.16410  0.62910  0.94320  Biso   1.000  H
  C69      1.0000 0.19080  0.07420  0.50230  Biso   1.000  C
  C70      1.0000 0.80920  0.57420  0.99770  Biso   1.000  C
  C71      1.0000 0.80920  0.92580  0.49770  Biso   1.000  C
  C72      1.0000 0.19080  0.42580  0.00230  Biso   1.000  C
  H49      1.0000 0.22800  0.00210  0.50770  Biso   1.000  H
  H50      1.0000 0.77200  0.50210  0.99230  Biso   1.000  H
  H51      1.0000 0.77200  0.99790  0.49230  Biso   1.000  H
  H52      1.0000 0.22800  0.49790  0.00770  Biso   1.000  H
  C73      1.0000 0.17430  0.25700  0.53330  Biso   1.000  C
  C74      1.0000 0.82570  0.75700  0.96670  Biso   1.000  C
  C75      1.0000 0.82570  0.74300  0.46670  Biso   1.000  C
  C76      1.0000 0.17430  0.24300  0.03330  Biso   1.000  C
  C77      1.0000 0.11900  0.35300  0.52370  Biso   1.000  C
  C78      1.0000 0.88100  0.85300  0.97630  Biso   1.000  C
  C79      1.0000 0.88100  0.64700  0.47630  Biso   1.000  C
  C80      1.0000 0.11900  0.14700  0.02370  Biso   1.000  C
  H53      1.0000 0.10580  0.47340  0.54390  Biso   1.000  H
  H54      1.0000 0.89420  0.97340  0.95610  Biso   1.000  H
  H55      1.0000 0.89420  0.52660  0.45610  Biso   1.000  H
  H56      1.0000 0.10580  0.02660  0.04390  Biso   1.000  H
  C81      1.0000 0.08230  0.26800  0.48310  Biso   1.000  C
  C82      1.0000 0.91770  0.76800  0.01690  Biso   1.000  C
  C83      1.0000 0.91770  0.73200  0.51690  Biso   1.000  C
  C84      1.0000 0.08230  0.23200  0.98310  Biso   1.000  C
  H57      1.0000 0.04470  0.33260  0.47680  Biso   1.000  H
  H58      1.0000 0.95530  0.83260  0.02320  Biso   1.000  H
  H59      1.0000 0.95530  0.66740  0.52320  Biso   1.000  H
  H60      1.0000 0.04470  0.16740  0.97680  Biso   1.000  H
  C85      1.0000 0.21610  0.34930  0.57580  Biso   1.000  C
  C86      1.0000 0.78390  0.84930  0.92420  Biso   1.000  C
  C87      1.0000 0.78390  0.65070  0.42420  Biso   1.000  C
  C88      1.0000 0.21610  0.15070  0.07580  Biso   1.000  C
  C89      1.0000 0.26990  0.29160  0.57982  Biso   1.000  C
  C90      1.0000 0.73010  0.79160  0.92018  Biso   1.000  C
  C91      1.0000 0.73010  0.70840  0.42018  Biso   1.000  C
  C92      1.0000 0.26990  0.20840  0.07982  Biso   1.000  C
  H61      1.0000 0.28120  0.19580  0.55710  Biso   1.000  H
  H62      1.0000 0.71880  0.69580  0.94290  Biso   1.000  H
  H63      1.0000 0.71880  0.80420  0.44290  Biso   1.000  H
  H64      1.0000 0.28120  0.30420  0.05710  Biso   1.000  H
  C93      1.0000 0.30760  0.37300  0.61690  Biso   1.000  C
  C94      1.0000 0.69240  0.87300  0.88310  Biso   1.000  C
  C95      1.0000 0.69240  0.62700  0.38310  Biso   1.000  C
  C96      1.0000 0.30760  0.12700  0.11690  Biso   1.000  C
  H65      1.0000 0.34540  0.33790  0.61890  Biso   1.000  H
  H66      1.0000 0.65460  0.83790  0.88110  Biso   1.000  H
  H67      1.0000 0.65460  0.66210  0.38110  Biso   1.000  H
  H68      1.0000 0.34540  0.16210  0.11890  Biso   1.000  H
  C97      1.0000 0.29460  0.50700  0.65300  Biso   1.000  C
  C98      1.0000 0.70540  0.00700  0.84700  Biso   1.000  C
  C99      1.0000 0.70540  0.49300  0.34700  Biso   1.000  C
  C100     1.0000 0.29460  0.99300  0.15300  Biso   1.000  C
  C101     1.0000 0.23770  0.56300  0.64840  Biso   1.000  C
  C102     1.0000 0.76230  0.06300  0.85160  Biso   1.000  C
  C103     1.0000 0.76230  0.43700  0.35160  Biso   1.000  C
  C104     1.0000 0.23770  0.93700  0.14840  Biso   1.000  C
  H69      1.0000 0.22670  0.65390  0.67150  Biso   1.000  H
  H70      1.0000 0.77330  0.15390  0.82850  Biso   1.000  H
  H71      1.0000 0.77330  0.34610  0.32850  Biso   1.000  H
  H72      1.0000 0.22670  0.84610  0.17150  Biso   1.000  H
  C105     1.0000 0.33860  0.58850  0.69410  Biso   1.000  C
  C106     1.0000 0.66140  0.08850  0.80590  Biso   1.000  C
  C107     1.0000 0.66140  0.41150  0.30590  Biso   1.000  C
  C108     1.0000 0.33860  0.91150  0.19410  Biso   1.000  C
  C109     1.0000 0.38990  0.72300  0.69440  Biso   1.000  C
  C110     1.0000 0.61010  0.22300  0.80560  Biso   1.000  C
  C111     1.0000 0.61010  0.27700  0.30560  Biso   1.000  C
  C112     1.0000 0.38990  0.77700  0.19440  Biso   1.000  C
  H73      1.0000 0.39900  0.75420  0.66850  Biso   1.000  H
  H74      1.0000 0.60100  0.25420  0.83150  Biso   1.000  H
  H75      1.0000 0.60100  0.24580  0.33150  Biso   1.000  H
  H76      1.0000 0.39900  0.74580  0.16850  Biso   1.000  H
  C113     1.0000 0.42850  0.81200  0.73400  Biso   1.000  C
  C114     1.0000 0.57150  0.31200  0.76600  Biso   1.000  C
  C115     1.0000 0.57150  0.18800  0.26600  Biso   1.000  C
  C116     1.0000 0.42850  0.68800  0.23400  Biso   1.000  C
  H77      1.0000 0.46260  0.91280  0.73420  Biso   1.000  H
  H78      1.0000 0.53740  0.41280  0.76580  Biso   1.000  H
  H79      1.0000 0.53740  0.08720  0.26580  Biso   1.000  H
  H80      1.0000 0.46260  0.58720  0.23420  Biso   1.000  H
  C117     1.0000 0.41620  0.75100  0.77230  Biso   1.000  C
  C118     1.0000 0.58380  0.25100  0.72770  Biso   1.000  C
  C119     1.0000 0.58380  0.24900  0.22770  Biso   1.000  C
  C120     1.0000 0.41620  0.74900  0.27230  Biso   1.000  C
  C121     1.0000 0.36550  0.61500  0.77290  Biso   1.000  C
  C122     1.0000 0.63450  0.11500  0.72710  Biso   1.000  C
  C123     1.0000 0.63450  0.38500  0.22710  Biso   1.000  C
  C124     1.0000 0.36550  0.88500  0.27290  Biso   1.000  C
  H81      1.0000 0.35720  0.58000  0.79910  Biso   1.000  H
  H82      1.0000 0.64280  0.08000  0.70090  Biso   1.000  H
  H83      1.0000 0.64280  0.42000  0.20090  Biso   1.000  H
  H84      1.0000 0.35720  0.92000  0.29910  Biso   1.000  H
  C125     1.0000 0.32700  0.53000  0.73410  Biso   1.000  C
  C126     1.0000 0.67300  0.03000  0.76590  Biso   1.000  C
  C127     1.0000 0.67300  0.47000  0.26590  Biso   1.000  C
  C128     1.0000 0.32700  0.97000  0.23410  Biso   1.000  C
  H85      1.0000 0.29280  0.43320  0.73430  Biso   1.000  H
  H86      1.0000 0.70720  0.93320  0.76570  Biso   1.000  H
  H87      1.0000 0.70720  0.56680  0.26570  Biso   1.000  H
  H88      1.0000 0.29280  0.06680  0.23430  Biso   1.000  H
  N1       1.0000 0.90240  0.64030  0.30024  Biso   1.000  N
  N2       1.0000 0.09760  0.14030  0.19976  Biso   1.000  N
  N3       1.0000 0.09760  0.35970  0.69976  Biso   1.000  N
  N4       1.0000 0.90240  0.85970  0.80024  Biso   1.000  N
  N5       1.0000 0.09930  0.10020  0.45318  Biso   1.000  N
  N6       1.0000 0.90070  0.60020  0.04682  Biso   1.000  N
  N7       1.0000 0.90070  0.89980  0.54682  Biso   1.000  N
  N8       1.0000 0.09930  0.39980  0.95318  Biso   1.000  N
  N9       1.0000 0.79660  0.72300  0.13700  Biso   1.000  N
  N10      1.0000 0.20340  0.22300  0.36300  Biso   1.000  N
  N11      1.0000 0.20340  0.27700  0.86300  Biso   1.000  N
  N12      1.0000 0.79660  0.77700  0.63700  Biso   1.000  N
  N13      1.0000 0.19760  0.48610  0.61040  Biso   1.000  N
  N14      1.0000 0.80240  0.98610  0.88960  Biso   1.000  N
  N15      1.0000 0.80240  0.51390  0.38960  Biso   1.000  N
  N16      1.0000 0.19760  0.01390  0.11040  Biso   1.000  N
  Cu1      1.0000 0.95854  0.56350  0.35851  Biso   1.000  Cu
  Cu2      1.0000 0.04146  0.06350  0.14149  Biso   1.000  Cu
  Cu3      1.0000 0.04146  0.43650  0.64149  Biso   1.000  Cu
  Cu4      1.0000 0.95854  0.93650  0.85851  Biso   1.000  Cu
  Cu5      1.0000 0.04516  0.03730  0.39321  Biso   1.000  Cu
  Cu6      1.0000 0.95484  0.53730  0.10679  Biso   1.000  Cu
  Cu7      1.0000 0.95484  0.96270  0.60679  Biso   1.000  Cu
  Cu8      1.0000 0.04516  0.46270  0.89321  Biso   1.000  Cu
  Br1      1.0000 0.53801  0.40260  0.92499  Biso   1.000  Br
  Br2      1.0000 0.46199  0.90260  0.57501  Biso   1.000  Br
  Br3      1.0000 0.46199  0.59740  0.07501  Biso   1.000  Br
  Br4      1.0000 0.53801  0.09740  0.42499  Biso   1.000  Br
  Br5      1.0000 0.46758  0.88000  0.82602  Biso   1.000  Br
  Br6      1.0000 0.53242  0.38000  0.67398  Biso   1.000  Br
  Br7      1.0000 0.53242  0.12000  0.17398  Biso   1.000  Br
  Br8      1.0000 0.46758  0.62000  0.32602  Biso   1.000  Br
  Br9      1.0000 0.94678  0.07814  0.40354  Biso   1.000  Br
  Br10     1.0000 0.05322  0.57814  0.09646  Biso   1.000  Br
  Br11     1.0000 0.05322  0.92186  0.59646  Biso   1.000  Br
  Br12     1.0000 0.94678  0.42186  0.90354  Biso   1.000  Br
  Br13     1.0000 0.05633  0.55812  0.34866  Biso   1.000  Br
  Br14     1.0000 0.94367  0.05812  0.15134  Biso   1.000  Br
  Br15     1.0000 0.94367  0.44188  0.65134  Biso   1.000  Br
  Br16     1.0000 0.05633  0.94188  0.84866  Biso   1.000  Br
