data_image0
_cell_length_a       12.341
_cell_length_b       13.238
_cell_length_c       15.373
_cell_angle_alpha    99.23
_cell_angle_beta     90.25
_cell_angle_gamma    105.11

_symmetry_space_group_name_H-M    "P 1"
_symmetry_int_tables_number       1

loop_
  _symmetry_equiv_pos_as_xyz
  'x, y, z'

loop_
  _atom_site_label
  _atom_site_occupancy
  _atom_site_fract_x
  _atom_site_fract_y
  _atom_site_fract_z
  _atom_site_thermal_displace_type
  _atom_site_B_iso_or_equiv
  _atom_site_type_symbol
  W1       1.0000 0.32959  0.31589  0.83122  Biso   1.000  W
  W2       1.0000 0.67041  0.68411  0.16878  Biso   1.000  W
  W3       1.0000 0.47897  0.22915  0.98602  Biso   1.000  W
  W4       1.0000 0.52103  0.77085  0.01398  Biso   1.000  W
  W5       1.0000 0.64618  0.64070  0.84157  Biso   1.000  W
  W6       1.0000 0.35382  0.35930  0.15843  Biso   1.000  W
  W7       1.0000 0.35145  0.58764  0.84462  Biso   1.000  W
  W8       1.0000 0.64855  0.41236  0.15538  Biso   1.000  W
  W9       1.0000 0.62433  0.36798  0.82776  Biso   1.000  W
  W10      1.0000 0.37567  0.63202  0.17224  Biso   1.000  W
  W11      1.0000 0.20561  0.44799  0.00328  Biso   1.000  W
  W12      1.0000 0.79439  0.55201  0.99672  Biso   1.000  W
  P1       1.0000 0.50000  0.50000  0.00000  Biso   1.000  P
  O1       1.0000 0.25010  0.22830  0.74990  Biso   1.000  O
  O2       1.0000 0.74990  0.77170  0.25010  Biso   1.000  O
  O3       1.0000 0.36200  0.44600  0.80340  Biso   1.000  O
  O4       1.0000 0.63800  0.55400  0.19660  Biso   1.000  O
  O5       1.0000 0.29700  0.44700  0.78100  Biso   1.000  O
  O6       1.0000 0.70300  0.55300  0.21900  Biso   1.000  O
  O7       1.0000 0.25300  0.33800  0.91800  Biso   1.000  O
  O8       1.0000 0.74700  0.66200  0.08200  Biso   1.000  O
  O9       1.0000 0.18200  0.33800  0.90600  Biso   1.000  O
  O10      1.0000 0.81800  0.66200  0.09400  Biso   1.000  O
  O11      1.0000 0.35800  0.25000  0.92200  Biso   1.000  O
  O12      1.0000 0.64200  0.75000  0.07800  Biso   1.000  O
  O13      1.0000 0.63900  0.81400  0.11660  Biso   1.000  O
  O14      1.0000 0.36100  0.18600  0.88340  Biso   1.000  O
  O15      1.0000 0.46700  0.35900  0.80400  Biso   1.000  O
  O16      1.0000 0.53300  0.64100  0.19600  Biso   1.000  O
  O17      1.0000 0.52000  0.70600  0.24100  Biso   1.000  O
  O18      1.0000 0.48000  0.29400  0.75900  Biso   1.000  O
  O19      1.0000 0.46750  0.09970  0.97960  Biso   1.000  O
  O20      1.0000 0.53250  0.90030  0.02040  Biso   1.000  O
  O21      1.0000 0.28230  0.63400  0.77340  Biso   1.000  O
  O22      1.0000 0.71770  0.36600  0.22660  Biso   1.000  O
  O23      1.0000 0.20100  0.54100  0.91200  Biso   1.000  O
  O24      1.0000 0.79900  0.45900  0.08800  Biso   1.000  O
  O25      1.0000 0.26200  0.54900  0.93200  Biso   1.000  O
  O26      1.0000 0.73800  0.45100  0.06800  Biso   1.000  O
  O27      1.0000 0.50200  0.63200  0.77600  Biso   1.000  O
  O28      1.0000 0.49800  0.36800  0.22400  Biso   1.000  O
  O29      1.0000 0.49000  0.60100  0.81300  Biso   1.000  O
  O30      1.0000 0.51000  0.39900  0.18700  Biso   1.000  O
  O31      1.0000 0.40230  0.71380  0.92840  Biso   1.000  O
  O32      1.0000 0.59770  0.28620  0.07160  Biso   1.000  O
  O33      1.0000 0.50800  0.59280  0.93550  Biso   1.000  O
  O34      1.0000 0.49200  0.40720  0.06450  Biso   1.000  O
  O35      1.0000 0.71900  0.71160  0.76840  Biso   1.000  O
  O36      1.0000 0.28100  0.28840  0.23160  Biso   1.000  O
  O37      1.0000 0.63550  0.49780  0.78960  Biso   1.000  O
  O38      1.0000 0.36450  0.50220  0.21040  Biso   1.000  O
  O39      1.0000 0.36600  0.23000  0.09200  Biso   1.000  O
  O40      1.0000 0.63400  0.77000  0.90800  Biso   1.000  O
  O41      1.0000 0.38400  0.26200  0.05800  Biso   1.000  O
  O42      1.0000 0.61600  0.73800  0.94200  Biso   1.000  O
  O43      1.0000 0.39400  0.48000  0.06420  Biso   1.000  O
  O44      1.0000 0.60600  0.52000  0.93580  Biso   1.000  O
  O45      1.0000 0.68270  0.30660  0.74500  Biso   1.000  O
  O46      1.0000 0.31730  0.69340  0.25500  Biso   1.000  O
  O47      1.0000 0.25240  0.56870  0.09320  Biso   1.000  O
  O48      1.0000 0.74760  0.43130  0.90680  Biso   1.000  O
  O49      1.0000 0.59200  0.23000  0.87700  Biso   1.000  O
  O50      1.0000 0.40800  0.77000  0.12300  Biso   1.000  O
  O51      1.0000 0.41300  0.71400  0.08300  Biso   1.000  O
  O52      1.0000 0.58700  0.28600  0.91700  Biso   1.000  O
  O53      1.0000 0.05700  0.43400  0.02800  Biso   1.000  O
  O54      1.0000 0.94300  0.56600  0.97200  Biso   1.000  O
  O55      1.0000 0.07600  0.41500  0.99200  Biso   1.000  O
  O56      1.0000 0.92400  0.58500  0.00800  Biso   1.000  O
  O57      1.0000 0.23180  0.35850  0.08340  Biso   1.000  O
  O58      1.0000 0.76820  0.64150  0.91660  Biso   1.000  O
  O59      1.0000 0.37900  0.47500  0.93720  Biso   1.000  O
  O60      1.0000 0.62100  0.52500  0.06280  Biso   1.000  O
  O61      1.0000 0.48900  0.38100  0.92900  Biso   1.000  O
  O62      1.0000 0.51100  0.61900  0.07100  Biso   1.000  O
  Cu1      1.0000 0.08320  0.28360  0.51800  Biso   1.000  Cu
  Cu2      1.0000 0.91680  0.71640  0.48200  Biso   1.000  Cu
  Cu3      1.0000 0.00000  0.50000  0.50000  Biso   1.000  Cu
  Cu4      1.0000 0.36250  0.92100  0.89670  Biso   1.000  Cu
  Cu5      1.0000 0.63750  0.07900  0.10330  Biso   1.000  Cu
  Cu6      1.0000 0.87710  0.10410  0.33760  Biso   1.000  Cu
  Cu7      1.0000 0.12290  0.89590  0.66240  Biso   1.000  Cu
  Cl1      1.0000 0.99580  0.28640  0.38810  Biso   1.000  Cl
  Cl2      1.0000 0.00420  0.71360  0.61190  Biso   1.000  Cl
  N1       1.0000 0.24900  0.33210  0.51140  Biso   1.000  N
  N2       1.0000 0.75100  0.66790  0.48860  Biso   1.000  N
  N3       1.0000 0.84200  0.44900  0.50190  Biso   1.000  N
  N4       1.0000 0.15800  0.55100  0.49810  Biso   1.000  N
  N5       1.0000 0.43700  0.94320  0.79280  Biso   1.000  N
  N6       1.0000 0.56300  0.05680  0.20720  Biso   1.000  N
  N7       1.0000 0.77910  0.06700  0.43080  Biso   1.000  N
  N8       1.0000 0.22090  0.93300  0.56920  Biso   1.000  N
  N9       1.0000 0.26330  0.88760  0.99050  Biso   1.000  N
  N10      1.0000 0.73670  0.11240  0.00950  Biso   1.000  N
  N11      1.0000 0.01500  0.25100  0.62700  Biso   1.000  N
  N12      1.0000 0.98500  0.74900  0.37300  Biso   1.000  N
  N13      1.0000 0.91740  0.07270  0.21720  Biso   1.000  N
  N14      1.0000 0.08260  0.92730  0.78280  Biso   1.000  N
  C1       1.0000 0.30100  0.32500  0.43610  Biso   1.000  C
  C2       1.0000 0.69900  0.67500  0.56390  Biso   1.000  C
  H1       1.0000 0.25830  0.30240  0.38320  Biso   1.000  H
  H2       1.0000 0.74170  0.69760  0.61680  Biso   1.000  H
  C3       1.0000 0.41000  0.34730  0.43320  Biso   1.000  C
  C4       1.0000 0.59000  0.65270  0.56680  Biso   1.000  C
  H3       1.0000 0.44070  0.34700  0.37790  Biso   1.000  H
  H4       1.0000 0.55930  0.65300  0.62210  Biso   1.000  H
  C5       1.0000 0.48500  0.37200  0.50620  Biso   1.000  C
  C6       1.0000 0.51500  0.62800  0.49380  Biso   1.000  C
  C7       1.0000 0.43200  0.37100  0.58600  Biso   1.000  C
  C8       1.0000 0.56800  0.62900  0.41400  Biso   1.000  C
  H5       1.0000 0.47430  0.38630  0.63890  Biso   1.000  H
  H6       1.0000 0.52570  0.61370  0.36110  Biso   1.000  H
  C9       1.0000 0.32100  0.34900  0.58500  Biso   1.000  C
  C10      1.0000 0.67900  0.65100  0.41500  Biso   1.000  C
  H7       1.0000 0.28830  0.34450  0.63880  Biso   1.000  H
  H8       1.0000 0.71170  0.65550  0.36120  Biso   1.000  H
  C11      1.0000 0.77700  0.41300  0.42900  Biso   1.000  C
  C12      1.0000 0.22300  0.58700  0.57100  Biso   1.000  C
  H9       1.0000 0.81180  0.40370  0.37520  Biso   1.000  H
  H10      1.0000 0.18820  0.59630  0.62480  Biso   1.000  H
  C13      1.0000 0.66300  0.39000  0.42700  Biso   1.000  C
  C14      1.0000 0.33700  0.61000  0.57300  Biso   1.000  C
  H11      1.0000 0.62230  0.36800  0.37310  Biso   1.000  H
  H12      1.0000 0.37770  0.63200  0.62690  Biso   1.000  H
  C15      1.0000 0.60600  0.39800  0.50380  Biso   1.000  C
  C16      1.0000 0.39400  0.60200  0.49620  Biso   1.000  C
  C17      1.0000 0.67600  0.42900  0.58110  Biso   1.000  C
  C18      1.0000 0.32400  0.57100  0.41890  Biso   1.000  C
  H13      1.0000 0.64460  0.43180  0.63610  Biso   1.000  H
  H14      1.0000 0.35540  0.56820  0.36390  Biso   1.000  H
  C19      1.0000 0.79100  0.45600  0.57500  Biso   1.000  C
  C20      1.0000 0.20900  0.54400  0.42500  Biso   1.000  C
  H15      1.0000 0.83510  0.48050  0.62750  Biso   1.000  H
  H16      1.0000 0.16490  0.51950  0.37250  Biso   1.000  H
  C21      1.0000 0.50600  0.88400  0.75700  Biso   1.000  C
  C22      1.0000 0.49400  0.11600  0.24300  Biso   1.000  C
  H17      1.0000 0.51230  0.82720  0.78390  Biso   1.000  H
  H18      1.0000 0.48770  0.17280  0.21610  Biso   1.000  H
  C23      1.0000 0.56800  0.90300  0.68440  Biso   1.000  C
  C24      1.0000 0.43200  0.09700  0.31560  Biso   1.000  C
  H19      1.0000 0.60370  0.85300  0.65850  Biso   1.000  H
  H20      1.0000 0.39630  0.14700  0.34150  Biso   1.000  H
  C25      1.0000 0.57700  0.99200  0.64940  Biso   1.000  C
  C26      1.0000 0.42300  0.00800  0.35060  Biso   1.000  C
  C27      1.0000 0.50900  0.05540  0.68610  Biso   1.000  C
  C28      1.0000 0.49100  0.94460  0.31390  Biso   1.000  C
  H21      1.0000 0.50690  0.11530  0.66260  Biso   1.000  H
  H22      1.0000 0.49310  0.88470  0.33740  Biso   1.000  H
  C29      1.0000 0.44800  0.03100  0.75480  Biso   1.000  C
  C30      1.0000 0.55200  0.96900  0.24520  Biso   1.000  C
  H23      1.0000 0.40880  0.07910  0.77920  Biso   1.000  H
  H24      1.0000 0.59120  0.92090  0.22080  Biso   1.000  H
  C31      1.0000 0.73200  0.96700  0.44470  Biso   1.000  C
  C32      1.0000 0.26800  0.03300  0.55530  Biso   1.000  C
  H25      1.0000 0.74540  0.91140  0.40510  Biso   1.000  H
  H26      1.0000 0.25460  0.08860  0.59490  Biso   1.000  H
  C33      1.0000 0.66800  0.94500  0.51200  Biso   1.000  C
  C34      1.0000 0.33200  0.05500  0.48800  Biso   1.000  C
  H27      1.0000 0.63990  0.87380  0.51800  Biso   1.000  H
  H28      1.0000 0.36010  0.12620  0.48200  Biso   1.000  H
  C35      1.0000 0.64200  0.01700  0.57120  Biso   1.000  C
  C36      1.0000 0.35800  0.98300  0.42880  Biso   1.000  C
  C37      1.0000 0.68600  0.12300  0.56270  Biso   1.000  C
  C38      1.0000 0.31400  0.87700  0.43730  Biso   1.000  C
  H29      1.0000 0.66920  0.17830  0.60050  Biso   1.000  H
  H30      1.0000 0.33080  0.82170  0.39950  Biso   1.000  H
  C39      1.0000 0.76000  0.14100  0.49200  Biso   1.000  C
  C40      1.0000 0.24000  0.85900  0.50800  Biso   1.000  C
  H31      1.0000 0.79760  0.21130  0.48900  Biso   1.000  H
  H32      1.0000 0.20240  0.78870  0.51100  Biso   1.000  H
  C41      1.0000 0.27300  0.95900  0.06430  Biso   1.000  C
  C42      1.0000 0.72700  0.04100  0.93570  Biso   1.000  C
  H33      1.0000 0.31670  0.02750  0.06500  Biso   1.000  H
  H34      1.0000 0.68330  0.97250  0.93500  Biso   1.000  H
  C43      1.0000 0.21900  0.93300  0.14000  Biso   1.000  C
  C44      1.0000 0.78100  0.06700  0.86000  Biso   1.000  C
  H35      1.0000 0.22930  0.98380  0.19050  Biso   1.000  H
  H36      1.0000 0.77070  0.01620  0.80950  Biso   1.000  H
  C45      1.0000 0.15110  0.83570  0.13980  Biso   1.000  C
  C46      1.0000 0.84890  0.16430  0.86020  Biso   1.000  C
  C47      1.0000 0.14100  0.76200  0.06080  Biso   1.000  C
  C48      1.0000 0.85900  0.23800  0.93920  Biso   1.000  C
  H37      1.0000 0.09750  0.69230  0.05800  Biso   1.000  H
  H38      1.0000 0.90250  0.30770  0.94200  Biso   1.000  H
  C49      1.0000 0.19600  0.79300  0.98860  Biso   1.000  C
  C50      1.0000 0.80400  0.20700  0.01140  Biso   1.000  C
  H39      1.0000 0.18400  0.74560  0.93590  Biso   1.000  H
  H40      1.0000 0.81600  0.25440  0.06410  Biso   1.000  H
  C51      1.0000 0.98400  0.15100  0.64300  Biso   1.000  C
  C52      1.0000 0.01600  0.84900  0.35700  Biso   1.000  C
  H41      1.0000 0.99920  0.09920  0.59970  Biso   1.000  H
  H42      1.0000 0.00080  0.90080  0.40030  Biso   1.000  H
  C53      1.0000 0.93100  0.11700  0.71600  Biso   1.000  C
  C54      1.0000 0.06900  0.88300  0.28400  Biso   1.000  C
  H43      1.0000 0.91200  0.04660  0.72390  Biso   1.000  H
  H44      1.0000 0.08800  0.95340  0.27610  Biso   1.000  H
  C55      1.0000 0.09100  0.79900  0.21960  Biso   1.000  C
  C56      1.0000 0.90900  0.20100  0.78040  Biso   1.000  C
  C57      1.0000 0.05300  0.69800  0.23300  Biso   1.000  C
  C58      1.0000 0.94700  0.30200  0.76700  Biso   1.000  C
  H45      1.0000 0.06070  0.64200  0.19070  Biso   1.000  H
  H46      1.0000 0.93930  0.35800  0.80930  Biso   1.000  H
  C59      1.0000 0.99900  0.32000  0.68800  Biso   1.000  C
  C60      1.0000 0.00100  0.68000  0.31200  Biso   1.000  C
  H47      1.0000 0.02520  0.39010  0.68010  Biso   1.000  H
  H48      1.0000 0.97480  0.60990  0.31990  Biso   1.000  H
  C61      1.0000 0.87200  0.97900  0.16560  Biso   1.000  C
  C62      1.0000 0.12800  0.02100  0.83440  Biso   1.000  C
  H49      1.0000 0.81370  0.93220  0.18850  Biso   1.000  H
  H50      1.0000 0.18630  0.06780  0.81150  Biso   1.000  H
  C63      1.0000 0.90100  0.94600  0.08520  Biso   1.000  C
  C64      1.0000 0.09900  0.05400  0.91480  Biso   1.000  C
  H51      1.0000 0.86950  0.87700  0.05630  Biso   1.000  H
  H52      1.0000 0.13050  0.12300  0.94370  Biso   1.000  H
  C65      1.0000 0.98100  0.01800  0.04520  Biso   1.000  C
  C66      1.0000 0.01900  0.98200  0.95480  Biso   1.000  C
  C67      1.0000 0.03400  0.11400  0.09400  Biso   1.000  C
  C68      1.0000 0.96600  0.88600  0.90600  Biso   1.000  C
  H53      1.0000 0.09050  0.16240  0.07160  Biso   1.000  H
  H54      1.0000 0.90950  0.83760  0.92840  Biso   1.000  H
  C69      1.0000 0.99700  0.13500  0.18080  Biso   1.000  C
  C70      1.0000 0.00300  0.86500  0.81920  Biso   1.000  C
  H55      1.0000 0.03360  0.20030  0.21470  Biso   1.000  H
  H56      1.0000 0.96640  0.79970  0.78530  Biso   1.000  H
  O63      1.0000 0.92200  0.92100  0.57550  Biso   1.000  O
  O64      1.0000 0.07800  0.07900  0.42450  Biso   1.000  O
  O65      1.0000 0.01400  0.58700  0.79480  Biso   1.000  O
  O66      1.0000 0.98600  0.41300  0.20520  Biso   1.000  O
