data_image0
_cell_length_a       6.9234
_cell_length_b       10.0974
_cell_length_c       11.302
_cell_angle_alpha    95.269
_cell_angle_beta     90.604
_cell_angle_gamma    94.431

_symmetry_space_group_name_H-M    "P 1"
_symmetry_int_tables_number       1

loop_
  _symmetry_equiv_pos_as_xyz
  'x, y, z'

loop_
  _atom_site_label
  _atom_site_occupancy
  _atom_site_fract_x
  _atom_site_fract_y
  _atom_site_fract_z
  _atom_site_thermal_displace_type
  _atom_site_B_iso_or_equiv
  _atom_site_type_symbol
  Cu1      1.0000 0.30055  0.52096  0.68138  Biso   1.000  Cu
  Cu2      1.0000 0.69945  0.47904  0.31862  Biso   1.000  Cu
  K1       1.0000 0.16429  0.38663  0.37044  Biso   1.000  K
  K2       1.0000 0.83571  0.61337  0.62956  Biso   1.000  K
  F1       1.0000 0.25940  0.18410  0.54690  Biso   1.000  F
  F2       1.0000 0.74060  0.81590  0.45310  Biso   1.000  F
  F3       1.0000 0.32450  0.22550  0.72970  Biso   1.000  F
  F4       1.0000 0.67550  0.77450  0.27030  Biso   1.000  F
  F5       1.0000 0.10940  0.06900  0.67220  Biso   1.000  F
  F6       1.0000 0.89060  0.93100  0.32780  Biso   1.000  F
  F7       1.0000 0.71940  0.33190  0.57610  Biso   1.000  F
  F8       1.0000 0.28060  0.66810  0.42390  Biso   1.000  F
  F9       1.0000 0.74670  0.13290  0.62120  Biso   1.000  F
  F10      1.0000 0.25330  0.86710  0.37880  Biso   1.000  F
  F11      1.0000 0.89880  0.20320  0.47257  Biso   1.000  F
  F12      1.0000 0.10120  0.79680  0.52743  Biso   1.000  F
  F13      1.0000 0.81530  0.39790  0.79960  Biso   1.000  F
  F14      1.0000 0.18470  0.60210  0.20040  Biso   1.000  F
  F15      1.0000 0.10040  0.37850  0.86204  Biso   1.000  F
  F16      1.0000 0.89960  0.62150  0.13796  Biso   1.000  F
  F17      1.0000 0.90050  0.20850  0.84010  Biso   1.000  F
  F18      1.0000 0.09950  0.79150  0.15990  Biso   1.000  F
  F19      1.0000 0.63960  0.83420  0.00130  Biso   1.000  F
  F20      1.0000 0.36040  0.16580  0.99870  Biso   1.000  F
  F21      1.0000 0.79570  0.70650  0.88610  Biso   1.000  F
  F22      1.0000 0.20430  0.29350  0.11390  Biso   1.000  F
  F23      1.0000 0.55310  0.62890  0.97530  Biso   1.000  F
  F24      1.0000 0.44690  0.37110  0.02470  Biso   1.000  F
  F25      1.0000 0.46120  0.89920  0.66210  Biso   1.000  F
  F26      1.0000 0.53880  0.10080  0.33790  Biso   1.000  F
  F27      1.0000 0.74600  0.86960  0.71960  Biso   1.000  F
  F28      1.0000 0.25400  0.13040  0.28040  Biso   1.000  F
  F29      1.0000 0.56760  0.99110  0.82960  Biso   1.000  F
  F30      1.0000 0.43240  0.00890  0.17040  Biso   1.000  F
  F31      1.0000 0.26810  0.87580  0.93750  Biso   1.000  F
  F32      1.0000 0.73190  0.12420  0.06250  Biso   1.000  F
  F33      1.0000 0.20390  0.66430  0.90710  Biso   1.000  F
  F34      1.0000 0.79610  0.33570  0.09290  Biso   1.000  F
  F35      1.0000 0.15890  0.78790  0.76730  Biso   1.000  F
  F36      1.0000 0.84110  0.21210  0.23270  Biso   1.000  F
  O1       1.0000 0.09280  0.41000  0.61726  Biso   1.000  O
  O2       1.0000 0.90720  0.59000  0.38274  Biso   1.000  O
  O3       1.0000 0.49680  0.64720  0.72960  Biso   1.000  O
  O4       1.0000 0.50320  0.35280  0.27040  Biso   1.000  O
  C1       1.0000 0.02340  0.29370  0.66170  Biso   1.000  C
  C2       1.0000 0.97660  0.70630  0.33830  Biso   1.000  C
  C3       1.0000 0.17830  0.18970  0.65380  Biso   1.000  C
  C4       1.0000 0.82170  0.81030  0.34620  Biso   1.000  C
  C5       1.0000 0.84330  0.23780  0.58340  Biso   1.000  C
  C6       1.0000 0.15670  0.76220  0.41660  Biso   1.000  C
  C7       1.0000 0.95930  0.31930  0.79320  Biso   1.000  C
  C8       1.0000 0.04070  0.68070  0.20680  Biso   1.000  C
  C9       1.0000 0.48680  0.75270  0.81360  Biso   1.000  C
  C10      1.0000 0.51320  0.24730  0.18640  Biso   1.000  C
  C11      1.0000 0.61900  0.73120  0.92200  Biso   1.000  C
  C12      1.0000 0.38100  0.26880  0.07800  Biso   1.000  C
  C13      1.0000 0.56490  0.88160  0.75770  Biso   1.000  C
  C14      1.0000 0.43510  0.11840  0.24230  Biso   1.000  C
  C15      1.0000 0.27820  0.77160  0.85830  Biso   1.000  C
  C16      1.0000 0.72180  0.22840  0.14170  Biso   1.000  C
