data_image0
_cell_length_a       20.4441
_cell_length_b       15.4306
_cell_length_c       16.5245
_cell_angle_alpha    90
_cell_angle_beta     90
_cell_angle_gamma    90

_symmetry_space_group_name_H-M    "P 1"
_symmetry_int_tables_number       1

loop_
  _symmetry_equiv_pos_as_xyz
  'x, y, z'

loop_
  _atom_site_label
  _atom_site_occupancy
  _atom_site_fract_x
  _atom_site_fract_y
  _atom_site_fract_z
  _atom_site_thermal_displace_type
  _atom_site_B_iso_or_equiv
  _atom_site_type_symbol
  I1       1.0000 0.50000  0.00000  0.07208  Biso   1.000  I
  I2       1.0000 0.50000  0.50000  0.57208  Biso   1.000  I
  I3       1.0000 0.00000  0.00000  0.57208  Biso   1.000  I
  I4       1.0000 0.00000  0.50000  0.07208  Biso   1.000  I
  I5       1.0000 0.50000  0.00000  0.79752  Biso   1.000  I
  I6       1.0000 0.50000  0.50000  0.29752  Biso   1.000  I
  I7       1.0000 0.00000  0.00000  0.29752  Biso   1.000  I
  I8       1.0000 0.00000  0.50000  0.79752  Biso   1.000  I
  Cu1      1.0000 0.50000  0.09244  0.93522  Biso   1.000  Cu
  Cu2      1.0000 0.50000  0.90756  0.93522  Biso   1.000  Cu
  Cu3      1.0000 0.50000  0.59244  0.43522  Biso   1.000  Cu
  Cu4      1.0000 0.50000  0.40756  0.43522  Biso   1.000  Cu
  Cu5      1.0000 0.00000  0.09244  0.43522  Biso   1.000  Cu
  Cu6      1.0000 0.00000  0.90756  0.43522  Biso   1.000  Cu
  Cu7      1.0000 0.00000  0.59244  0.93522  Biso   1.000  Cu
  Cu8      1.0000 0.00000  0.40756  0.93522  Biso   1.000  Cu
  N1       1.0000 0.59035  0.15560  0.93170  Biso   1.000  N
  N2       1.0000 0.40965  0.84440  0.93170  Biso   1.000  N
  N3       1.0000 0.59035  0.84440  0.93170  Biso   1.000  N
  N4       1.0000 0.40965  0.15560  0.93170  Biso   1.000  N
  N5       1.0000 0.59035  0.65560  0.43170  Biso   1.000  N
  N6       1.0000 0.40965  0.34440  0.43170  Biso   1.000  N
  N7       1.0000 0.59035  0.34440  0.43170  Biso   1.000  N
  N8       1.0000 0.40965  0.65560  0.43170  Biso   1.000  N
  N9       1.0000 0.09035  0.15560  0.43170  Biso   1.000  N
  N10      1.0000 0.90965  0.84440  0.43170  Biso   1.000  N
  N11      1.0000 0.09035  0.84440  0.43170  Biso   1.000  N
  N12      1.0000 0.90965  0.15560  0.43170  Biso   1.000  N
  N13      1.0000 0.09035  0.65560  0.93170  Biso   1.000  N
  N14      1.0000 0.90965  0.34440  0.93170  Biso   1.000  N
  N15      1.0000 0.09035  0.34440  0.93170  Biso   1.000  N
  N16      1.0000 0.90965  0.65560  0.93170  Biso   1.000  N
  C1       1.0000 0.71620  0.22830  0.93250  Biso   1.000  C
  C2       1.0000 0.28380  0.77170  0.93250  Biso   1.000  C
  C3       1.0000 0.71620  0.77170  0.93250  Biso   1.000  C
  C4       1.0000 0.28380  0.22830  0.93250  Biso   1.000  C
  C5       1.0000 0.71620  0.72830  0.43250  Biso   1.000  C
  C6       1.0000 0.28380  0.27170  0.43250  Biso   1.000  C
  C7       1.0000 0.71620  0.27170  0.43250  Biso   1.000  C
  C8       1.0000 0.28380  0.72830  0.43250  Biso   1.000  C
  C9       1.0000 0.21620  0.22830  0.43250  Biso   1.000  C
  C10      1.0000 0.78380  0.77170  0.43250  Biso   1.000  C
  C11      1.0000 0.21620  0.77170  0.43250  Biso   1.000  C
  C12      1.0000 0.78380  0.22830  0.43250  Biso   1.000  C
  C13      1.0000 0.21620  0.72830  0.93250  Biso   1.000  C
  C14      1.0000 0.78380  0.27170  0.93250  Biso   1.000  C
  C15      1.0000 0.21620  0.27170  0.93250  Biso   1.000  C
  C16      1.0000 0.78380  0.72830  0.93250  Biso   1.000  C
  C17      1.0000 0.60420  0.21910  0.88000  Biso   1.000  C
  C18      1.0000 0.39580  0.78090  0.88000  Biso   1.000  C
  C19      1.0000 0.60420  0.78090  0.88000  Biso   1.000  C
  C20      1.0000 0.39580  0.21910  0.88000  Biso   1.000  C
  C21      1.0000 0.60420  0.71910  0.38000  Biso   1.000  C
  C22      1.0000 0.39580  0.28090  0.38000  Biso   1.000  C
  C23      1.0000 0.60420  0.28090  0.38000  Biso   1.000  C
  C24      1.0000 0.39580  0.71910  0.38000  Biso   1.000  C
  C25      1.0000 0.10420  0.21910  0.38000  Biso   1.000  C
  C26      1.0000 0.89580  0.78090  0.38000  Biso   1.000  C
  C27      1.0000 0.10420  0.78090  0.38000  Biso   1.000  C
  C28      1.0000 0.89580  0.21910  0.38000  Biso   1.000  C
  C29      1.0000 0.10420  0.71910  0.88000  Biso   1.000  C
  C30      1.0000 0.89580  0.28090  0.88000  Biso   1.000  C
  C31      1.0000 0.10420  0.28090  0.88000  Biso   1.000  C
  C32      1.0000 0.89580  0.71910  0.88000  Biso   1.000  C
  C33      1.0000 0.66970  0.26000  0.87410  Biso   1.000  C
  C34      1.0000 0.33030  0.74000  0.87410  Biso   1.000  C
  C35      1.0000 0.66970  0.74000  0.87410  Biso   1.000  C
  C36      1.0000 0.33030  0.26000  0.87410  Biso   1.000  C
  C37      1.0000 0.66970  0.76000  0.37410  Biso   1.000  C
  C38      1.0000 0.33030  0.24000  0.37410  Biso   1.000  C
  C39      1.0000 0.66970  0.24000  0.37410  Biso   1.000  C
  C40      1.0000 0.33030  0.76000  0.37410  Biso   1.000  C
  C41      1.0000 0.16970  0.26000  0.37410  Biso   1.000  C
  C42      1.0000 0.83030  0.74000  0.37410  Biso   1.000  C
  C43      1.0000 0.16970  0.74000  0.37410  Biso   1.000  C
  C44      1.0000 0.83030  0.26000  0.37410  Biso   1.000  C
  C45      1.0000 0.16970  0.76000  0.87410  Biso   1.000  C
  C46      1.0000 0.83030  0.24000  0.87410  Biso   1.000  C
  C47      1.0000 0.16970  0.24000  0.87410  Biso   1.000  C
  C48      1.0000 0.83030  0.76000  0.87410  Biso   1.000  C
  C49      1.0000 0.64860  0.35530  0.75890  Biso   1.000  C
  C50      1.0000 0.35140  0.64470  0.75890  Biso   1.000  C
  C51      1.0000 0.64860  0.64470  0.75890  Biso   1.000  C
  C52      1.0000 0.35140  0.35530  0.75890  Biso   1.000  C
  C53      1.0000 0.64860  0.85530  0.25890  Biso   1.000  C
  C54      1.0000 0.35140  0.14470  0.25890  Biso   1.000  C
  C55      1.0000 0.64860  0.14470  0.25890  Biso   1.000  C
  C56      1.0000 0.35140  0.85530  0.25890  Biso   1.000  C
  C57      1.0000 0.14860  0.35530  0.25890  Biso   1.000  C
  C58      1.0000 0.85140  0.64470  0.25890  Biso   1.000  C
  C59      1.0000 0.14860  0.64470  0.25890  Biso   1.000  C
  C60      1.0000 0.85140  0.35530  0.25890  Biso   1.000  C
  C61      1.0000 0.14860  0.85530  0.75890  Biso   1.000  C
  C62      1.0000 0.85140  0.14470  0.75890  Biso   1.000  C
  C63      1.0000 0.14860  0.14470  0.75890  Biso   1.000  C
  C64      1.0000 0.85140  0.85530  0.75890  Biso   1.000  C
  C65      1.0000 0.68630  0.31680  0.81240  Biso   1.000  C
  C66      1.0000 0.31370  0.68320  0.81240  Biso   1.000  C
  C67      1.0000 0.68630  0.68320  0.81240  Biso   1.000  C
  C68      1.0000 0.31370  0.31680  0.81240  Biso   1.000  C
  C69      1.0000 0.68630  0.81680  0.31240  Biso   1.000  C
  C70      1.0000 0.31370  0.18320  0.31240  Biso   1.000  C
  C71      1.0000 0.68630  0.18320  0.31240  Biso   1.000  C
  C72      1.0000 0.31370  0.81680  0.31240  Biso   1.000  C
  C73      1.0000 0.18630  0.31680  0.31240  Biso   1.000  C
  C74      1.0000 0.81370  0.68320  0.31240  Biso   1.000  C
  C75      1.0000 0.18630  0.68320  0.31240  Biso   1.000  C
  C76      1.0000 0.81370  0.31680  0.31240  Biso   1.000  C
  C77      1.0000 0.18630  0.81680  0.81240  Biso   1.000  C
  C78      1.0000 0.81370  0.18320  0.81240  Biso   1.000  C
  C79      1.0000 0.18630  0.18320  0.81240  Biso   1.000  C
  C80      1.0000 0.81370  0.81680  0.81240  Biso   1.000  C
  H1       1.0000 0.73060  0.32940  0.80810  Biso   1.000  H
  H2       1.0000 0.26940  0.67060  0.80810  Biso   1.000  H
  H3       1.0000 0.73060  0.67060  0.80810  Biso   1.000  H
  H4       1.0000 0.26940  0.32940  0.80810  Biso   1.000  H
  H5       1.0000 0.73060  0.82940  0.30810  Biso   1.000  H
  H6       1.0000 0.26940  0.17060  0.30810  Biso   1.000  H
  H7       1.0000 0.73060  0.17060  0.30810  Biso   1.000  H
  H8       1.0000 0.26940  0.82940  0.30810  Biso   1.000  H
  H9       1.0000 0.23060  0.32940  0.30810  Biso   1.000  H
  H10      1.0000 0.76940  0.67060  0.30810  Biso   1.000  H
  H11      1.0000 0.23060  0.67060  0.30810  Biso   1.000  H
  H12      1.0000 0.76940  0.32940  0.30810  Biso   1.000  H
  H13      1.0000 0.23060  0.82940  0.80810  Biso   1.000  H
  H14      1.0000 0.76940  0.17060  0.80810  Biso   1.000  H
  H15      1.0000 0.23060  0.17060  0.80810  Biso   1.000  H
  H16      1.0000 0.76940  0.82940  0.80810  Biso   1.000  H
  C81      1.0000 0.70290  0.16060  0.97820  Biso   1.000  C
  C82      1.0000 0.29710  0.83940  0.97820  Biso   1.000  C
  C83      1.0000 0.70290  0.83940  0.97820  Biso   1.000  C
  C84      1.0000 0.29710  0.16060  0.97820  Biso   1.000  C
  C85      1.0000 0.70290  0.66060  0.47820  Biso   1.000  C
  C86      1.0000 0.29710  0.33940  0.47820  Biso   1.000  C
  C87      1.0000 0.70290  0.33940  0.47820  Biso   1.000  C
  C88      1.0000 0.29710  0.66060  0.47820  Biso   1.000  C
  C89      1.0000 0.20290  0.16060  0.47820  Biso   1.000  C
  C90      1.0000 0.79710  0.83940  0.47820  Biso   1.000  C
  C91      1.0000 0.20290  0.83940  0.47820  Biso   1.000  C
  C92      1.0000 0.79710  0.16060  0.47820  Biso   1.000  C
  C93      1.0000 0.20290  0.66060  0.97820  Biso   1.000  C
  C94      1.0000 0.79710  0.33940  0.97820  Biso   1.000  C
  C95      1.0000 0.20290  0.33940  0.97820  Biso   1.000  C
  C96      1.0000 0.79710  0.66060  0.97820  Biso   1.000  C
  C97      1.0000 0.63600  0.12960  0.97910  Biso   1.000  C
  C98      1.0000 0.36400  0.87040  0.97910  Biso   1.000  C
  C99      1.0000 0.63600  0.87040  0.97910  Biso   1.000  C
  C100     1.0000 0.36400  0.12960  0.97910  Biso   1.000  C
  C101     1.0000 0.63600  0.62960  0.47910  Biso   1.000  C
  C102     1.0000 0.36400  0.37040  0.47910  Biso   1.000  C
  C103     1.0000 0.63600  0.37040  0.47910  Biso   1.000  C
  C104     1.0000 0.36400  0.62960  0.47910  Biso   1.000  C
  C105     1.0000 0.13600  0.12960  0.47910  Biso   1.000  C
  C106     1.0000 0.86400  0.87040  0.47910  Biso   1.000  C
  C107     1.0000 0.13600  0.87040  0.47910  Biso   1.000  C
  C108     1.0000 0.86400  0.12960  0.47910  Biso   1.000  C
  C109     1.0000 0.13600  0.62960  0.97910  Biso   1.000  C
  C110     1.0000 0.86400  0.37040  0.97910  Biso   1.000  C
  C111     1.0000 0.13600  0.37040  0.97910  Biso   1.000  C
  C112     1.0000 0.86400  0.62960  0.97910  Biso   1.000  C
  H17      1.0000 0.62530  0.08740  0.01710  Biso   1.000  H
  H18      1.0000 0.37470  0.91260  0.01710  Biso   1.000  H
  H19      1.0000 0.62530  0.91260  0.01710  Biso   1.000  H
  H20      1.0000 0.37470  0.08740  0.01710  Biso   1.000  H
  H21      1.0000 0.62530  0.58740  0.51710  Biso   1.000  H
  H22      1.0000 0.37470  0.41260  0.51710  Biso   1.000  H
  H23      1.0000 0.62530  0.41260  0.51710  Biso   1.000  H
  H24      1.0000 0.37470  0.58740  0.51710  Biso   1.000  H
  H25      1.0000 0.12530  0.08740  0.51710  Biso   1.000  H
  H26      1.0000 0.87470  0.91260  0.51710  Biso   1.000  H
  H27      1.0000 0.12530  0.91260  0.51710  Biso   1.000  H
  H28      1.0000 0.87470  0.08740  0.51710  Biso   1.000  H
  H29      1.0000 0.12530  0.58740  0.01710  Biso   1.000  H
  H30      1.0000 0.87470  0.41260  0.01710  Biso   1.000  H
  H31      1.0000 0.12530  0.41260  0.01710  Biso   1.000  H
  H32      1.0000 0.87470  0.58740  0.01710  Biso   1.000  H
  C113     1.0000 0.55660  0.25070  0.82410  Biso   1.000  C
  C114     1.0000 0.44340  0.74930  0.82410  Biso   1.000  C
  C115     1.0000 0.55660  0.74930  0.82410  Biso   1.000  C
  C116     1.0000 0.44340  0.25070  0.82410  Biso   1.000  C
  C117     1.0000 0.55660  0.75070  0.32410  Biso   1.000  C
  C118     1.0000 0.44340  0.24930  0.32410  Biso   1.000  C
  C119     1.0000 0.55660  0.24930  0.32410  Biso   1.000  C
  C120     1.0000 0.44340  0.75070  0.32410  Biso   1.000  C
  C121     1.0000 0.05660  0.25070  0.32410  Biso   1.000  C
  C122     1.0000 0.94340  0.74930  0.32410  Biso   1.000  C
  C123     1.0000 0.05660  0.74930  0.32410  Biso   1.000  C
  C124     1.0000 0.94340  0.25070  0.32410  Biso   1.000  C
  C125     1.0000 0.05660  0.75070  0.82410  Biso   1.000  C
  C126     1.0000 0.94340  0.24930  0.82410  Biso   1.000  C
  C127     1.0000 0.05660  0.24930  0.82410  Biso   1.000  C
  C128     1.0000 0.94340  0.75070  0.82410  Biso   1.000  C
  H33      1.0000 0.51340  0.23240  0.82840  Biso   1.000  H
  H34      1.0000 0.48660  0.76760  0.82840  Biso   1.000  H
  H35      1.0000 0.51340  0.76760  0.82840  Biso   1.000  H
  H36      1.0000 0.48660  0.23240  0.82840  Biso   1.000  H
  H37      1.0000 0.51340  0.73240  0.32840  Biso   1.000  H
  H38      1.0000 0.48660  0.26760  0.32840  Biso   1.000  H
  H39      1.0000 0.51340  0.26760  0.32840  Biso   1.000  H
  H40      1.0000 0.48660  0.73240  0.32840  Biso   1.000  H
  H41      1.0000 0.01340  0.23240  0.32840  Biso   1.000  H
  H42      1.0000 0.98660  0.76760  0.32840  Biso   1.000  H
  H43      1.0000 0.01340  0.76760  0.32840  Biso   1.000  H
  H44      1.0000 0.98660  0.23240  0.32840  Biso   1.000  H
  H45      1.0000 0.01340  0.73240  0.82840  Biso   1.000  H
  H46      1.0000 0.98660  0.26760  0.82840  Biso   1.000  H
  H47      1.0000 0.01340  0.26760  0.82840  Biso   1.000  H
  H48      1.0000 0.98660  0.73240  0.82840  Biso   1.000  H
  C129     1.0000 0.65280  0.40260  0.68580  Biso   1.000  C
  C130     1.0000 0.34720  0.59740  0.68580  Biso   1.000  C
  C131     1.0000 0.65280  0.59740  0.68580  Biso   1.000  C
  C132     1.0000 0.34720  0.40260  0.68580  Biso   1.000  C
  C133     1.0000 0.65280  0.90260  0.18580  Biso   1.000  C
  C134     1.0000 0.34720  0.09740  0.18580  Biso   1.000  C
  C135     1.0000 0.65280  0.09740  0.18580  Biso   1.000  C
  C136     1.0000 0.34720  0.90260  0.18580  Biso   1.000  C
  C137     1.0000 0.15280  0.40260  0.18580  Biso   1.000  C
  C138     1.0000 0.84720  0.59740  0.18580  Biso   1.000  C
  C139     1.0000 0.15280  0.59740  0.18580  Biso   1.000  C
  C140     1.0000 0.84720  0.40260  0.18580  Biso   1.000  C
  C141     1.0000 0.15280  0.90260  0.68580  Biso   1.000  C
  C142     1.0000 0.84720  0.09740  0.68580  Biso   1.000  C
  C143     1.0000 0.15280  0.09740  0.68580  Biso   1.000  C
  C144     1.0000 0.84720  0.90260  0.68580  Biso   1.000  C
  H49      1.0000 0.69790  0.41310  0.67290  Biso   1.000  H
  H50      1.0000 0.30210  0.58690  0.67290  Biso   1.000  H
  H51      1.0000 0.69790  0.58690  0.67290  Biso   1.000  H
  H52      1.0000 0.30210  0.41310  0.67290  Biso   1.000  H
  H53      1.0000 0.69790  0.91310  0.17290  Biso   1.000  H
  H54      1.0000 0.30210  0.08690  0.17290  Biso   1.000  H
  H55      1.0000 0.69790  0.08690  0.17290  Biso   1.000  H
  H56      1.0000 0.30210  0.91310  0.17290  Biso   1.000  H
  H57      1.0000 0.19790  0.41310  0.17290  Biso   1.000  H
  H58      1.0000 0.80210  0.58690  0.17290  Biso   1.000  H
  H59      1.0000 0.19790  0.58690  0.17290  Biso   1.000  H
  H60      1.0000 0.80210  0.41310  0.17290  Biso   1.000  H
  H61      1.0000 0.19790  0.91310  0.67290  Biso   1.000  H
  H62      1.0000 0.80210  0.08690  0.67290  Biso   1.000  H
  H63      1.0000 0.19790  0.08690  0.67290  Biso   1.000  H
  H64      1.0000 0.80210  0.91310  0.67290  Biso   1.000  H
  H65      1.0000 0.63040  0.45700  0.69180  Biso   1.000  H
  H66      1.0000 0.36960  0.54300  0.69180  Biso   1.000  H
  H67      1.0000 0.63040  0.54300  0.69180  Biso   1.000  H
  H68      1.0000 0.36960  0.45700  0.69180  Biso   1.000  H
  H69      1.0000 0.63040  0.95700  0.19180  Biso   1.000  H
  H70      1.0000 0.36960  0.04300  0.19180  Biso   1.000  H
  H71      1.0000 0.63040  0.04300  0.19180  Biso   1.000  H
  H72      1.0000 0.36960  0.95700  0.19180  Biso   1.000  H
  H73      1.0000 0.13040  0.45700  0.19180  Biso   1.000  H
  H74      1.0000 0.86960  0.54300  0.19180  Biso   1.000  H
  H75      1.0000 0.13040  0.54300  0.19180  Biso   1.000  H
  H76      1.0000 0.86960  0.45700  0.19180  Biso   1.000  H
  H77      1.0000 0.13040  0.95700  0.69180  Biso   1.000  H
  H78      1.0000 0.86960  0.04300  0.69180  Biso   1.000  H
  H79      1.0000 0.13040  0.04300  0.69180  Biso   1.000  H
  H80      1.0000 0.86960  0.95700  0.69180  Biso   1.000  H
  H81      1.0000 0.63290  0.36990  0.64290  Biso   1.000  H
  H82      1.0000 0.36710  0.63010  0.64290  Biso   1.000  H
  H83      1.0000 0.63290  0.63010  0.64290  Biso   1.000  H
  H84      1.0000 0.36710  0.36990  0.64290  Biso   1.000  H
  H85      1.0000 0.63290  0.86990  0.14290  Biso   1.000  H
  H86      1.0000 0.36710  0.13010  0.14290  Biso   1.000  H
  H87      1.0000 0.63290  0.13010  0.14290  Biso   1.000  H
  H88      1.0000 0.36710  0.86990  0.14290  Biso   1.000  H
  H89      1.0000 0.13290  0.36990  0.14290  Biso   1.000  H
  H90      1.0000 0.86710  0.63010  0.14290  Biso   1.000  H
  H91      1.0000 0.13290  0.63010  0.14290  Biso   1.000  H
  H92      1.0000 0.86710  0.36990  0.14290  Biso   1.000  H
  H93      1.0000 0.13290  0.86990  0.64290  Biso   1.000  H
  H94      1.0000 0.86710  0.13010  0.64290  Biso   1.000  H
  H95      1.0000 0.13290  0.13010  0.64290  Biso   1.000  H
  H96      1.0000 0.86710  0.86990  0.64290  Biso   1.000  H
  O1       1.0000 0.73540  0.04700  0.06330  Biso   1.000  O
  O2       1.0000 0.26460  0.95300  0.06330  Biso   1.000  O
  O3       1.0000 0.73540  0.95300  0.06330  Biso   1.000  O
  O4       1.0000 0.26460  0.04700  0.06330  Biso   1.000  O
  O5       1.0000 0.73540  0.54700  0.56330  Biso   1.000  O
  O6       1.0000 0.26460  0.45300  0.56330  Biso   1.000  O
  O7       1.0000 0.73540  0.45300  0.56330  Biso   1.000  O
  O8       1.0000 0.26460  0.54700  0.56330  Biso   1.000  O
  O9       1.0000 0.23540  0.04700  0.56330  Biso   1.000  O
  O10      1.0000 0.76460  0.95300  0.56330  Biso   1.000  O
  O11      1.0000 0.23540  0.95300  0.56330  Biso   1.000  O
  O12      1.0000 0.76460  0.04700  0.56330  Biso   1.000  O
  O13      1.0000 0.23540  0.54700  0.06330  Biso   1.000  O
  O14      1.0000 0.76460  0.45300  0.06330  Biso   1.000  O
  O15      1.0000 0.23540  0.45300  0.06330  Biso   1.000  O
  O16      1.0000 0.76460  0.54700  0.06330  Biso   1.000  O
  C145     1.0000 0.74690  0.12060  0.03800  Biso   1.000  C
  C146     1.0000 0.25310  0.87940  0.03800  Biso   1.000  C
  C147     1.0000 0.74690  0.87940  0.03800  Biso   1.000  C
  C148     1.0000 0.25310  0.12060  0.03800  Biso   1.000  C
  C149     1.0000 0.74690  0.62060  0.53800  Biso   1.000  C
  C150     1.0000 0.25310  0.37940  0.53800  Biso   1.000  C
  C151     1.0000 0.74690  0.37940  0.53800  Biso   1.000  C
  C152     1.0000 0.25310  0.62060  0.53800  Biso   1.000  C
  C153     1.0000 0.24690  0.12060  0.53800  Biso   1.000  C
  C154     1.0000 0.75310  0.87940  0.53800  Biso   1.000  C
  C155     1.0000 0.24690  0.87940  0.53800  Biso   1.000  C
  C156     1.0000 0.75310  0.12060  0.53800  Biso   1.000  C
  C157     1.0000 0.24690  0.62060  0.03800  Biso   1.000  C
  C158     1.0000 0.75310  0.37940  0.03800  Biso   1.000  C
  C159     1.0000 0.24690  0.37940  0.03800  Biso   1.000  C
  C160     1.0000 0.75310  0.62060  0.03800  Biso   1.000  C
  C161     1.0000 0.86640  0.15920  0.11680  Biso   1.000  C
  C162     1.0000 0.13360  0.84080  0.11680  Biso   1.000  C
  C163     1.0000 0.86640  0.84080  0.11680  Biso   1.000  C
  C164     1.0000 0.13360  0.15920  0.11680  Biso   1.000  C
  C165     1.0000 0.86640  0.65920  0.61680  Biso   1.000  C
  C166     1.0000 0.13360  0.34080  0.61680  Biso   1.000  C
  C167     1.0000 0.86640  0.34080  0.61680  Biso   1.000  C
  C168     1.0000 0.13360  0.65920  0.61680  Biso   1.000  C
  C169     1.0000 0.36640  0.15920  0.61680  Biso   1.000  C
  C170     1.0000 0.63360  0.84080  0.61680  Biso   1.000  C
  C171     1.0000 0.36640  0.84080  0.61680  Biso   1.000  C
  C172     1.0000 0.63360  0.15920  0.61680  Biso   1.000  C
  C173     1.0000 0.36640  0.65920  0.11680  Biso   1.000  C
  C174     1.0000 0.63360  0.34080  0.11680  Biso   1.000  C
  C175     1.0000 0.36640  0.34080  0.11680  Biso   1.000  C
  C176     1.0000 0.63360  0.65920  0.11680  Biso   1.000  C
  H97      1.0000 0.85070  0.20230  0.15490  Biso   1.000  H
  H98      1.0000 0.14930  0.79770  0.15490  Biso   1.000  H
  H99      1.0000 0.85070  0.79770  0.15490  Biso   1.000  H
  H100     1.0000 0.14930  0.20230  0.15490  Biso   1.000  H
  H101     1.0000 0.85070  0.70230  0.65490  Biso   1.000  H
  H102     1.0000 0.14930  0.29770  0.65490  Biso   1.000  H
  H103     1.0000 0.85070  0.29770  0.65490  Biso   1.000  H
  H104     1.0000 0.14930  0.70230  0.65490  Biso   1.000  H
  H105     1.0000 0.35070  0.20230  0.65490  Biso   1.000  H
  H106     1.0000 0.64930  0.79770  0.65490  Biso   1.000  H
  H107     1.0000 0.35070  0.79770  0.65490  Biso   1.000  H
  H108     1.0000 0.64930  0.20230  0.65490  Biso   1.000  H
  H109     1.0000 0.35070  0.70230  0.15490  Biso   1.000  H
  H110     1.0000 0.64930  0.29770  0.15490  Biso   1.000  H
  H111     1.0000 0.35070  0.29770  0.15490  Biso   1.000  H
  H112     1.0000 0.64930  0.70230  0.15490  Biso   1.000  H
  H113     1.0000 0.86850  0.10420  0.14520  Biso   1.000  H
  H114     1.0000 0.13150  0.89580  0.14520  Biso   1.000  H
  H115     1.0000 0.86850  0.89580  0.14520  Biso   1.000  H
  H116     1.0000 0.13150  0.10420  0.14520  Biso   1.000  H
  H117     1.0000 0.86850  0.60420  0.64520  Biso   1.000  H
  H118     1.0000 0.13150  0.39580  0.64520  Biso   1.000  H
  H119     1.0000 0.86850  0.39580  0.64520  Biso   1.000  H
  H120     1.0000 0.13150  0.60420  0.64520  Biso   1.000  H
  H121     1.0000 0.36850  0.10420  0.64520  Biso   1.000  H
  H122     1.0000 0.63150  0.89580  0.64520  Biso   1.000  H
  H123     1.0000 0.36850  0.89580  0.64520  Biso   1.000  H
  H124     1.0000 0.63150  0.10420  0.64520  Biso   1.000  H
  H125     1.0000 0.36850  0.60420  0.14520  Biso   1.000  H
  H126     1.0000 0.63150  0.39580  0.14520  Biso   1.000  H
  H127     1.0000 0.36850  0.39580  0.14520  Biso   1.000  H
  H128     1.0000 0.63150  0.60420  0.14520  Biso   1.000  H
  C177     1.0000 0.93620  0.18400  0.08990  Biso   1.000  C
  C178     1.0000 0.06380  0.81600  0.08990  Biso   1.000  C
  C179     1.0000 0.93620  0.81600  0.08990  Biso   1.000  C
  C180     1.0000 0.06380  0.18400  0.08990  Biso   1.000  C
  C181     1.0000 0.93620  0.68400  0.58990  Biso   1.000  C
  C182     1.0000 0.06380  0.31600  0.58990  Biso   1.000  C
  C183     1.0000 0.93620  0.31600  0.58990  Biso   1.000  C
  C184     1.0000 0.06380  0.68400  0.58990  Biso   1.000  C
  C185     1.0000 0.43620  0.18400  0.58990  Biso   1.000  C
  C186     1.0000 0.56380  0.81600  0.58990  Biso   1.000  C
  C187     1.0000 0.43620  0.81600  0.58990  Biso   1.000  C
  C188     1.0000 0.56380  0.18400  0.58990  Biso   1.000  C
  C189     1.0000 0.43620  0.68400  0.08990  Biso   1.000  C
  C190     1.0000 0.56380  0.31600  0.08990  Biso   1.000  C
  C191     1.0000 0.43620  0.31600  0.08990  Biso   1.000  C
  C192     1.0000 0.56380  0.68400  0.08990  Biso   1.000  C
  H129     1.0000 0.96750  0.14830  0.11720  Biso   1.000  H
  H130     1.0000 0.03250  0.85170  0.11720  Biso   1.000  H
  H131     1.0000 0.96750  0.85170  0.11720  Biso   1.000  H
  H132     1.0000 0.03250  0.14830  0.11720  Biso   1.000  H
  H133     1.0000 0.96750  0.64830  0.61720  Biso   1.000  H
  H134     1.0000 0.03250  0.35170  0.61720  Biso   1.000  H
  H135     1.0000 0.96750  0.35170  0.61720  Biso   1.000  H
  H136     1.0000 0.03250  0.64830  0.61720  Biso   1.000  H
  H137     1.0000 0.46750  0.14830  0.61720  Biso   1.000  H
  H138     1.0000 0.53250  0.85170  0.61720  Biso   1.000  H
  H139     1.0000 0.46750  0.85170  0.61720  Biso   1.000  H
  H140     1.0000 0.53250  0.14830  0.61720  Biso   1.000  H
  H141     1.0000 0.46750  0.64830  0.11720  Biso   1.000  H
  H142     1.0000 0.53250  0.35170  0.11720  Biso   1.000  H
  H143     1.0000 0.46750  0.35170  0.11720  Biso   1.000  H
  H144     1.0000 0.53250  0.64830  0.11720  Biso   1.000  H
  H145     1.0000 0.94430  0.24400  0.10340  Biso   1.000  H
  H146     1.0000 0.05570  0.75600  0.10340  Biso   1.000  H
  H147     1.0000 0.94430  0.75600  0.10340  Biso   1.000  H
  H148     1.0000 0.05570  0.24400  0.10340  Biso   1.000  H
  H149     1.0000 0.94430  0.74400  0.60340  Biso   1.000  H
  H150     1.0000 0.05570  0.25600  0.60340  Biso   1.000  H
  H151     1.0000 0.94430  0.25600  0.60340  Biso   1.000  H
  H152     1.0000 0.05570  0.74400  0.60340  Biso   1.000  H
  H153     1.0000 0.44430  0.24400  0.60340  Biso   1.000  H
  H154     1.0000 0.55570  0.75600  0.60340  Biso   1.000  H
  H155     1.0000 0.44430  0.75600  0.60340  Biso   1.000  H
  H156     1.0000 0.55570  0.24400  0.60340  Biso   1.000  H
  H157     1.0000 0.44430  0.74400  0.10340  Biso   1.000  H
  H158     1.0000 0.55570  0.25600  0.10340  Biso   1.000  H
  H159     1.0000 0.44430  0.25600  0.10340  Biso   1.000  H
  H160     1.0000 0.55570  0.74400  0.10340  Biso   1.000  H
  H161     1.0000 0.94030  0.17670  0.03250  Biso   1.000  H
  H162     1.0000 0.05970  0.82330  0.03250  Biso   1.000  H
  H163     1.0000 0.94030  0.82330  0.03250  Biso   1.000  H
  H164     1.0000 0.05970  0.17670  0.03250  Biso   1.000  H
  H165     1.0000 0.94030  0.67670  0.53250  Biso   1.000  H
  H166     1.0000 0.05970  0.32330  0.53250  Biso   1.000  H
  H167     1.0000 0.94030  0.32330  0.53250  Biso   1.000  H
  H168     1.0000 0.05970  0.67670  0.53250  Biso   1.000  H
  H169     1.0000 0.44030  0.17670  0.53250  Biso   1.000  H
  H170     1.0000 0.55970  0.82330  0.53250  Biso   1.000  H
  H171     1.0000 0.44030  0.82330  0.53250  Biso   1.000  H
  H172     1.0000 0.55970  0.17670  0.53250  Biso   1.000  H
  H173     1.0000 0.44030  0.67670  0.03250  Biso   1.000  H
  H174     1.0000 0.55970  0.32330  0.03250  Biso   1.000  H
  H175     1.0000 0.44030  0.32330  0.03250  Biso   1.000  H
  H176     1.0000 0.55970  0.67670  0.03250  Biso   1.000  H
  O17      1.0000 0.81150  0.15030  0.04110  Biso   1.000  O
  O18      1.0000 0.18850  0.84970  0.04110  Biso   1.000  O
  O19      1.0000 0.81150  0.84970  0.04110  Biso   1.000  O
  O20      1.0000 0.18850  0.15030  0.04110  Biso   1.000  O
  O21      1.0000 0.81150  0.65030  0.54110  Biso   1.000  O
  O22      1.0000 0.18850  0.34970  0.54110  Biso   1.000  O
  O23      1.0000 0.81150  0.34970  0.54110  Biso   1.000  O
  O24      1.0000 0.18850  0.65030  0.54110  Biso   1.000  O
  O25      1.0000 0.31150  0.15030  0.54110  Biso   1.000  O
  O26      1.0000 0.68850  0.84970  0.54110  Biso   1.000  O
  O27      1.0000 0.31150  0.84970  0.54110  Biso   1.000  O
  O28      1.0000 0.68850  0.15030  0.54110  Biso   1.000  O
  O29      1.0000 0.31150  0.65030  0.04110  Biso   1.000  O
  O30      1.0000 0.68850  0.34970  0.04110  Biso   1.000  O
  O31      1.0000 0.31150  0.34970  0.04110  Biso   1.000  O
  O32      1.0000 0.68850  0.65030  0.04110  Biso   1.000  O
  O33      1.0000 0.75330  0.45100  0.82640  Biso   1.000  O
  O34      1.0000 0.24670  0.54900  0.82640  Biso   1.000  O
  O35      1.0000 0.75330  0.54900  0.82640  Biso   1.000  O
  O36      1.0000 0.24670  0.45100  0.82640  Biso   1.000  O
  O37      1.0000 0.75330  0.95100  0.32640  Biso   1.000  O
  O38      1.0000 0.24670  0.04900  0.32640  Biso   1.000  O
  O39      1.0000 0.75330  0.04900  0.32640  Biso   1.000  O
  O40      1.0000 0.24670  0.95100  0.32640  Biso   1.000  O
  O41      1.0000 0.25330  0.45100  0.32640  Biso   1.000  O
  O42      1.0000 0.74670  0.54900  0.32640  Biso   1.000  O
  O43      1.0000 0.25330  0.54900  0.32640  Biso   1.000  O
  O44      1.0000 0.74670  0.45100  0.32640  Biso   1.000  O
  O45      1.0000 0.25330  0.95100  0.82640  Biso   1.000  O
  O46      1.0000 0.74670  0.04900  0.82640  Biso   1.000  O
  O47      1.0000 0.25330  0.04900  0.82640  Biso   1.000  O
  O48      1.0000 0.74670  0.95100  0.82640  Biso   1.000  O
  C193     1.0000 0.57490  0.31110  0.76050  Biso   1.000  C
  C194     1.0000 0.42510  0.68890  0.76050  Biso   1.000  C
  C195     1.0000 0.57490  0.68890  0.76050  Biso   1.000  C
  C196     1.0000 0.42510  0.31110  0.76050  Biso   1.000  C
  C197     1.0000 0.57490  0.81110  0.26050  Biso   1.000  C
  C198     1.0000 0.42510  0.18890  0.26050  Biso   1.000  C
  C199     1.0000 0.57490  0.18890  0.26050  Biso   1.000  C
  C200     1.0000 0.42510  0.81110  0.26050  Biso   1.000  C
  C201     1.0000 0.07490  0.31110  0.26050  Biso   1.000  C
  C202     1.0000 0.92510  0.68890  0.26050  Biso   1.000  C
  C203     1.0000 0.07490  0.68890  0.26050  Biso   1.000  C
  C204     1.0000 0.92510  0.31110  0.26050  Biso   1.000  C
  C205     1.0000 0.07490  0.81110  0.76050  Biso   1.000  C
  C206     1.0000 0.92510  0.18890  0.76050  Biso   1.000  C
  C207     1.0000 0.07490  0.18890  0.76050  Biso   1.000  C
  C208     1.0000 0.92510  0.81110  0.76050  Biso   1.000  C
  H177     1.0000 0.54490  0.32500  0.72030  Biso   1.000  H
  H178     1.0000 0.45510  0.67500  0.72030  Biso   1.000  H
  H179     1.0000 0.54490  0.67500  0.72030  Biso   1.000  H
  H180     1.0000 0.45510  0.32500  0.72030  Biso   1.000  H
  H181     1.0000 0.54490  0.82500  0.22030  Biso   1.000  H
  H182     1.0000 0.45510  0.17500  0.22030  Biso   1.000  H
  H183     1.0000 0.54490  0.17500  0.22030  Biso   1.000  H
  H184     1.0000 0.45510  0.82500  0.22030  Biso   1.000  H
  H185     1.0000 0.04490  0.32500  0.22030  Biso   1.000  H
  H186     1.0000 0.95510  0.67500  0.22030  Biso   1.000  H
  H187     1.0000 0.04490  0.67500  0.22030  Biso   1.000  H
  H188     1.0000 0.95510  0.32500  0.22030  Biso   1.000  H
  H189     1.0000 0.04490  0.82500  0.72030  Biso   1.000  H
  H190     1.0000 0.95510  0.17500  0.72030  Biso   1.000  H
  H191     1.0000 0.04490  0.17500  0.72030  Biso   1.000  H
  H192     1.0000 0.95510  0.82500  0.72030  Biso   1.000  H
