data_image0
_cell_length_a       8.9304
_cell_length_b       21.3533
_cell_length_c       7.5895
_cell_angle_alpha    90
_cell_angle_beta     90
_cell_angle_gamma    90

_symmetry_space_group_name_H-M    "P 1"
_symmetry_int_tables_number       1

loop_
  _symmetry_equiv_pos_as_xyz
  'x, y, z'

loop_
  _atom_site_label
  _atom_site_occupancy
  _atom_site_fract_x
  _atom_site_fract_y
  _atom_site_fract_z
  _atom_site_thermal_displace_type
  _atom_site_B_iso_or_equiv
  _atom_site_type_symbol
  Cu1      1.0000 0.75590  0.25000  0.62891  Biso   1.000  Cu
  Cu2      1.0000 0.25590  0.25000  0.87109  Biso   1.000  Cu
  Cu3      1.0000 0.74410  0.75000  0.12891  Biso   1.000  Cu
  Cu4      1.0000 0.24410  0.75000  0.37109  Biso   1.000  Cu
  S1       1.0000 0.76638  0.25000  0.93515  Biso   1.000  S
  S2       1.0000 0.26638  0.25000  0.56485  Biso   1.000  S
  S3       1.0000 0.73362  0.75000  0.43515  Biso   1.000  S
  S4       1.0000 0.23362  0.75000  0.06485  Biso   1.000  S
  C1       1.0000 0.54620  0.36175  0.62680  Biso   1.000  C
  C2       1.0000 0.04620  0.36175  0.87320  Biso   1.000  C
  C3       1.0000 0.54620  0.13825  0.62680  Biso   1.000  C
  C4       1.0000 0.95380  0.86175  0.12680  Biso   1.000  C
  C5       1.0000 0.45380  0.63825  0.37320  Biso   1.000  C
  C6       1.0000 0.95380  0.63825  0.12680  Biso   1.000  C
  C7       1.0000 0.45380  0.86175  0.37320  Biso   1.000  C
  C8       1.0000 0.04620  0.13825  0.87320  Biso   1.000  C
  H1       1.0000 0.54560  0.35590  0.74820  Biso   1.000  H
  H2       1.0000 0.04560  0.35590  0.75180  Biso   1.000  H
  H3       1.0000 0.54560  0.14410  0.74820  Biso   1.000  H
  H4       1.0000 0.95440  0.85590  0.24820  Biso   1.000  H
  H5       1.0000 0.45440  0.64410  0.25180  Biso   1.000  H
  H6       1.0000 0.95440  0.64410  0.24820  Biso   1.000  H
  H7       1.0000 0.45440  0.85590  0.25180  Biso   1.000  H
  H8       1.0000 0.04560  0.14410  0.75180  Biso   1.000  H
  C9       1.0000 0.45210  0.40667  0.55600  Biso   1.000  C
  C10      1.0000 0.95210  0.40667  0.94400  Biso   1.000  C
  C11      1.0000 0.45210  0.09333  0.55600  Biso   1.000  C
  C12      1.0000 0.04790  0.90667  0.05600  Biso   1.000  C
  C13      1.0000 0.54790  0.59333  0.44400  Biso   1.000  C
  C14      1.0000 0.04790  0.59333  0.05600  Biso   1.000  C
  C15      1.0000 0.54790  0.90667  0.44400  Biso   1.000  C
  C16      1.0000 0.95210  0.09333  0.94400  Biso   1.000  C
  C17      1.0000 0.45070  0.41488  0.37530  Biso   1.000  C
  C18      1.0000 0.95070  0.41488  0.12470  Biso   1.000  C
  C19      1.0000 0.45070  0.08512  0.37530  Biso   1.000  C
  C20      1.0000 0.04930  0.91488  0.87530  Biso   1.000  C
  C21      1.0000 0.54930  0.58512  0.62470  Biso   1.000  C
  C22      1.0000 0.04930  0.58512  0.87530  Biso   1.000  C
  C23      1.0000 0.54930  0.91488  0.62470  Biso   1.000  C
  C24      1.0000 0.95070  0.08512  0.12470  Biso   1.000  C
  H9       1.0000 0.38600  0.44350  0.32290  Biso   1.000  H
  H10      1.0000 0.88600  0.44350  0.17710  Biso   1.000  H
  H11      1.0000 0.38600  0.05650  0.32290  Biso   1.000  H
  H12      1.0000 0.11400  0.94350  0.82290  Biso   1.000  H
  H13      1.0000 0.61400  0.55650  0.67710  Biso   1.000  H
  H14      1.0000 0.11400  0.55650  0.82290  Biso   1.000  H
  H15      1.0000 0.61400  0.94350  0.67710  Biso   1.000  H
  H16      1.0000 0.88600  0.05650  0.17710  Biso   1.000  H
  C25      1.0000 0.54800  0.37949  0.27440  Biso   1.000  C
  C26      1.0000 0.04800  0.37949  0.22560  Biso   1.000  C
  C27      1.0000 0.54800  0.12051  0.27440  Biso   1.000  C
  C28      1.0000 0.95200  0.87949  0.77440  Biso   1.000  C
  C29      1.0000 0.45200  0.62051  0.72560  Biso   1.000  C
  C30      1.0000 0.95200  0.62051  0.77440  Biso   1.000  C
  C31      1.0000 0.45200  0.87949  0.72560  Biso   1.000  C
  C32      1.0000 0.04800  0.12051  0.22560  Biso   1.000  C
  H17      1.0000 0.55170  0.38480  0.15290  Biso   1.000  H
  H18      1.0000 0.05170  0.38480  0.34710  Biso   1.000  H
  H19      1.0000 0.55170  0.11520  0.15290  Biso   1.000  H
  H20      1.0000 0.94830  0.88480  0.65290  Biso   1.000  H
  H21      1.0000 0.44830  0.61520  0.84710  Biso   1.000  H
  H22      1.0000 0.94830  0.61520  0.65290  Biso   1.000  H
  H23      1.0000 0.44830  0.88480  0.84710  Biso   1.000  H
  H24      1.0000 0.05170  0.11520  0.34710  Biso   1.000  H
  C33      1.0000 0.63900  0.33648  0.35520  Biso   1.000  C
  C34      1.0000 0.13900  0.33648  0.14480  Biso   1.000  C
  C35      1.0000 0.63900  0.16352  0.35520  Biso   1.000  C
  C36      1.0000 0.86100  0.83648  0.85520  Biso   1.000  C
  C37      1.0000 0.36100  0.66352  0.64480  Biso   1.000  C
  C38      1.0000 0.86100  0.66352  0.85520  Biso   1.000  C
  C39      1.0000 0.36100  0.83648  0.64480  Biso   1.000  C
  C40      1.0000 0.13900  0.16352  0.14480  Biso   1.000  C
  H25      1.0000 0.70450  0.31320  0.28600  Biso   1.000  H
  H26      1.0000 0.20450  0.31320  0.21400  Biso   1.000  H
  H27      1.0000 0.70450  0.18680  0.28600  Biso   1.000  H
  H28      1.0000 0.79550  0.81320  0.78600  Biso   1.000  H
  H29      1.0000 0.29550  0.68680  0.71400  Biso   1.000  H
  H30      1.0000 0.79550  0.68680  0.78600  Biso   1.000  H
  H31      1.0000 0.29550  0.81320  0.71400  Biso   1.000  H
  H32      1.0000 0.20450  0.18680  0.21400  Biso   1.000  H
  C41      1.0000 0.34850  0.44396  0.66960  Biso   1.000  C
  C42      1.0000 0.84850  0.44396  0.83040  Biso   1.000  C
  C43      1.0000 0.34850  0.05604  0.66960  Biso   1.000  C
  C44      1.0000 0.15150  0.94396  0.16960  Biso   1.000  C
  C45      1.0000 0.65150  0.55604  0.33040  Biso   1.000  C
  C46      1.0000 0.15150  0.55604  0.16960  Biso   1.000  C
  C47      1.0000 0.65150  0.94396  0.33040  Biso   1.000  C
  C48      1.0000 0.84850  0.05604  0.83040  Biso   1.000  C
  N1       1.0000 0.63780  0.32644  0.52950  Biso   1.000  N
  N2       1.0000 0.13780  0.32644  0.97050  Biso   1.000  N
  N3       1.0000 0.63780  0.17356  0.52950  Biso   1.000  N
  N4       1.0000 0.86220  0.82644  0.02950  Biso   1.000  N
  N5       1.0000 0.36220  0.67356  0.47050  Biso   1.000  N
  N6       1.0000 0.86220  0.67356  0.02950  Biso   1.000  N
  N7       1.0000 0.36220  0.82644  0.47050  Biso   1.000  N
  N8       1.0000 0.13780  0.17356  0.97050  Biso   1.000  N
  N9       1.0000 0.39390  0.45502  0.83250  Biso   1.000  N
  N10      1.0000 0.89390  0.45502  0.66750  Biso   1.000  N
  N11      1.0000 0.39390  0.04498  0.83250  Biso   1.000  N
  N12      1.0000 0.10610  0.95502  0.33250  Biso   1.000  N
  N13      1.0000 0.60610  0.54498  0.16750  Biso   1.000  N
  N14      1.0000 0.10610  0.54498  0.33250  Biso   1.000  N
  N15      1.0000 0.60610  0.95502  0.16750  Biso   1.000  N
  N16      1.0000 0.89390  0.04498  0.66750  Biso   1.000  N
  H33      1.0000 0.48500  0.44830  0.86430  Biso   1.000  H
  H34      1.0000 0.98500  0.44830  0.63570  Biso   1.000  H
  H35      1.0000 0.48500  0.05170  0.86430  Biso   1.000  H
  H36      1.0000 0.01500  0.94830  0.36430  Biso   1.000  H
  H37      1.0000 0.51500  0.55170  0.13570  Biso   1.000  H
  H38      1.0000 0.01500  0.55170  0.36430  Biso   1.000  H
  H39      1.0000 0.51500  0.94830  0.13570  Biso   1.000  H
  H40      1.0000 0.98500  0.05170  0.63570  Biso   1.000  H
  H41      1.0000 0.34160  0.47790  0.90230  Biso   1.000  H
  H42      1.0000 0.84160  0.47790  0.59770  Biso   1.000  H
  H43      1.0000 0.34160  0.02210  0.90230  Biso   1.000  H
  H44      1.0000 0.15840  0.97790  0.40230  Biso   1.000  H
  H45      1.0000 0.65840  0.52210  0.09770  Biso   1.000  H
  H46      1.0000 0.15840  0.52210  0.40230  Biso   1.000  H
  H47      1.0000 0.65840  0.97790  0.09770  Biso   1.000  H
  H48      1.0000 0.84160  0.02210  0.59770  Biso   1.000  H
  O1       1.0000 0.22639  0.46248  0.61200  Biso   1.000  O
  O2       1.0000 0.72639  0.46248  0.88800  Biso   1.000  O
  O3       1.0000 0.22639  0.03752  0.61200  Biso   1.000  O
  O4       1.0000 0.27361  0.96248  0.11200  Biso   1.000  O
  O5       1.0000 0.77361  0.53752  0.38800  Biso   1.000  O
  O6       1.0000 0.27361  0.53752  0.11200  Biso   1.000  O
  O7       1.0000 0.77361  0.96248  0.38800  Biso   1.000  O
  O8       1.0000 0.72639  0.03752  0.88800  Biso   1.000  O
  C49      1.0000 0.58380  0.25000  0.96120  Biso   1.000  C
  C50      1.0000 0.08380  0.25000  0.53880  Biso   1.000  C
  C51      1.0000 0.91620  0.75000  0.46120  Biso   1.000  C
  C52      1.0000 0.41620  0.75000  0.03880  Biso   1.000  C
  N17      1.0000 0.45600  0.25000  0.97820  Biso   1.000  N
  N18      1.0000 0.95600  0.25000  0.52180  Biso   1.000  N
  N19      1.0000 0.04400  0.75000  0.47820  Biso   1.000  N
  N20      1.0000 0.54400  0.75000  0.02180  Biso   1.000  N
