data_image0
_cell_length_a       26.8861
_cell_length_b       14.6844
_cell_length_c       17.1846
_cell_angle_alpha    90
_cell_angle_beta     117.672
_cell_angle_gamma    90

_symmetry_space_group_name_H-M    "P 1"
_symmetry_int_tables_number       1

loop_
  _symmetry_equiv_pos_as_xyz
  'x, y, z'

loop_
  _atom_site_label
  _atom_site_occupancy
  _atom_site_fract_x
  _atom_site_fract_y
  _atom_site_fract_z
  _atom_site_thermal_displace_type
  _atom_site_B_iso_or_equiv
  _atom_site_type_symbol
  B1       1.0000 0.09165  0.92280  0.14130  Biso   1.000  B
  B2       1.0000 0.59165  0.42280  0.14130  Biso   1.000  B
  B3       1.0000 0.90835  0.92280  0.35870  Biso   1.000  B
  B4       1.0000 0.40835  0.42280  0.35870  Biso   1.000  B
  B5       1.0000 0.90835  0.07720  0.85870  Biso   1.000  B
  B6       1.0000 0.40835  0.57720  0.85870  Biso   1.000  B
  B7       1.0000 0.09165  0.07720  0.64130  Biso   1.000  B
  B8       1.0000 0.59165  0.57720  0.64130  Biso   1.000  B
  H1       1.0000 0.07180  0.98120  0.12580  Biso   1.000  H
  H2       1.0000 0.57180  0.48120  0.12580  Biso   1.000  H
  H3       1.0000 0.92820  0.98120  0.37420  Biso   1.000  H
  H4       1.0000 0.42820  0.48120  0.37420  Biso   1.000  H
  H5       1.0000 0.92820  0.01880  0.87420  Biso   1.000  H
  H6       1.0000 0.42820  0.51880  0.87420  Biso   1.000  H
  H7       1.0000 0.07180  0.01880  0.62580  Biso   1.000  H
  H8       1.0000 0.57180  0.51880  0.62580  Biso   1.000  H
  C1       1.0000 0.02632  0.87890  0.98110  Biso   1.000  C
  C2       1.0000 0.52632  0.37890  0.98110  Biso   1.000  C
  C3       1.0000 0.97368  0.87890  0.51890  Biso   1.000  C
  C4       1.0000 0.47368  0.37890  0.51890  Biso   1.000  C
  C5       1.0000 0.97368  0.12110  0.01890  Biso   1.000  C
  C6       1.0000 0.47368  0.62110  0.01890  Biso   1.000  C
  C7       1.0000 0.02632  0.12110  0.48110  Biso   1.000  C
  C8       1.0000 0.52632  0.62110  0.48110  Biso   1.000  C
  H9       1.0000 0.00710  0.93390  0.96370  Biso   1.000  H
  H10      1.0000 0.50710  0.43390  0.96370  Biso   1.000  H
  H11      1.0000 0.99290  0.93390  0.53630  Biso   1.000  H
  H12      1.0000 0.49290  0.43390  0.53630  Biso   1.000  H
  H13      1.0000 0.99290  0.06610  0.03630  Biso   1.000  H
  H14      1.0000 0.49290  0.56610  0.03630  Biso   1.000  H
  H15      1.0000 0.00710  0.06610  0.46370  Biso   1.000  H
  H16      1.0000 0.50710  0.56610  0.46370  Biso   1.000  H
  C9       1.0000 0.01680  0.80380  0.92850  Biso   1.000  C
  C10      1.0000 0.51680  0.30380  0.92850  Biso   1.000  C
  C11      1.0000 0.98320  0.80380  0.57150  Biso   1.000  C
  C12      1.0000 0.48320  0.30380  0.57150  Biso   1.000  C
  C13      1.0000 0.98320  0.19620  0.07150  Biso   1.000  C
  C14      1.0000 0.48320  0.69620  0.07150  Biso   1.000  C
  C15      1.0000 0.01680  0.19620  0.42850  Biso   1.000  C
  C16      1.0000 0.51680  0.69620  0.42850  Biso   1.000  C
  C17      1.0000 0.05596  0.73850  0.98220  Biso   1.000  C
  C18      1.0000 0.55596  0.23850  0.98220  Biso   1.000  C
  C19      1.0000 0.94404  0.73850  0.51780  Biso   1.000  C
  C20      1.0000 0.44404  0.23850  0.51780  Biso   1.000  C
  C21      1.0000 0.94404  0.26150  0.01780  Biso   1.000  C
  C22      1.0000 0.44404  0.76150  0.01780  Biso   1.000  C
  C23      1.0000 0.05596  0.26150  0.48220  Biso   1.000  C
  C24      1.0000 0.55596  0.76150  0.48220  Biso   1.000  C
  C25      1.0000 0.97377  0.80110  0.83970  Biso   1.000  C
  C26      1.0000 0.47377  0.30110  0.83970  Biso   1.000  C
  C27      1.0000 0.02623  0.80110  0.66030  Biso   1.000  C
  C28      1.0000 0.52623  0.30110  0.66030  Biso   1.000  C
  C29      1.0000 0.02623  0.19890  0.16030  Biso   1.000  C
  C30      1.0000 0.52623  0.69890  0.16030  Biso   1.000  C
  C31      1.0000 0.97377  0.19890  0.33970  Biso   1.000  C
  C32      1.0000 0.47377  0.69890  0.33970  Biso   1.000  C
  C33      1.0000 0.06675  0.64270  0.96290  Biso   1.000  C
  C34      1.0000 0.56675  0.14270  0.96290  Biso   1.000  C
  C35      1.0000 0.93325  0.64270  0.53710  Biso   1.000  C
  C36      1.0000 0.43325  0.14270  0.53710  Biso   1.000  C
  C37      1.0000 0.93325  0.35730  0.03710  Biso   1.000  C
  C38      1.0000 0.43325  0.85730  0.03710  Biso   1.000  C
  C39      1.0000 0.06675  0.35730  0.46290  Biso   1.000  C
  C40      1.0000 0.56675  0.85730  0.46290  Biso   1.000  C
  C41      1.0000 0.02440  0.61420  0.87100  Biso   1.000  C
  C42      1.0000 0.52440  0.11420  0.87100  Biso   1.000  C
  C43      1.0000 0.97560  0.61420  0.62900  Biso   1.000  C
  C44      1.0000 0.47560  0.11420  0.62900  Biso   1.000  C
  C45      1.0000 0.97560  0.38580  0.12900  Biso   1.000  C
  C46      1.0000 0.47560  0.88580  0.12900  Biso   1.000  C
  C47      1.0000 0.02440  0.38580  0.37100  Biso   1.000  C
  C48      1.0000 0.52440  0.88580  0.37100  Biso   1.000  C
  H17      1.0000 0.98730  0.61700  0.86570  Biso   1.000  H
  H18      1.0000 0.48730  0.11700  0.86570  Biso   1.000  H
  H19      1.0000 0.01270  0.61700  0.63430  Biso   1.000  H
  H20      1.0000 0.51270  0.11700  0.63430  Biso   1.000  H
  H21      1.0000 0.01270  0.38300  0.13430  Biso   1.000  H
  H22      1.0000 0.51270  0.88300  0.13430  Biso   1.000  H
  H23      1.0000 0.98730  0.38300  0.36570  Biso   1.000  H
  H24      1.0000 0.48730  0.88300  0.36570  Biso   1.000  H
  H25      1.0000 0.03230  0.55310  0.86020  Biso   1.000  H
  H26      1.0000 0.53230  0.05310  0.86020  Biso   1.000  H
  H27      1.0000 0.96770  0.55310  0.63980  Biso   1.000  H
  H28      1.0000 0.46770  0.05310  0.63980  Biso   1.000  H
  H29      1.0000 0.96770  0.44690  0.13980  Biso   1.000  H
  H30      1.0000 0.46770  0.94690  0.13980  Biso   1.000  H
  H31      1.0000 0.03230  0.44690  0.36020  Biso   1.000  H
  H32      1.0000 0.53230  0.94690  0.36020  Biso   1.000  H
  H33      1.0000 0.02680  0.65460  0.82900  Biso   1.000  H
  H34      1.0000 0.52680  0.15460  0.82900  Biso   1.000  H
  H35      1.0000 0.97320  0.65460  0.67100  Biso   1.000  H
  H36      1.0000 0.47320  0.15460  0.67100  Biso   1.000  H
  H37      1.0000 0.97320  0.34540  0.17100  Biso   1.000  H
  H38      1.0000 0.47320  0.84540  0.17100  Biso   1.000  H
  H39      1.0000 0.02680  0.34540  0.32900  Biso   1.000  H
  H40      1.0000 0.52680  0.84540  0.32900  Biso   1.000  H
  C49      1.0000 0.12592  0.63710  0.97310  Biso   1.000  C
  C50      1.0000 0.62592  0.13710  0.97310  Biso   1.000  C
  C51      1.0000 0.87408  0.63710  0.52690  Biso   1.000  C
  C52      1.0000 0.37408  0.13710  0.52690  Biso   1.000  C
  C53      1.0000 0.87408  0.36290  0.02690  Biso   1.000  C
  C54      1.0000 0.37408  0.86290  0.02690  Biso   1.000  C
  C55      1.0000 0.12592  0.36290  0.47310  Biso   1.000  C
  C56      1.0000 0.62592  0.86290  0.47310  Biso   1.000  C
  H41      1.0000 0.12870  0.67520  0.92990  Biso   1.000  H
  H42      1.0000 0.62870  0.17520  0.92990  Biso   1.000  H
  H43      1.0000 0.87130  0.67520  0.57010  Biso   1.000  H
  H44      1.0000 0.37130  0.17520  0.57010  Biso   1.000  H
  H45      1.0000 0.87130  0.32480  0.07010  Biso   1.000  H
  H46      1.0000 0.37130  0.82480  0.07010  Biso   1.000  H
  H47      1.0000 0.12870  0.32480  0.42990  Biso   1.000  H
  H48      1.0000 0.62870  0.82480  0.42990  Biso   1.000  H
  H49      1.0000 0.13420  0.57530  0.96500  Biso   1.000  H
  H50      1.0000 0.63420  0.07530  0.96500  Biso   1.000  H
  H51      1.0000 0.86580  0.57530  0.53500  Biso   1.000  H
  H52      1.0000 0.36580  0.07530  0.53500  Biso   1.000  H
  H53      1.0000 0.86580  0.42470  0.03500  Biso   1.000  H
  H54      1.0000 0.36580  0.92470  0.03500  Biso   1.000  H
  H55      1.0000 0.13420  0.42470  0.46500  Biso   1.000  H
  H56      1.0000 0.63420  0.92470  0.46500  Biso   1.000  H
  H57      1.0000 0.15230  0.65740  0.03080  Biso   1.000  H
  H58      1.0000 0.65230  0.15740  0.03080  Biso   1.000  H
  H59      1.0000 0.84770  0.65740  0.46920  Biso   1.000  H
  H60      1.0000 0.34770  0.15740  0.46920  Biso   1.000  H
  H61      1.0000 0.84770  0.34260  0.96920  Biso   1.000  H
  H62      1.0000 0.34770  0.84260  0.96920  Biso   1.000  H
  H63      1.0000 0.15230  0.34260  0.53080  Biso   1.000  H
  H64      1.0000 0.65230  0.84260  0.53080  Biso   1.000  H
  C57      1.0000 0.06217  0.57820  0.02920  Biso   1.000  C
  C58      1.0000 0.56217  0.07820  0.02920  Biso   1.000  C
  C59      1.0000 0.93783  0.57820  0.47080  Biso   1.000  C
  C60      1.0000 0.43783  0.07820  0.47080  Biso   1.000  C
  C61      1.0000 0.93783  0.42180  0.97080  Biso   1.000  C
  C62      1.0000 0.43783  0.92180  0.97080  Biso   1.000  C
  C63      1.0000 0.06217  0.42180  0.52920  Biso   1.000  C
  C64      1.0000 0.56217  0.92180  0.52920  Biso   1.000  C
  H65      1.0000 0.08910  0.59540  0.08760  Biso   1.000  H
  H66      1.0000 0.58910  0.09540  0.08760  Biso   1.000  H
  H67      1.0000 0.91090  0.59540  0.41240  Biso   1.000  H
  H68      1.0000 0.41090  0.09540  0.41240  Biso   1.000  H
  H69      1.0000 0.91090  0.40460  0.91240  Biso   1.000  H
  H70      1.0000 0.41090  0.90460  0.91240  Biso   1.000  H
  H71      1.0000 0.08910  0.40460  0.58760  Biso   1.000  H
  H72      1.0000 0.58910  0.90460  0.58760  Biso   1.000  H
  H73      1.0000 0.06950  0.51690  0.01790  Biso   1.000  H
  H74      1.0000 0.56950  0.01690  0.01790  Biso   1.000  H
  H75      1.0000 0.93050  0.51690  0.48210  Biso   1.000  H
  H76      1.0000 0.43050  0.01690  0.48210  Biso   1.000  H
  H77      1.0000 0.93050  0.48310  0.98210  Biso   1.000  H
  H78      1.0000 0.43050  0.98310  0.98210  Biso   1.000  H
  H79      1.0000 0.06950  0.48310  0.51790  Biso   1.000  H
  H80      1.0000 0.56950  0.98310  0.51790  Biso   1.000  H
  H81      1.0000 0.02500  0.58170  0.02370  Biso   1.000  H
  H82      1.0000 0.52500  0.08170  0.02370  Biso   1.000  H
  H83      1.0000 0.97500  0.58170  0.47630  Biso   1.000  H
  H84      1.0000 0.47500  0.08170  0.47630  Biso   1.000  H
  H85      1.0000 0.97500  0.41830  0.97630  Biso   1.000  H
  H86      1.0000 0.47500  0.91830  0.97630  Biso   1.000  H
  H87      1.0000 0.02500  0.41830  0.52370  Biso   1.000  H
  H88      1.0000 0.52500  0.91830  0.52370  Biso   1.000  H
  C65      1.0000 0.07387  0.92310  0.27550  Biso   1.000  C
  C66      1.0000 0.57387  0.42310  0.27550  Biso   1.000  C
  C67      1.0000 0.92613  0.92310  0.22450  Biso   1.000  C
  C68      1.0000 0.42613  0.42310  0.22450  Biso   1.000  C
  C69      1.0000 0.92613  0.07690  0.72450  Biso   1.000  C
  C70      1.0000 0.42613  0.57690  0.72450  Biso   1.000  C
  C71      1.0000 0.07387  0.07690  0.77550  Biso   1.000  C
  C72      1.0000 0.57387  0.57690  0.77550  Biso   1.000  C
  H89      1.0000 0.06280  0.98370  0.27210  Biso   1.000  H
  H90      1.0000 0.56280  0.48370  0.27210  Biso   1.000  H
  H91      1.0000 0.93720  0.98370  0.22790  Biso   1.000  H
  H92      1.0000 0.43720  0.48370  0.22790  Biso   1.000  H
  H93      1.0000 0.93720  0.01630  0.72790  Biso   1.000  H
  H94      1.0000 0.43720  0.51630  0.72790  Biso   1.000  H
  H95      1.0000 0.06280  0.01630  0.77210  Biso   1.000  H
  H96      1.0000 0.56280  0.51630  0.77210  Biso   1.000  H
  C73      1.0000 0.08057  0.86290  0.34080  Biso   1.000  C
  C74      1.0000 0.58057  0.36290  0.34080  Biso   1.000  C
  C75      1.0000 0.91943  0.86290  0.15920  Biso   1.000  C
  C76      1.0000 0.41943  0.36290  0.15920  Biso   1.000  C
  C77      1.0000 0.91943  0.13710  0.65920  Biso   1.000  C
  C78      1.0000 0.41943  0.63710  0.65920  Biso   1.000  C
  C79      1.0000 0.08057  0.13710  0.84080  Biso   1.000  C
  C80      1.0000 0.58057  0.63710  0.84080  Biso   1.000  C
  C81      1.0000 0.09716  0.78000  0.31830  Biso   1.000  C
  C82      1.0000 0.59716  0.28000  0.31830  Biso   1.000  C
  C83      1.0000 0.90284  0.78000  0.18170  Biso   1.000  C
  C84      1.0000 0.40284  0.28000  0.18170  Biso   1.000  C
  C85      1.0000 0.90284  0.22000  0.68170  Biso   1.000  C
  C86      1.0000 0.40284  0.72000  0.68170  Biso   1.000  C
  C87      1.0000 0.09716  0.22000  0.81830  Biso   1.000  C
  C88      1.0000 0.59716  0.72000  0.81830  Biso   1.000  C
  C89      1.0000 0.07605  0.88650  0.41800  Biso   1.000  C
  C90      1.0000 0.57605  0.38650  0.41800  Biso   1.000  C
  C91      1.0000 0.92395  0.88650  0.08200  Biso   1.000  C
  C92      1.0000 0.42395  0.38650  0.08200  Biso   1.000  C
  C93      1.0000 0.92395  0.11350  0.58200  Biso   1.000  C
  C94      1.0000 0.42395  0.61350  0.58200  Biso   1.000  C
  C95      1.0000 0.07605  0.11350  0.91800  Biso   1.000  C
  C96      1.0000 0.57605  0.61350  0.91800  Biso   1.000  C
  C97      1.0000 0.11000  0.68930  0.36420  Biso   1.000  C
  C98      1.0000 0.61000  0.18930  0.36420  Biso   1.000  C
  C99      1.0000 0.89000  0.68930  0.13580  Biso   1.000  C
  C100     1.0000 0.39000  0.18930  0.13580  Biso   1.000  C
  C101     1.0000 0.89000  0.31070  0.63580  Biso   1.000  C
  C102     1.0000 0.39000  0.81070  0.63580  Biso   1.000  C
  C103     1.0000 0.11000  0.31070  0.86420  Biso   1.000  C
  C104     1.0000 0.61000  0.81070  0.86420  Biso   1.000  C
  C105     1.0000 0.17374  0.68150  0.42230  Biso   1.000  C
  C106     1.0000 0.67374  0.18150  0.42230  Biso   1.000  C
  C107     1.0000 0.82626  0.68150  0.07770  Biso   1.000  C
  C108     1.0000 0.32626  0.18150  0.07770  Biso   1.000  C
  C109     1.0000 0.82626  0.31850  0.57770  Biso   1.000  C
  C110     1.0000 0.32626  0.81850  0.57770  Biso   1.000  C
  C111     1.0000 0.17374  0.31850  0.92230  Biso   1.000  C
  C112     1.0000 0.67374  0.81850  0.92230  Biso   1.000  C
  H97      1.0000 0.19240  0.68830  0.38670  Biso   1.000  H
  H98      1.0000 0.69240  0.18830  0.38670  Biso   1.000  H
  H99      1.0000 0.80760  0.68830  0.11330  Biso   1.000  H
  H100     1.0000 0.30760  0.18830  0.11330  Biso   1.000  H
  H101     1.0000 0.80760  0.31170  0.61330  Biso   1.000  H
  H102     1.0000 0.30760  0.81170  0.61330  Biso   1.000  H
  H103     1.0000 0.19240  0.31170  0.88670  Biso   1.000  H
  H104     1.0000 0.69240  0.81170  0.88670  Biso   1.000  H
  H105     1.0000 0.18250  0.62300  0.45040  Biso   1.000  H
  H106     1.0000 0.68250  0.12300  0.45040  Biso   1.000  H
  H107     1.0000 0.81750  0.62300  0.04960  Biso   1.000  H
  H108     1.0000 0.31750  0.12300  0.04960  Biso   1.000  H
  H109     1.0000 0.81750  0.37700  0.54960  Biso   1.000  H
  H110     1.0000 0.31750  0.87700  0.54960  Biso   1.000  H
  H111     1.0000 0.18250  0.37700  0.95040  Biso   1.000  H
  H112     1.0000 0.68250  0.87700  0.95040  Biso   1.000  H
  H113     1.0000 0.18610  0.72840  0.46630  Biso   1.000  H
  H114     1.0000 0.68610  0.22840  0.46630  Biso   1.000  H
  H115     1.0000 0.81390  0.72840  0.03370  Biso   1.000  H
  H116     1.0000 0.31390  0.22840  0.03370  Biso   1.000  H
  H117     1.0000 0.81390  0.27160  0.53370  Biso   1.000  H
  H118     1.0000 0.31390  0.77160  0.53370  Biso   1.000  H
  H119     1.0000 0.18610  0.27160  0.96630  Biso   1.000  H
  H120     1.0000 0.68610  0.77160  0.96630  Biso   1.000  H
  C113     1.0000 0.08000  0.67960  0.42120  Biso   1.000  C
  C114     1.0000 0.58000  0.17960  0.42120  Biso   1.000  C
  C115     1.0000 0.92000  0.67960  0.07880  Biso   1.000  C
  C116     1.0000 0.42000  0.17960  0.07880  Biso   1.000  C
  C117     1.0000 0.92000  0.32040  0.57880  Biso   1.000  C
  C118     1.0000 0.42000  0.82040  0.57880  Biso   1.000  C
  C119     1.0000 0.08000  0.32040  0.92120  Biso   1.000  C
  C120     1.0000 0.58000  0.82040  0.92120  Biso   1.000  C
  H121     1.0000 0.09410  0.72470  0.46690  Biso   1.000  H
  H122     1.0000 0.59410  0.22470  0.46690  Biso   1.000  H
  H123     1.0000 0.90590  0.72470  0.03310  Biso   1.000  H
  H124     1.0000 0.40590  0.22470  0.03310  Biso   1.000  H
  H125     1.0000 0.90590  0.27530  0.53310  Biso   1.000  H
  H126     1.0000 0.40590  0.77530  0.53310  Biso   1.000  H
  H127     1.0000 0.09410  0.27530  0.96690  Biso   1.000  H
  H128     1.0000 0.59410  0.77530  0.96690  Biso   1.000  H
  H129     1.0000 0.08690  0.62000  0.44700  Biso   1.000  H
  H130     1.0000 0.58690  0.12000  0.44700  Biso   1.000  H
  H131     1.0000 0.91310  0.62000  0.05300  Biso   1.000  H
  H132     1.0000 0.41310  0.12000  0.05300  Biso   1.000  H
  H133     1.0000 0.91310  0.38000  0.55300  Biso   1.000  H
  H134     1.0000 0.41310  0.88000  0.55300  Biso   1.000  H
  H135     1.0000 0.08690  0.38000  0.94700  Biso   1.000  H
  H136     1.0000 0.58690  0.88000  0.94700  Biso   1.000  H
  H137     1.0000 0.04040  0.68820  0.38540  Biso   1.000  H
  H138     1.0000 0.54040  0.18820  0.38540  Biso   1.000  H
  H139     1.0000 0.95960  0.68820  0.11460  Biso   1.000  H
  H140     1.0000 0.45960  0.18820  0.11460  Biso   1.000  H
  H141     1.0000 0.95960  0.31180  0.61460  Biso   1.000  H
  H142     1.0000 0.45960  0.81180  0.61460  Biso   1.000  H
  H143     1.0000 0.04040  0.31180  0.88540  Biso   1.000  H
  H144     1.0000 0.54040  0.81180  0.88540  Biso   1.000  H
  C121     1.0000 0.08964  0.61250  0.29640  Biso   1.000  C
  C122     1.0000 0.58964  0.11250  0.29640  Biso   1.000  C
  C123     1.0000 0.91036  0.61250  0.20360  Biso   1.000  C
  C124     1.0000 0.41036  0.11250  0.20360  Biso   1.000  C
  C125     1.0000 0.91036  0.38750  0.70360  Biso   1.000  C
  C126     1.0000 0.41036  0.88750  0.70360  Biso   1.000  C
  C127     1.0000 0.08964  0.38750  0.79640  Biso   1.000  C
  C128     1.0000 0.58964  0.88750  0.79640  Biso   1.000  C
  H145     1.0000 0.04990  0.61810  0.25970  Biso   1.000  H
  H146     1.0000 0.54990  0.11810  0.25970  Biso   1.000  H
  H147     1.0000 0.95010  0.61810  0.24030  Biso   1.000  H
  H148     1.0000 0.45010  0.11810  0.24030  Biso   1.000  H
  H149     1.0000 0.95010  0.38190  0.74030  Biso   1.000  H
  H150     1.0000 0.45010  0.88190  0.74030  Biso   1.000  H
  H151     1.0000 0.04990  0.38190  0.75970  Biso   1.000  H
  H152     1.0000 0.54990  0.88190  0.75970  Biso   1.000  H
  H153     1.0000 0.09780  0.55480  0.32610  Biso   1.000  H
  H154     1.0000 0.59780  0.05480  0.32610  Biso   1.000  H
  H155     1.0000 0.90220  0.55480  0.17390  Biso   1.000  H
  H156     1.0000 0.40220  0.05480  0.17390  Biso   1.000  H
  H157     1.0000 0.90220  0.44520  0.67390  Biso   1.000  H
  H158     1.0000 0.40220  0.94520  0.67390  Biso   1.000  H
  H159     1.0000 0.09780  0.44520  0.82610  Biso   1.000  H
  H160     1.0000 0.59780  0.94520  0.82610  Biso   1.000  H
  H161     1.0000 0.10850  0.61640  0.26090  Biso   1.000  H
  H162     1.0000 0.60850  0.11640  0.26090  Biso   1.000  H
  H163     1.0000 0.89150  0.61640  0.23910  Biso   1.000  H
  H164     1.0000 0.39150  0.11640  0.23910  Biso   1.000  H
  H165     1.0000 0.89150  0.38360  0.73910  Biso   1.000  H
  H166     1.0000 0.39150  0.88360  0.73910  Biso   1.000  H
  H167     1.0000 0.10850  0.38360  0.76090  Biso   1.000  H
  H168     1.0000 0.60850  0.88360  0.76090  Biso   1.000  H
  C129     1.0000 0.18069  0.01830  0.18780  Biso   1.000  C
  C130     1.0000 0.68069  0.51830  0.18780  Biso   1.000  C
  C131     1.0000 0.81931  0.01830  0.31220  Biso   1.000  C
  C132     1.0000 0.31931  0.51830  0.31220  Biso   1.000  C
  C133     1.0000 0.81931  0.98170  0.81220  Biso   1.000  C
  C134     1.0000 0.31931  0.48170  0.81220  Biso   1.000  C
  C135     1.0000 0.18069  0.98170  0.68780  Biso   1.000  C
  C136     1.0000 0.68069  0.48170  0.68780  Biso   1.000  C
  H169     1.0000 0.16400  0.07540  0.17870  Biso   1.000  H
  H170     1.0000 0.66400  0.57540  0.17870  Biso   1.000  H
  H171     1.0000 0.83600  0.07540  0.32130  Biso   1.000  H
  H172     1.0000 0.33600  0.57540  0.32130  Biso   1.000  H
  H173     1.0000 0.83600  0.92460  0.82130  Biso   1.000  H
  H174     1.0000 0.33600  0.42460  0.82130  Biso   1.000  H
  H175     1.0000 0.16400  0.92460  0.67870  Biso   1.000  H
  H176     1.0000 0.66400  0.42460  0.67870  Biso   1.000  H
  C137     1.0000 0.23733  0.00170  0.22030  Biso   1.000  C
  C138     1.0000 0.73733  0.50170  0.22030  Biso   1.000  C
  C139     1.0000 0.76267  0.00170  0.27970  Biso   1.000  C
  C140     1.0000 0.26267  0.50170  0.27970  Biso   1.000  C
  C141     1.0000 0.76267  0.99830  0.77970  Biso   1.000  C
  C142     1.0000 0.26267  0.49830  0.77970  Biso   1.000  C
  C143     1.0000 0.23733  0.99830  0.72030  Biso   1.000  C
  C144     1.0000 0.73733  0.49830  0.72030  Biso   1.000  C
  C145     1.0000 0.24258  0.90570  0.22120  Biso   1.000  C
  C146     1.0000 0.74258  0.40570  0.22120  Biso   1.000  C
  C147     1.0000 0.75742  0.90570  0.27880  Biso   1.000  C
  C148     1.0000 0.25742  0.40570  0.27880  Biso   1.000  C
  C149     1.0000 0.75742  0.09430  0.77880  Biso   1.000  C
  C150     1.0000 0.25742  0.59430  0.77880  Biso   1.000  C
  C151     1.0000 0.24258  0.09430  0.72120  Biso   1.000  C
  C152     1.0000 0.74258  0.59430  0.72120  Biso   1.000  C
  C153     1.0000 0.27771  0.07250  0.24990  Biso   1.000  C
  C154     1.0000 0.77771  0.57250  0.24990  Biso   1.000  C
  C155     1.0000 0.72229  0.07250  0.25010  Biso   1.000  C
  C156     1.0000 0.22229  0.57250  0.25010  Biso   1.000  C
  C157     1.0000 0.72229  0.92750  0.75010  Biso   1.000  C
  C158     1.0000 0.22229  0.42750  0.75010  Biso   1.000  C
  C159     1.0000 0.27771  0.92750  0.74990  Biso   1.000  C
  C160     1.0000 0.77771  0.42750  0.74990  Biso   1.000  C
  C161     1.0000 0.29411  0.84700  0.24680  Biso   1.000  C
  C162     1.0000 0.79411  0.34700  0.24680  Biso   1.000  C
  C163     1.0000 0.70589  0.84700  0.25320  Biso   1.000  C
  C164     1.0000 0.20589  0.34700  0.25320  Biso   1.000  C
  C165     1.0000 0.70589  0.15300  0.75320  Biso   1.000  C
  C166     1.0000 0.20589  0.65300  0.75320  Biso   1.000  C
  C167     1.0000 0.29411  0.15300  0.74680  Biso   1.000  C
  C168     1.0000 0.79411  0.65300  0.74680  Biso   1.000  C
  C169     1.0000 0.34437  0.90520  0.25850  Biso   1.000  C
  C170     1.0000 0.84437  0.40520  0.25850  Biso   1.000  C
  C171     1.0000 0.65563  0.90520  0.24150  Biso   1.000  C
  C172     1.0000 0.15563  0.40520  0.24150  Biso   1.000  C
  C173     1.0000 0.65563  0.09480  0.74150  Biso   1.000  C
  C174     1.0000 0.15563  0.59480  0.74150  Biso   1.000  C
  C175     1.0000 0.34437  0.09480  0.75850  Biso   1.000  C
  C176     1.0000 0.84437  0.59480  0.75850  Biso   1.000  C
  H177     1.0000 0.33400  0.94240  0.20730  Biso   1.000  H
  H178     1.0000 0.83400  0.44240  0.20730  Biso   1.000  H
  H179     1.0000 0.66600  0.94240  0.29270  Biso   1.000  H
  H180     1.0000 0.16600  0.44240  0.29270  Biso   1.000  H
  H181     1.0000 0.66600  0.05760  0.79270  Biso   1.000  H
  H182     1.0000 0.16600  0.55760  0.79270  Biso   1.000  H
  H183     1.0000 0.33400  0.05760  0.70730  Biso   1.000  H
  H184     1.0000 0.83400  0.55760  0.70730  Biso   1.000  H
  H185     1.0000 0.37500  0.86620  0.26640  Biso   1.000  H
  H186     1.0000 0.87500  0.36620  0.26640  Biso   1.000  H
  H187     1.0000 0.62500  0.86620  0.23360  Biso   1.000  H
  H188     1.0000 0.12500  0.36620  0.23360  Biso   1.000  H
  H189     1.0000 0.62500  0.13380  0.73360  Biso   1.000  H
  H190     1.0000 0.12500  0.63380  0.73360  Biso   1.000  H
  H191     1.0000 0.37500  0.13380  0.76640  Biso   1.000  H
  H192     1.0000 0.87500  0.63380  0.76640  Biso   1.000  H
  H193     1.0000 0.35560  0.94350  0.30920  Biso   1.000  H
  H194     1.0000 0.85560  0.44350  0.30920  Biso   1.000  H
  H195     1.0000 0.64440  0.94350  0.19080  Biso   1.000  H
  H196     1.0000 0.14440  0.44350  0.19080  Biso   1.000  H
  H197     1.0000 0.64440  0.05650  0.69080  Biso   1.000  H
  H198     1.0000 0.14440  0.55650  0.69080  Biso   1.000  H
  H199     1.0000 0.35560  0.05650  0.80920  Biso   1.000  H
  H200     1.0000 0.85560  0.55650  0.80920  Biso   1.000  H
  C177     1.0000 0.30670  0.79680  0.33110  Biso   1.000  C
  C178     1.0000 0.80670  0.29680  0.33110  Biso   1.000  C
  C179     1.0000 0.69330  0.79680  0.16890  Biso   1.000  C
  C180     1.0000 0.19330  0.29680  0.16890  Biso   1.000  C
  C181     1.0000 0.69330  0.20320  0.66890  Biso   1.000  C
  C182     1.0000 0.19330  0.70320  0.66890  Biso   1.000  C
  C183     1.0000 0.30670  0.20320  0.83110  Biso   1.000  C
  C184     1.0000 0.80670  0.70320  0.83110  Biso   1.000  C
  H201     1.0000 0.31640  0.83990  0.37800  Biso   1.000  H
  H202     1.0000 0.81640  0.33990  0.37800  Biso   1.000  H
  H203     1.0000 0.68360  0.83990  0.12200  Biso   1.000  H
  H204     1.0000 0.18360  0.33990  0.12200  Biso   1.000  H
  H205     1.0000 0.68360  0.16010  0.62200  Biso   1.000  H
  H206     1.0000 0.18360  0.66010  0.62200  Biso   1.000  H
  H207     1.0000 0.31640  0.16010  0.87800  Biso   1.000  H
  H208     1.0000 0.81640  0.66010  0.87800  Biso   1.000  H
  H209     1.0000 0.33750  0.75570  0.34550  Biso   1.000  H
  H210     1.0000 0.83750  0.25570  0.34550  Biso   1.000  H
  H211     1.0000 0.66250  0.75570  0.15450  Biso   1.000  H
  H212     1.0000 0.16250  0.25570  0.15450  Biso   1.000  H
  H213     1.0000 0.66250  0.24430  0.65450  Biso   1.000  H
  H214     1.0000 0.16250  0.74430  0.65450  Biso   1.000  H
  H215     1.0000 0.33750  0.24430  0.84550  Biso   1.000  H
  H216     1.0000 0.83750  0.74430  0.84550  Biso   1.000  H
  H217     1.0000 0.27410  0.76300  0.32330  Biso   1.000  H
  H218     1.0000 0.77410  0.26300  0.32330  Biso   1.000  H
  H219     1.0000 0.72590  0.76300  0.17670  Biso   1.000  H
  H220     1.0000 0.22590  0.26300  0.17670  Biso   1.000  H
  H221     1.0000 0.72590  0.23700  0.67670  Biso   1.000  H
  H222     1.0000 0.22590  0.73700  0.67670  Biso   1.000  H
  H223     1.0000 0.27410  0.23700  0.82330  Biso   1.000  H
  H224     1.0000 0.77410  0.73700  0.82330  Biso   1.000  H
  C185     1.0000 0.28291  0.77830  0.17370  Biso   1.000  C
  C186     1.0000 0.78291  0.27830  0.17370  Biso   1.000  C
  C187     1.0000 0.71709  0.77830  0.32630  Biso   1.000  C
  C188     1.0000 0.21709  0.27830  0.32630  Biso   1.000  C
  C189     1.0000 0.71709  0.22170  0.82630  Biso   1.000  C
  C190     1.0000 0.21709  0.72170  0.82630  Biso   1.000  C
  C191     1.0000 0.28291  0.22170  0.67370  Biso   1.000  C
  C192     1.0000 0.78291  0.72170  0.67370  Biso   1.000  C
  H225     1.0000 0.25110  0.74140  0.16410  Biso   1.000  H
  H226     1.0000 0.75110  0.24140  0.16410  Biso   1.000  H
  H227     1.0000 0.74890  0.74140  0.33590  Biso   1.000  H
  H228     1.0000 0.24890  0.24140  0.33590  Biso   1.000  H
  H229     1.0000 0.74890  0.25860  0.83590  Biso   1.000  H
  H230     1.0000 0.24890  0.75860  0.83590  Biso   1.000  H
  H231     1.0000 0.25110  0.25860  0.66410  Biso   1.000  H
  H232     1.0000 0.75110  0.75860  0.66410  Biso   1.000  H
  H233     1.0000 0.31530  0.74010  0.19050  Biso   1.000  H
  H234     1.0000 0.81530  0.24010  0.19050  Biso   1.000  H
  H235     1.0000 0.68470  0.74010  0.30950  Biso   1.000  H
  H236     1.0000 0.18470  0.24010  0.30950  Biso   1.000  H
  H237     1.0000 0.68470  0.25990  0.80950  Biso   1.000  H
  H238     1.0000 0.18470  0.75990  0.80950  Biso   1.000  H
  H239     1.0000 0.31530  0.25990  0.69050  Biso   1.000  H
  H240     1.0000 0.81530  0.75990  0.69050  Biso   1.000  H
  H241     1.0000 0.27540  0.81020  0.12060  Biso   1.000  H
  H242     1.0000 0.77540  0.31020  0.12060  Biso   1.000  H
  H243     1.0000 0.72460  0.81020  0.37940  Biso   1.000  H
  H244     1.0000 0.22460  0.31020  0.37940  Biso   1.000  H
  H245     1.0000 0.72460  0.18980  0.87940  Biso   1.000  H
  H246     1.0000 0.22460  0.68980  0.87940  Biso   1.000  H
  H247     1.0000 0.27540  0.18980  0.62060  Biso   1.000  H
  H248     1.0000 0.77540  0.68980  0.62060  Biso   1.000  H
  Cu1      1.0000 0.14983  0.74112  0.18350  Biso   1.000  Cu
  Cu2      1.0000 0.64983  0.24112  0.18350  Biso   1.000  Cu
  Cu3      1.0000 0.85017  0.74112  0.31650  Biso   1.000  Cu
  Cu4      1.0000 0.35017  0.24112  0.31650  Biso   1.000  Cu
  Cu5      1.0000 0.85017  0.25888  0.81650  Biso   1.000  Cu
  Cu6      1.0000 0.35017  0.75888  0.81650  Biso   1.000  Cu
  Cu7      1.0000 0.14983  0.25888  0.68350  Biso   1.000  Cu
  Cu8      1.0000 0.64983  0.75888  0.68350  Biso   1.000  Cu
  N1       1.0000 0.08609  0.77357  0.06257  Biso   1.000  N
  N2       1.0000 0.58609  0.27357  0.06257  Biso   1.000  N
  N3       1.0000 0.91391  0.77357  0.43743  Biso   1.000  N
  N4       1.0000 0.41391  0.27357  0.43743  Biso   1.000  N
  N5       1.0000 0.91391  0.22643  0.93743  Biso   1.000  N
  N6       1.0000 0.41391  0.72643  0.93743  Biso   1.000  N
  N7       1.0000 0.08609  0.22643  0.56257  Biso   1.000  N
  N8       1.0000 0.58609  0.72643  0.56257  Biso   1.000  N
  N9       1.0000 0.06725  0.86039  0.06070  Biso   1.000  N
  N10      1.0000 0.56725  0.36039  0.06070  Biso   1.000  N
  N11      1.0000 0.93275  0.86039  0.43930  Biso   1.000  N
  N12      1.0000 0.43275  0.36039  0.43930  Biso   1.000  N
  N13      1.0000 0.93275  0.13961  0.93930  Biso   1.000  N
  N14      1.0000 0.43275  0.63961  0.93930  Biso   1.000  N
  N15      1.0000 0.06725  0.13961  0.56070  Biso   1.000  N
  N16      1.0000 0.56725  0.63961  0.56070  Biso   1.000  N
  N17      1.0000 0.93769  0.80340  0.76910  Biso   1.000  N
  N18      1.0000 0.43769  0.30340  0.76910  Biso   1.000  N
  N19      1.0000 0.06231  0.80340  0.73090  Biso   1.000  N
  N20      1.0000 0.56231  0.30340  0.73090  Biso   1.000  N
  N21      1.0000 0.06231  0.19660  0.23090  Biso   1.000  N
  N22      1.0000 0.56231  0.69660  0.23090  Biso   1.000  N
  N23      1.0000 0.93769  0.19660  0.26910  Biso   1.000  N
  N24      1.0000 0.43769  0.69660  0.26910  Biso   1.000  N
  N25      1.0000 0.10174  0.79257  0.24494  Biso   1.000  N
  N26      1.0000 0.60174  0.29257  0.24494  Biso   1.000  N
  N27      1.0000 0.89826  0.79257  0.25506  Biso   1.000  N
  N28      1.0000 0.39826  0.29257  0.25506  Biso   1.000  N
  N29      1.0000 0.89826  0.20743  0.75506  Biso   1.000  N
  N30      1.0000 0.39826  0.70743  0.75506  Biso   1.000  N
  N31      1.0000 0.10174  0.20743  0.74494  Biso   1.000  N
  N32      1.0000 0.60174  0.70743  0.74494  Biso   1.000  N
  N33      1.0000 0.08581  0.88049  0.21810  Biso   1.000  N
  N34      1.0000 0.58581  0.38049  0.21810  Biso   1.000  N
  N35      1.0000 0.91419  0.88049  0.28190  Biso   1.000  N
  N36      1.0000 0.41419  0.38049  0.28190  Biso   1.000  N
  N37      1.0000 0.91419  0.11951  0.78190  Biso   1.000  N
  N38      1.0000 0.41419  0.61951  0.78190  Biso   1.000  N
  N39      1.0000 0.08581  0.11951  0.71810  Biso   1.000  N
  N40      1.0000 0.58581  0.61951  0.71810  Biso   1.000  N
  N41      1.0000 0.07420  0.90810  0.48050  Biso   1.000  N
  N42      1.0000 0.57420  0.40810  0.48050  Biso   1.000  N
  N43      1.0000 0.92580  0.90810  0.01950  Biso   1.000  N
  N44      1.0000 0.42580  0.40810  0.01950  Biso   1.000  N
  N45      1.0000 0.92580  0.09190  0.51950  Biso   1.000  N
  N46      1.0000 0.42580  0.59190  0.51950  Biso   1.000  N
  N47      1.0000 0.07420  0.09190  0.98050  Biso   1.000  N
  N48      1.0000 0.57420  0.59190  0.98050  Biso   1.000  N
  N49      1.0000 0.19203  0.86864  0.19336  Biso   1.000  N
  N50      1.0000 0.69203  0.36864  0.19336  Biso   1.000  N
  N51      1.0000 0.80797  0.86864  0.30664  Biso   1.000  N
  N52      1.0000 0.30797  0.36864  0.30664  Biso   1.000  N
  N53      1.0000 0.80797  0.13136  0.80664  Biso   1.000  N
  N54      1.0000 0.30797  0.63136  0.80664  Biso   1.000  N
  N55      1.0000 0.19203  0.13136  0.69336  Biso   1.000  N
  N56      1.0000 0.69203  0.63136  0.69336  Biso   1.000  N
  N57      1.0000 0.15412  0.93941  0.17167  Biso   1.000  N
  N58      1.0000 0.65412  0.43941  0.17167  Biso   1.000  N
  N59      1.0000 0.84588  0.93941  0.32833  Biso   1.000  N
  N60      1.0000 0.34588  0.43941  0.32833  Biso   1.000  N
  N61      1.0000 0.84588  0.06059  0.82833  Biso   1.000  N
  N62      1.0000 0.34588  0.56059  0.82833  Biso   1.000  N
  N63      1.0000 0.15412  0.06059  0.67167  Biso   1.000  N
  N64      1.0000 0.65412  0.56059  0.67167  Biso   1.000  N
  N65      1.0000 0.30701  0.13452  0.27442  Biso   1.000  N
  N66      1.0000 0.80701  0.63452  0.27442  Biso   1.000  N
  N67      1.0000 0.69299  0.13452  0.22558  Biso   1.000  N
  N68      1.0000 0.19299  0.63452  0.22558  Biso   1.000  N
  N69      1.0000 0.69299  0.86548  0.72558  Biso   1.000  N
  N70      1.0000 0.19299  0.36548  0.72558  Biso   1.000  N
  N71      1.0000 0.30701  0.86548  0.77442  Biso   1.000  N
  N72      1.0000 0.80701  0.36548  0.77442  Biso   1.000  N
