data_image0
_cell_length_a       9.564
_cell_length_b       24.36
_cell_length_c       11.462
_cell_angle_alpha    90
_cell_angle_beta     92.564
_cell_angle_gamma    90

_symmetry_space_group_name_H-M    "P 1"
_symmetry_int_tables_number       1

loop_
  _symmetry_equiv_pos_as_xyz
  'x, y, z'

loop_
  _atom_site_label
  _atom_site_occupancy
  _atom_site_fract_x
  _atom_site_fract_y
  _atom_site_fract_z
  _atom_site_thermal_displace_type
  _atom_site_B_iso_or_equiv
  _atom_site_type_symbol
  B1       1.0000 0.00570  0.41088  0.17900  Biso   1.000  B
  B2       1.0000 0.49430  0.91088  0.32100  Biso   1.000  B
  B3       1.0000 0.99430  0.58912  0.82100  Biso   1.000  B
  B4       1.0000 0.50570  0.08912  0.67900  Biso   1.000  B
  H1       1.0000 0.04040  0.43640  0.12090  Biso   1.000  H
  H2       1.0000 0.45960  0.93640  0.37910  Biso   1.000  H
  H3       1.0000 0.95960  0.56360  0.87910  Biso   1.000  H
  H4       1.0000 0.54040  0.06360  0.62090  Biso   1.000  H
  C1       1.0000 0.75130  0.44328  0.11554  Biso   1.000  C
  C2       1.0000 0.74870  0.94328  0.38446  Biso   1.000  C
  C3       1.0000 0.24870  0.55672  0.88446  Biso   1.000  C
  C4       1.0000 0.25130  0.05672  0.61554  Biso   1.000  C
  H5       1.0000 0.77290  0.47220  0.06670  Biso   1.000  H
  H6       1.0000 0.72710  0.97220  0.43330  Biso   1.000  H
  H7       1.0000 0.22710  0.52780  0.93330  Biso   1.000  H
  H8       1.0000 0.27290  0.02780  0.56670  Biso   1.000  H
  C5       1.0000 0.61850  0.42694  0.14324  Biso   1.000  C
  C6       1.0000 0.88150  0.92694  0.35676  Biso   1.000  C
  C7       1.0000 0.38150  0.57306  0.85676  Biso   1.000  C
  C8       1.0000 0.11850  0.07306  0.64324  Biso   1.000  C
  C9       1.0000 0.63810  0.38127  0.21817  Biso   1.000  C
  C10      1.0000 0.86190  0.88127  0.28183  Biso   1.000  C
  C11      1.0000 0.36190  0.61873  0.78183  Biso   1.000  C
  C12      1.0000 0.13810  0.11873  0.71817  Biso   1.000  C
  C13      1.0000 0.48480  0.44807  0.10433  Biso   1.000  C
  C14      1.0000 0.01520  0.94807  0.39567  Biso   1.000  C
  C15      1.0000 0.51520  0.55193  0.89567  Biso   1.000  C
  C16      1.0000 0.98480  0.05193  0.60433  Biso   1.000  C
  C17      1.0000 0.53650  0.34446  0.27044  Biso   1.000  C
  C18      1.0000 0.96350  0.84446  0.22956  Biso   1.000  C
  C19      1.0000 0.46350  0.65554  0.72956  Biso   1.000  C
  C20      1.0000 0.03650  0.15554  0.77044  Biso   1.000  C
  C21      1.0000 0.42250  0.36475  0.32690  Biso   1.000  C
  C22      1.0000 0.07750  0.86475  0.17310  Biso   1.000  C
  C23      1.0000 0.57750  0.63525  0.67310  Biso   1.000  C
  C24      1.0000 0.92250  0.13525  0.82690  Biso   1.000  C
  H9       1.0000 0.40680  0.40240  0.32970  Biso   1.000  H
  H10      1.0000 0.09320  0.90240  0.17030  Biso   1.000  H
  H11      1.0000 0.59320  0.59760  0.67030  Biso   1.000  H
  H12      1.0000 0.90680  0.09760  0.82970  Biso   1.000  H
  C25      1.0000 0.33190  0.32899  0.37940  Biso   1.000  C
  C26      1.0000 0.16810  0.82899  0.12060  Biso   1.000  C
  C27      1.0000 0.66810  0.67101  0.62060  Biso   1.000  C
  C28      1.0000 0.83190  0.17101  0.87940  Biso   1.000  C
  H13      1.0000 0.25530  0.34260  0.41730  Biso   1.000  H
  H14      1.0000 0.24470  0.84260  0.08270  Biso   1.000  H
  H15      1.0000 0.74470  0.65740  0.58270  Biso   1.000  H
  H16      1.0000 0.75530  0.15740  0.91730  Biso   1.000  H
  C29      1.0000 0.35530  0.27347  0.37540  Biso   1.000  C
  C30      1.0000 0.14470  0.77347  0.12460  Biso   1.000  C
  C31      1.0000 0.64470  0.72653  0.62460  Biso   1.000  C
  C32      1.0000 0.85530  0.22653  0.87540  Biso   1.000  C
  H17      1.0000 0.29500  0.24960  0.41170  Biso   1.000  H
  H18      1.0000 0.20500  0.74960  0.08830  Biso   1.000  H
  H19      1.0000 0.70500  0.75040  0.58830  Biso   1.000  H
  H20      1.0000 0.79500  0.25040  0.91170  Biso   1.000  H
  C33      1.0000 0.46700  0.25283  0.31830  Biso   1.000  C
  C34      1.0000 0.03300  0.75283  0.18170  Biso   1.000  C
  C35      1.0000 0.53300  0.74717  0.68170  Biso   1.000  C
  C36      1.0000 0.96700  0.24717  0.81830  Biso   1.000  C
  H21      1.0000 0.48130  0.21510  0.31520  Biso   1.000  H
  H22      1.0000 0.01870  0.71510  0.18480  Biso   1.000  H
  H23      1.0000 0.51870  0.78490  0.68480  Biso   1.000  H
  H24      1.0000 0.98130  0.28490  0.81520  Biso   1.000  H
  C37      1.0000 0.55780  0.28795  0.26540  Biso   1.000  C
  C38      1.0000 0.94220  0.78795  0.23460  Biso   1.000  C
  C39      1.0000 0.44220  0.71205  0.73460  Biso   1.000  C
  C40      1.0000 0.05780  0.21205  0.76540  Biso   1.000  C
  H25      1.0000 0.63320  0.27390  0.22640  Biso   1.000  H
  H26      1.0000 0.86680  0.77390  0.27360  Biso   1.000  H
  H27      1.0000 0.36680  0.72610  0.77360  Biso   1.000  H
  H28      1.0000 0.13320  0.22610  0.72640  Biso   1.000  H
  C41      1.0000 0.15190  0.46685  0.33184  Biso   1.000  C
  C42      1.0000 0.34810  0.96685  0.16816  Biso   1.000  C
  C43      1.0000 0.84810  0.53315  0.66816  Biso   1.000  C
  C44      1.0000 0.65190  0.03315  0.83184  Biso   1.000  C
  H29      1.0000 0.19870  0.48890  0.28020  Biso   1.000  H
  H30      1.0000 0.30130  0.98890  0.21980  Biso   1.000  H
  H31      1.0000 0.80130  0.51110  0.71980  Biso   1.000  H
  H32      1.0000 0.69870  0.01110  0.78020  Biso   1.000  H
  C45      1.0000 0.16910  0.46783  0.45243  Biso   1.000  C
  C46      1.0000 0.33090  0.96783  0.04757  Biso   1.000  C
  C47      1.0000 0.83090  0.53217  0.54757  Biso   1.000  C
  C48      1.0000 0.66910  0.03217  0.95243  Biso   1.000  C
  C49      1.0000 0.07440  0.42818  0.49219  Biso   1.000  C
  C50      1.0000 0.42560  0.92818  0.00781  Biso   1.000  C
  C51      1.0000 0.92560  0.57182  0.50781  Biso   1.000  C
  C52      1.0000 0.57440  0.07182  0.99219  Biso   1.000  C
  C53      1.0000 0.26330  0.50281  0.51787  Biso   1.000  C
  C54      1.0000 0.23670  0.00281  0.98213  Biso   1.000  C
  C55      1.0000 0.73670  0.49719  0.48213  Biso   1.000  C
  C56      1.0000 0.76330  0.99719  0.01787  Biso   1.000  C
  C57      1.0000 0.03870  0.41601  0.61326  Biso   1.000  C
  C58      1.0000 0.46130  0.91601  0.88674  Biso   1.000  C
  C59      1.0000 0.96130  0.58399  0.38674  Biso   1.000  C
  C60      1.0000 0.53870  0.08399  0.11326  Biso   1.000  C
  C61      1.0000 0.13190  0.42837  0.70627  Biso   1.000  C
  C62      1.0000 0.36810  0.92837  0.79373  Biso   1.000  C
  C63      1.0000 0.86810  0.57163  0.29373  Biso   1.000  C
  C64      1.0000 0.63190  0.07163  0.20627  Biso   1.000  C
  H33      1.0000 0.22050  0.44160  0.69160  Biso   1.000  H
  H34      1.0000 0.27950  0.94160  0.80840  Biso   1.000  H
  H35      1.0000 0.77950  0.55840  0.30840  Biso   1.000  H
  H36      1.0000 0.72050  0.05840  0.19160  Biso   1.000  H
  C65      1.0000 0.09400  0.42115  0.82054  Biso   1.000  C
  C66      1.0000 0.40600  0.92115  0.67946  Biso   1.000  C
  C67      1.0000 0.90600  0.57885  0.17946  Biso   1.000  C
  C68      1.0000 0.59400  0.07885  0.32054  Biso   1.000  C
  H37      1.0000 0.15700  0.42970  0.88200  Biso   1.000  H
  H38      1.0000 0.34300  0.92970  0.61800  Biso   1.000  H
  H39      1.0000 0.84300  0.57030  0.11800  Biso   1.000  H
  H40      1.0000 0.65700  0.07030  0.38200  Biso   1.000  H
  C69      1.0000 0.96420  0.40158  0.84311  Biso   1.000  C
  C70      1.0000 0.53580  0.90158  0.65689  Biso   1.000  C
  C71      1.0000 0.03580  0.59842  0.15689  Biso   1.000  C
  C72      1.0000 0.46420  0.09842  0.34311  Biso   1.000  C
  H41      1.0000 0.93860  0.39720  0.91990  Biso   1.000  H
  H42      1.0000 0.56140  0.89720  0.58010  Biso   1.000  H
  H43      1.0000 0.06140  0.60280  0.08010  Biso   1.000  H
  H44      1.0000 0.43860  0.10280  0.41990  Biso   1.000  H
  C73      1.0000 0.87070  0.38819  0.75191  Biso   1.000  C
  C74      1.0000 0.62930  0.88819  0.74809  Biso   1.000  C
  C75      1.0000 0.12930  0.61181  0.24809  Biso   1.000  C
  C76      1.0000 0.37070  0.11181  0.25191  Biso   1.000  C
  H45      1.0000 0.78300  0.37420  0.76740  Biso   1.000  H
  H46      1.0000 0.71700  0.87420  0.73260  Biso   1.000  H
  H47      1.0000 0.21700  0.62580  0.23260  Biso   1.000  H
  H48      1.0000 0.28300  0.12580  0.26740  Biso   1.000  H
  C77      1.0000 0.90780  0.39570  0.63770  Biso   1.000  C
  C78      1.0000 0.59220  0.89570  0.86230  Biso   1.000  C
  C79      1.0000 0.09220  0.60430  0.36230  Biso   1.000  C
  C80      1.0000 0.40780  0.10430  0.13770  Biso   1.000  C
  H49      1.0000 0.84420  0.38700  0.57670  Biso   1.000  H
  H50      1.0000 0.65580  0.88700  0.92330  Biso   1.000  H
  H51      1.0000 0.15580  0.61300  0.42330  Biso   1.000  H
  H52      1.0000 0.34420  0.11300  0.07670  Biso   1.000  H
  C81      1.0000 0.15270  0.33617  0.07827  Biso   1.000  C
  C82      1.0000 0.34730  0.83617  0.42173  Biso   1.000  C
  C83      1.0000 0.84730  0.66383  0.92173  Biso   1.000  C
  C84      1.0000 0.65270  0.16383  0.57827  Biso   1.000  C
  H53      1.0000 0.19690  0.35880  0.02600  Biso   1.000  H
  H54      1.0000 0.30310  0.85880  0.47400  Biso   1.000  H
  H55      1.0000 0.80310  0.64120  0.97400  Biso   1.000  H
  H56      1.0000 0.69690  0.14120  0.52600  Biso   1.000  H
  C85      1.0000 0.16790  0.27986  0.08729  Biso   1.000  C
  C86      1.0000 0.33210  0.77986  0.41271  Biso   1.000  C
  C87      1.0000 0.83210  0.72014  0.91271  Biso   1.000  C
  C88      1.0000 0.66790  0.22014  0.58729  Biso   1.000  C
  C89      1.0000 0.08180  0.26387  0.17855  Biso   1.000  C
  C90      1.0000 0.41820  0.76387  0.32145  Biso   1.000  C
  C91      1.0000 0.91820  0.73613  0.82145  Biso   1.000  C
  C92      1.0000 0.58180  0.23613  0.67855  Biso   1.000  C
  C93      1.0000 0.25330  0.24550  0.02055  Biso   1.000  C
  C94      1.0000 0.24670  0.74550  0.47945  Biso   1.000  C
  C95      1.0000 0.74670  0.75450  0.97945  Biso   1.000  C
  C96      1.0000 0.75330  0.25450  0.52055  Biso   1.000  C
  C97      1.0000 0.05200  0.20806  0.22040  Biso   1.000  C
  C98      1.0000 0.44800  0.70806  0.27960  Biso   1.000  C
  C99      1.0000 0.94800  0.79194  0.77960  Biso   1.000  C
  C100     1.0000 0.55200  0.29194  0.72040  Biso   1.000  C
  C101     1.0000 0.04040  0.16435  0.14160  Biso   1.000  C
  C102     1.0000 0.45960  0.66435  0.35840  Biso   1.000  C
  C103     1.0000 0.95960  0.83565  0.85840  Biso   1.000  C
  C104     1.0000 0.54040  0.33565  0.64160  Biso   1.000  C
  H57      1.0000 0.05400  0.17040  0.06280  Biso   1.000  H
  H58      1.0000 0.44600  0.67040  0.43720  Biso   1.000  H
  H59      1.0000 0.94600  0.82960  0.93720  Biso   1.000  H
  H60      1.0000 0.55400  0.32960  0.56280  Biso   1.000  H
  C105     1.0000 0.00860  0.11213  0.18000  Biso   1.000  C
  C106     1.0000 0.49140  0.61213  0.32000  Biso   1.000  C
  C107     1.0000 0.99140  0.88787  0.82000  Biso   1.000  C
  C108     1.0000 0.50860  0.38787  0.68000  Biso   1.000  C
  H61      1.0000 0.00080  0.08320  0.12710  Biso   1.000  H
  H62      1.0000 0.49920  0.58320  0.37290  Biso   1.000  H
  H63      1.0000 0.99920  0.91680  0.87290  Biso   1.000  H
  H64      1.0000 0.50080  0.41680  0.62710  Biso   1.000  H
  C109     1.0000 0.98870  0.10309  0.29710  Biso   1.000  C
  C110     1.0000 0.51130  0.60309  0.20290  Biso   1.000  C
  C111     1.0000 0.01130  0.89691  0.70290  Biso   1.000  C
  C112     1.0000 0.48870  0.39691  0.79710  Biso   1.000  C
  H65      1.0000 0.96810  0.06790  0.32300  Biso   1.000  H
  H66      1.0000 0.53190  0.56790  0.17700  Biso   1.000  H
  H67      1.0000 0.03190  0.93210  0.67700  Biso   1.000  H
  H68      1.0000 0.46810  0.43210  0.82300  Biso   1.000  H
  C113     1.0000 0.99910  0.14586  0.37570  Biso   1.000  C
  C114     1.0000 0.50090  0.64586  0.12430  Biso   1.000  C
  C115     1.0000 0.00090  0.85414  0.62430  Biso   1.000  C
  C116     1.0000 0.49910  0.35414  0.87570  Biso   1.000  C
  H69      1.0000 0.98460  0.13950  0.45420  Biso   1.000  H
  H70      1.0000 0.51540  0.63950  0.04580  Biso   1.000  H
  H71      1.0000 0.01540  0.86050  0.54580  Biso   1.000  H
  H72      1.0000 0.48460  0.36050  0.95420  Biso   1.000  H
  C117     1.0000 0.03100  0.19819  0.33821  Biso   1.000  C
  C118     1.0000 0.46900  0.69819  0.16179  Biso   1.000  C
  C119     1.0000 0.96900  0.80181  0.66179  Biso   1.000  C
  C120     1.0000 0.53100  0.30181  0.83821  Biso   1.000  C
  H73      1.0000 0.03860  0.22680  0.39170  Biso   1.000  H
  H74      1.0000 0.46140  0.72680  0.10830  Biso   1.000  H
  H75      1.0000 0.96140  0.77320  0.60830  Biso   1.000  H
  H76      1.0000 0.53860  0.27320  0.89170  Biso   1.000  H
  Cu1      1.0000 0.89780  0.33107  0.35924  Biso   1.000  Cu
  Cu2      1.0000 0.60220  0.83107  0.14076  Biso   1.000  Cu
  Cu3      1.0000 0.10220  0.66893  0.64076  Biso   1.000  Cu
  Cu4      1.0000 0.39780  0.16893  0.85924  Biso   1.000  Cu
  N1       1.0000 0.77413  0.37198  0.23528  Biso   1.000  N
  N2       1.0000 0.72587  0.87198  0.26472  Biso   1.000  N
  N3       1.0000 0.22587  0.62802  0.76472  Biso   1.000  N
  N4       1.0000 0.27413  0.12802  0.73528  Biso   1.000  N
  N5       1.0000 0.84345  0.40995  0.17163  Biso   1.000  N
  N6       1.0000 0.65655  0.90995  0.32837  Biso   1.000  N
  N7       1.0000 0.15655  0.59005  0.82837  Biso   1.000  N
  N8       1.0000 0.34345  0.09005  0.67163  Biso   1.000  N
  N9       1.0000 0.37580  0.46291  0.07442  Biso   1.000  N
  N10      1.0000 0.12420  0.96291  0.42558  Biso   1.000  N
  N11      1.0000 0.62420  0.53709  0.92558  Biso   1.000  N
  N12      1.0000 0.87580  0.03709  0.57442  Biso   1.000  N
  N13      1.0000 0.00910  0.40389  0.40020  Biso   1.000  N
  N14      1.0000 0.49090  0.90389  0.09980  Biso   1.000  N
  N15      1.0000 0.99090  0.59611  0.59980  Biso   1.000  N
  N16      1.0000 0.50910  0.09611  0.90020  Biso   1.000  N
  N17      1.0000 0.05698  0.42890  0.30284  Biso   1.000  N
  N18      1.0000 0.44302  0.92890  0.19716  Biso   1.000  N
  N19      1.0000 0.94302  0.57110  0.69716  Biso   1.000  N
  N20      1.0000 0.55698  0.07110  0.80284  Biso   1.000  N
  N21      1.0000 0.34100  0.53053  0.56805  Biso   1.000  N
  N22      1.0000 0.15900  0.03053  0.93195  Biso   1.000  N
  N23      1.0000 0.65900  0.46947  0.43195  Biso   1.000  N
  N24      1.0000 0.84100  0.96947  0.06805  Biso   1.000  N
  N25      1.0000 0.02158  0.30830  0.22170  Biso   1.000  N
  N26      1.0000 0.47842  0.80830  0.27830  Biso   1.000  N
  N27      1.0000 0.97842  0.69170  0.77830  Biso   1.000  N
  N28      1.0000 0.52158  0.19170  0.72170  Biso   1.000  N
  N29      1.0000 0.06352  0.35234  0.15743  Biso   1.000  N
  N30      1.0000 0.43648  0.85234  0.34257  Biso   1.000  N
  N31      1.0000 0.93648  0.64766  0.84257  Biso   1.000  N
  N32      1.0000 0.56352  0.14766  0.65743  Biso   1.000  N
  N33      1.0000 0.31885  0.21680  0.96641  Biso   1.000  N
  N34      1.0000 0.18115  0.71680  0.53359  Biso   1.000  N
  N35      1.0000 0.68115  0.78320  0.03359  Biso   1.000  N
  N36      1.0000 0.81885  0.28320  0.46641  Biso   1.000  N
