data_image0
_cell_length_a       29.696
_cell_length_b       8.3122
_cell_length_c       26.116
_cell_angle_alpha    90
_cell_angle_beta     101.192
_cell_angle_gamma    90

_symmetry_space_group_name_H-M    "P 1"
_symmetry_int_tables_number       1

loop_
  _symmetry_equiv_pos_as_xyz
  'x, y, z'

loop_
  _atom_site_label
  _atom_site_occupancy
  _atom_site_fract_x
  _atom_site_fract_y
  _atom_site_fract_z
  _atom_site_thermal_displace_type
  _atom_site_B_iso_or_equiv
  _atom_site_type_symbol
  Y1       1.0000 0.05026  0.91030  0.30478  Biso   1.000  Y
  Y2       1.0000 0.55026  0.41030  0.30478  Biso   1.000  Y
  Y3       1.0000 0.94974  0.91030  0.19522  Biso   1.000  Y
  Y4       1.0000 0.44974  0.41030  0.19522  Biso   1.000  Y
  Y5       1.0000 0.94974  0.08970  0.69522  Biso   1.000  Y
  Y6       1.0000 0.44974  0.58970  0.69522  Biso   1.000  Y
  Y7       1.0000 0.05026  0.08970  0.80478  Biso   1.000  Y
  Y8       1.0000 0.55026  0.58970  0.80478  Biso   1.000  Y
  Y9       1.0000 0.96093  0.23730  0.29808  Biso   1.000  Y
  Y10      1.0000 0.46093  0.73730  0.29808  Biso   1.000  Y
  Y11      1.0000 0.03907  0.23730  0.20192  Biso   1.000  Y
  Y12      1.0000 0.53907  0.73730  0.20192  Biso   1.000  Y
  Y13      1.0000 0.03907  0.76270  0.70192  Biso   1.000  Y
  Y14      1.0000 0.53907  0.26270  0.70192  Biso   1.000  Y
  Y15      1.0000 0.96093  0.76270  0.79808  Biso   1.000  Y
  Y16      1.0000 0.46093  0.26270  0.79808  Biso   1.000  Y
  Cu1      1.0000 0.24571  0.90964  0.10493  Biso   1.000  Cu
  Cu2      1.0000 0.74571  0.40964  0.10493  Biso   1.000  Cu
  Cu3      1.0000 0.75429  0.90964  0.39507  Biso   1.000  Cu
  Cu4      1.0000 0.25429  0.40964  0.39507  Biso   1.000  Cu
  Cu5      1.0000 0.75429  0.09036  0.89507  Biso   1.000  Cu
  Cu6      1.0000 0.25429  0.59036  0.89507  Biso   1.000  Cu
  Cu7      1.0000 0.24571  0.09036  0.60493  Biso   1.000  Cu
  Cu8      1.0000 0.74571  0.59036  0.60493  Biso   1.000  Cu
  Cu9      1.0000 0.20806  0.20276  0.51166  Biso   1.000  Cu
  Cu10     1.0000 0.70806  0.70276  0.51166  Biso   1.000  Cu
  Cu11     1.0000 0.79194  0.20276  0.98834  Biso   1.000  Cu
  Cu12     1.0000 0.29194  0.70276  0.98834  Biso   1.000  Cu
  Cu13     1.0000 0.79194  0.79724  0.48834  Biso   1.000  Cu
  Cu14     1.0000 0.29194  0.29724  0.48834  Biso   1.000  Cu
  Cu15     1.0000 0.20806  0.79724  0.01166  Biso   1.000  Cu
  Cu16     1.0000 0.70806  0.29724  0.01166  Biso   1.000  Cu
  I1       1.0000 0.18551  0.09301  0.04663  Biso   1.000  I
  I2       1.0000 0.68551  0.59301  0.04663  Biso   1.000  I
  I3       1.0000 0.81449  0.09301  0.45337  Biso   1.000  I
  I4       1.0000 0.31449  0.59301  0.45337  Biso   1.000  I
  I5       1.0000 0.81449  0.90699  0.95337  Biso   1.000  I
  I6       1.0000 0.31449  0.40699  0.95337  Biso   1.000  I
  I7       1.0000 0.18551  0.90699  0.54663  Biso   1.000  I
  I8       1.0000 0.68551  0.40699  0.54663  Biso   1.000  I
  I9       1.0000 0.26277  0.61369  0.07736  Biso   1.000  I
  I10      1.0000 0.76277  0.11369  0.07736  Biso   1.000  I
  I11      1.0000 0.73723  0.61369  0.42264  Biso   1.000  I
  I12      1.0000 0.23723  0.11369  0.42264  Biso   1.000  I
  I13      1.0000 0.73723  0.38631  0.92264  Biso   1.000  I
  I14      1.0000 0.23723  0.88631  0.92264  Biso   1.000  I
  I15      1.0000 0.26277  0.38631  0.57736  Biso   1.000  I
  I16      1.0000 0.76277  0.88631  0.57736  Biso   1.000  I
  C1       1.0000 0.13209  0.03120  0.24273  Biso   1.000  C
  C2       1.0000 0.63209  0.53120  0.24273  Biso   1.000  C
  C3       1.0000 0.86791  0.03120  0.25727  Biso   1.000  C
  C4       1.0000 0.36791  0.53120  0.25727  Biso   1.000  C
  C5       1.0000 0.86791  0.96880  0.75727  Biso   1.000  C
  C6       1.0000 0.36791  0.46880  0.75727  Biso   1.000  C
  C7       1.0000 0.13209  0.96880  0.74273  Biso   1.000  C
  C8       1.0000 0.63209  0.46880  0.74273  Biso   1.000  C
  C9       1.0000 0.17626  0.95650  0.23514  Biso   1.000  C
  C10      1.0000 0.67626  0.45650  0.23514  Biso   1.000  C
  C11      1.0000 0.82374  0.95650  0.26486  Biso   1.000  C
  C12      1.0000 0.32374  0.45650  0.26486  Biso   1.000  C
  C13      1.0000 0.82374  0.04350  0.76486  Biso   1.000  C
  C14      1.0000 0.32374  0.54350  0.76486  Biso   1.000  C
  C15      1.0000 0.17626  0.04350  0.73514  Biso   1.000  C
  C16      1.0000 0.67626  0.54350  0.73514  Biso   1.000  C
  C17      1.0000 0.18933  0.95910  0.18722  Biso   1.000  C
  C18      1.0000 0.68933  0.45910  0.18722  Biso   1.000  C
  C19      1.0000 0.81067  0.95910  0.31278  Biso   1.000  C
  C20      1.0000 0.31067  0.45910  0.31278  Biso   1.000  C
  C21      1.0000 0.81067  0.04090  0.81278  Biso   1.000  C
  C22      1.0000 0.31067  0.54090  0.81278  Biso   1.000  C
  C23      1.0000 0.18933  0.04090  0.68722  Biso   1.000  C
  C24      1.0000 0.68933  0.54090  0.68722  Biso   1.000  C
  H1       1.0000 0.17040  0.01260  0.15990  Biso   1.000  H
  H2       1.0000 0.67040  0.51260  0.15990  Biso   1.000  H
  H3       1.0000 0.82960  0.01260  0.34010  Biso   1.000  H
  H4       1.0000 0.32960  0.51260  0.34010  Biso   1.000  H
  H5       1.0000 0.82960  0.98740  0.84010  Biso   1.000  H
  H6       1.0000 0.32960  0.48740  0.84010  Biso   1.000  H
  H7       1.0000 0.17040  0.98740  0.65990  Biso   1.000  H
  H8       1.0000 0.67040  0.48740  0.65990  Biso   1.000  H
  C25      1.0000 0.25410  0.81260  0.21770  Biso   1.000  C
  C26      1.0000 0.75410  0.31260  0.21770  Biso   1.000  C
  C27      1.0000 0.74590  0.81260  0.28230  Biso   1.000  C
  C28      1.0000 0.24590  0.31260  0.28230  Biso   1.000  C
  C29      1.0000 0.74590  0.18740  0.78230  Biso   1.000  C
  C30      1.0000 0.24590  0.68740  0.78230  Biso   1.000  C
  C31      1.0000 0.25410  0.18740  0.71770  Biso   1.000  C
  C32      1.0000 0.75410  0.68740  0.71770  Biso   1.000  C
  H9       1.0000 0.28030  0.76050  0.21160  Biso   1.000  H
  H10      1.0000 0.78030  0.26050  0.21160  Biso   1.000  H
  H11      1.0000 0.71970  0.76050  0.28840  Biso   1.000  H
  H12      1.0000 0.21970  0.26050  0.28840  Biso   1.000  H
  H13      1.0000 0.71970  0.23950  0.78840  Biso   1.000  H
  H14      1.0000 0.21970  0.73950  0.78840  Biso   1.000  H
  H15      1.0000 0.28030  0.23950  0.71160  Biso   1.000  H
  H16      1.0000 0.78030  0.73950  0.71160  Biso   1.000  H
  C33      1.0000 0.24450  0.80730  0.26760  Biso   1.000  C
  C34      1.0000 0.74450  0.30730  0.26760  Biso   1.000  C
  C35      1.0000 0.75550  0.80730  0.23240  Biso   1.000  C
  C36      1.0000 0.25550  0.30730  0.23240  Biso   1.000  C
  C37      1.0000 0.75550  0.19270  0.73240  Biso   1.000  C
  C38      1.0000 0.25550  0.69270  0.73240  Biso   1.000  C
  C39      1.0000 0.24450  0.19270  0.76760  Biso   1.000  C
  C40      1.0000 0.74450  0.69270  0.76760  Biso   1.000  C
  H17      1.0000 0.26440  0.75660  0.29460  Biso   1.000  H
  H18      1.0000 0.76440  0.25660  0.29460  Biso   1.000  H
  H19      1.0000 0.73560  0.75660  0.20540  Biso   1.000  H
  H20      1.0000 0.23560  0.25660  0.20540  Biso   1.000  H
  H21      1.0000 0.73560  0.24340  0.70540  Biso   1.000  H
  H22      1.0000 0.23560  0.74340  0.70540  Biso   1.000  H
  H23      1.0000 0.26440  0.24340  0.79460  Biso   1.000  H
  H24      1.0000 0.76440  0.74340  0.79460  Biso   1.000  H
  C41      1.0000 0.20483  0.87820  0.27630  Biso   1.000  C
  C42      1.0000 0.70483  0.37820  0.27630  Biso   1.000  C
  C43      1.0000 0.79517  0.87820  0.22370  Biso   1.000  C
  C44      1.0000 0.29517  0.37820  0.22370  Biso   1.000  C
  C45      1.0000 0.79517  0.12180  0.72370  Biso   1.000  C
  C46      1.0000 0.29517  0.62180  0.72370  Biso   1.000  C
  C47      1.0000 0.20483  0.12180  0.77630  Biso   1.000  C
  C48      1.0000 0.70483  0.62180  0.77630  Biso   1.000  C
  H25      1.0000 0.19720  0.87410  0.30920  Biso   1.000  H
  H26      1.0000 0.69720  0.37410  0.30920  Biso   1.000  H
  H27      1.0000 0.80280  0.87410  0.19080  Biso   1.000  H
  H28      1.0000 0.30280  0.37410  0.19080  Biso   1.000  H
  H29      1.0000 0.80280  0.12590  0.69080  Biso   1.000  H
  H30      1.0000 0.30280  0.62590  0.69080  Biso   1.000  H
  H31      1.0000 0.19720  0.12590  0.80920  Biso   1.000  H
  H32      1.0000 0.69720  0.62590  0.80920  Biso   1.000  H
  C49      1.0000 0.03901  0.14180  0.40037  Biso   1.000  C
  C50      1.0000 0.53901  0.64180  0.40037  Biso   1.000  C
  C51      1.0000 0.96099  0.14180  0.09963  Biso   1.000  C
  C52      1.0000 0.46099  0.64180  0.09963  Biso   1.000  C
  C53      1.0000 0.96099  0.85820  0.59963  Biso   1.000  C
  C54      1.0000 0.46099  0.35820  0.59963  Biso   1.000  C
  C55      1.0000 0.03901  0.85820  0.90037  Biso   1.000  C
  C56      1.0000 0.53901  0.35820  0.90037  Biso   1.000  C
  C57      1.0000 0.06931  0.25400  0.43747  Biso   1.000  C
  C58      1.0000 0.56931  0.75400  0.43747  Biso   1.000  C
  C59      1.0000 0.93069  0.25400  0.06253  Biso   1.000  C
  C60      1.0000 0.43069  0.75400  0.06253  Biso   1.000  C
  C61      1.0000 0.93069  0.74600  0.56253  Biso   1.000  C
  C62      1.0000 0.43069  0.24600  0.56253  Biso   1.000  C
  C63      1.0000 0.06931  0.74600  0.93747  Biso   1.000  C
  C64      1.0000 0.56931  0.24600  0.93747  Biso   1.000  C
  C65      1.0000 0.11442  0.21270  0.45504  Biso   1.000  C
  C66      1.0000 0.61442  0.71270  0.45504  Biso   1.000  C
  C67      1.0000 0.88558  0.21270  0.04496  Biso   1.000  C
  C68      1.0000 0.38558  0.71270  0.04496  Biso   1.000  C
  C69      1.0000 0.88558  0.78730  0.54496  Biso   1.000  C
  C70      1.0000 0.38558  0.28730  0.54496  Biso   1.000  C
  C71      1.0000 0.11442  0.78730  0.95504  Biso   1.000  C
  C72      1.0000 0.61442  0.28730  0.95504  Biso   1.000  C
  H33      1.0000 0.12420  0.11270  0.44550  Biso   1.000  H
  H34      1.0000 0.62420  0.61270  0.44550  Biso   1.000  H
  H35      1.0000 0.87580  0.11270  0.05450  Biso   1.000  H
  H36      1.0000 0.37580  0.61270  0.05450  Biso   1.000  H
  H37      1.0000 0.87580  0.88730  0.55450  Biso   1.000  H
  H38      1.0000 0.37580  0.38730  0.55450  Biso   1.000  H
  H39      1.0000 0.12420  0.88730  0.94550  Biso   1.000  H
  H40      1.0000 0.62420  0.38730  0.94550  Biso   1.000  H
  C73      1.0000 0.13080  0.45050  0.49710  Biso   1.000  C
  C74      1.0000 0.63080  0.95050  0.49710  Biso   1.000  C
  C75      1.0000 0.86920  0.45050  0.00290  Biso   1.000  C
  C76      1.0000 0.36920  0.95050  0.00290  Biso   1.000  C
  C77      1.0000 0.86920  0.54950  0.50290  Biso   1.000  C
  C78      1.0000 0.36920  0.04950  0.50290  Biso   1.000  C
  C79      1.0000 0.13080  0.54950  0.99710  Biso   1.000  C
  C80      1.0000 0.63080  0.04950  0.99710  Biso   1.000  C
  H41      1.0000 0.15180  0.52020  0.51670  Biso   1.000  H
  H42      1.0000 0.65180  0.02020  0.51670  Biso   1.000  H
  H43      1.0000 0.84820  0.52020  0.98330  Biso   1.000  H
  H44      1.0000 0.34820  0.02020  0.98330  Biso   1.000  H
  H45      1.0000 0.84820  0.47980  0.48330  Biso   1.000  H
  H46      1.0000 0.34820  0.97980  0.48330  Biso   1.000  H
  H47      1.0000 0.15180  0.47980  0.01670  Biso   1.000  H
  H48      1.0000 0.65180  0.97980  0.01670  Biso   1.000  H
  C81      1.0000 0.08580  0.50050  0.48190  Biso   1.000  C
  C82      1.0000 0.58580  0.00050  0.48190  Biso   1.000  C
  C83      1.0000 0.91420  0.50050  0.01810  Biso   1.000  C
  C84      1.0000 0.41420  0.00050  0.01810  Biso   1.000  C
  C85      1.0000 0.91420  0.49950  0.51810  Biso   1.000  C
  C86      1.0000 0.41420  0.99950  0.51810  Biso   1.000  C
  C87      1.0000 0.08580  0.49950  0.98190  Biso   1.000  C
  C88      1.0000 0.58580  0.99950  0.98190  Biso   1.000  C
  H49      1.0000 0.07700  0.60150  0.49170  Biso   1.000  H
  H50      1.0000 0.57700  0.10150  0.49170  Biso   1.000  H
  H51      1.0000 0.92300  0.60150  0.00830  Biso   1.000  H
  H52      1.0000 0.42300  0.10150  0.00830  Biso   1.000  H
  H53      1.0000 0.92300  0.39850  0.50830  Biso   1.000  H
  H54      1.0000 0.42300  0.89850  0.50830  Biso   1.000  H
  H55      1.0000 0.07700  0.39850  0.99170  Biso   1.000  H
  H56      1.0000 0.57700  0.89850  0.99170  Biso   1.000  H
  C89      1.0000 0.05430  0.40150  0.45250  Biso   1.000  C
  C90      1.0000 0.55430  0.90150  0.45250  Biso   1.000  C
  C91      1.0000 0.94570  0.40150  0.04750  Biso   1.000  C
  C92      1.0000 0.44570  0.90150  0.04750  Biso   1.000  C
  C93      1.0000 0.94570  0.59850  0.54750  Biso   1.000  C
  C94      1.0000 0.44570  0.09850  0.54750  Biso   1.000  C
  C95      1.0000 0.05430  0.59850  0.95250  Biso   1.000  C
  C96      1.0000 0.55430  0.09850  0.95250  Biso   1.000  C
  H57      1.0000 0.02370  0.43210  0.44280  Biso   1.000  H
  H58      1.0000 0.52370  0.93210  0.44280  Biso   1.000  H
  H59      1.0000 0.97630  0.43210  0.05720  Biso   1.000  H
  H60      1.0000 0.47630  0.93210  0.05720  Biso   1.000  H
  H61      1.0000 0.97630  0.56790  0.55720  Biso   1.000  H
  H62      1.0000 0.47630  0.06790  0.55720  Biso   1.000  H
  H63      1.0000 0.02370  0.56790  0.94280  Biso   1.000  H
  H64      1.0000 0.52370  0.06790  0.94280  Biso   1.000  H
  C97      1.0000 0.99112  0.58990  0.34202  Biso   1.000  C
  C98      1.0000 0.49112  0.08990  0.34202  Biso   1.000  C
  C99      1.0000 0.00888  0.58990  0.15798  Biso   1.000  C
  C100     1.0000 0.50888  0.08990  0.15798  Biso   1.000  C
  C101     1.0000 0.00888  0.41010  0.65798  Biso   1.000  C
  C102     1.0000 0.50888  0.91010  0.65798  Biso   1.000  C
  C103     1.0000 0.99112  0.41010  0.84202  Biso   1.000  C
  C104     1.0000 0.49112  0.91010  0.84202  Biso   1.000  C
  C105     1.0000 0.94533  0.58040  0.35837  Biso   1.000  C
  C106     1.0000 0.44533  0.08040  0.35837  Biso   1.000  C
  C107     1.0000 0.05467  0.58040  0.14163  Biso   1.000  C
  C108     1.0000 0.55467  0.08040  0.14163  Biso   1.000  C
  C109     1.0000 0.05467  0.41960  0.64163  Biso   1.000  C
  C110     1.0000 0.55467  0.91960  0.64163  Biso   1.000  C
  C111     1.0000 0.94533  0.41960  0.85837  Biso   1.000  C
  C112     1.0000 0.44533  0.91960  0.85837  Biso   1.000  C
  C113     1.0000 0.92530  0.71240  0.37760  Biso   1.000  C
  C114     1.0000 0.42530  0.21240  0.37760  Biso   1.000  C
  C115     1.0000 0.07470  0.71240  0.12240  Biso   1.000  C
  C116     1.0000 0.57470  0.21240  0.12240  Biso   1.000  C
  C117     1.0000 0.07470  0.28760  0.62240  Biso   1.000  C
  C118     1.0000 0.57470  0.78760  0.62240  Biso   1.000  C
  C119     1.0000 0.92530  0.28760  0.87760  Biso   1.000  C
  C120     1.0000 0.42530  0.78760  0.87760  Biso   1.000  C
  H65      1.0000 0.94220  0.80690  0.38470  Biso   1.000  H
  H66      1.0000 0.44220  0.30690  0.38470  Biso   1.000  H
  H67      1.0000 0.05780  0.80690  0.11530  Biso   1.000  H
  H68      1.0000 0.55780  0.30690  0.11530  Biso   1.000  H
  H69      1.0000 0.05780  0.19310  0.61530  Biso   1.000  H
  H70      1.0000 0.55780  0.69310  0.61530  Biso   1.000  H
  H71      1.0000 0.94220  0.19310  0.88470  Biso   1.000  H
  H72      1.0000 0.44220  0.69310  0.88470  Biso   1.000  H
  C121     1.0000 0.86040  0.56760  0.37650  Biso   1.000  C
  C122     1.0000 0.36040  0.06760  0.37650  Biso   1.000  C
  C123     1.0000 0.13960  0.56760  0.12350  Biso   1.000  C
  C124     1.0000 0.63960  0.06760  0.12350  Biso   1.000  C
  C125     1.0000 0.13960  0.43240  0.62350  Biso   1.000  C
  C126     1.0000 0.63960  0.93240  0.62350  Biso   1.000  C
  C127     1.0000 0.86040  0.43240  0.87650  Biso   1.000  C
  C128     1.0000 0.36040  0.93240  0.87650  Biso   1.000  C
  H73      1.0000 0.83020  0.55990  0.38090  Biso   1.000  H
  H74      1.0000 0.33020  0.05990  0.38090  Biso   1.000  H
  H75      1.0000 0.16980  0.55990  0.11910  Biso   1.000  H
  H76      1.0000 0.66980  0.05990  0.11910  Biso   1.000  H
  H77      1.0000 0.16980  0.44010  0.61910  Biso   1.000  H
  H78      1.0000 0.66980  0.94010  0.61910  Biso   1.000  H
  H79      1.0000 0.83020  0.44010  0.88090  Biso   1.000  H
  H80      1.0000 0.33020  0.94010  0.88090  Biso   1.000  H
  C129     1.0000 0.88088  0.43440  0.36010  Biso   1.000  C
  C130     1.0000 0.38088  0.93440  0.36010  Biso   1.000  C
  C131     1.0000 0.11912  0.43440  0.13990  Biso   1.000  C
  C132     1.0000 0.61912  0.93440  0.13990  Biso   1.000  C
  C133     1.0000 0.11912  0.56560  0.63990  Biso   1.000  C
  C134     1.0000 0.61912  0.06560  0.63990  Biso   1.000  C
  C135     1.0000 0.88088  0.56560  0.86010  Biso   1.000  C
  C136     1.0000 0.38088  0.06560  0.86010  Biso   1.000  C
  H81      1.0000 0.86490  0.33770  0.35590  Biso   1.000  H
  H82      1.0000 0.36490  0.83770  0.35590  Biso   1.000  H
  H83      1.0000 0.13510  0.33770  0.14410  Biso   1.000  H
  H84      1.0000 0.63510  0.83770  0.14410  Biso   1.000  H
  H85      1.0000 0.13510  0.66230  0.64410  Biso   1.000  H
  H86      1.0000 0.63510  0.16230  0.64410  Biso   1.000  H
  H87      1.0000 0.86490  0.66230  0.85590  Biso   1.000  H
  H88      1.0000 0.36490  0.16230  0.85590  Biso   1.000  H
  C137     1.0000 0.08746  0.56130  0.27806  Biso   1.000  C
  C138     1.0000 0.58746  0.06130  0.27806  Biso   1.000  C
  C139     1.0000 0.91254  0.56130  0.22194  Biso   1.000  C
  C140     1.0000 0.41254  0.06130  0.22194  Biso   1.000  C
  C141     1.0000 0.91254  0.43870  0.72194  Biso   1.000  C
  C142     1.0000 0.41254  0.93870  0.72194  Biso   1.000  C
  C143     1.0000 0.08746  0.43870  0.77806  Biso   1.000  C
  C144     1.0000 0.58746  0.93870  0.77806  Biso   1.000  C
  C145     1.0000 0.12143  0.59350  0.32786  Biso   1.000  C
  C146     1.0000 0.62143  0.09350  0.32786  Biso   1.000  C
  C147     1.0000 0.87857  0.59350  0.17214  Biso   1.000  C
  C148     1.0000 0.37857  0.09350  0.17214  Biso   1.000  C
  C149     1.0000 0.87857  0.40650  0.67214  Biso   1.000  C
  C150     1.0000 0.37857  0.90650  0.67214  Biso   1.000  C
  C151     1.0000 0.12143  0.40650  0.82786  Biso   1.000  C
  C152     1.0000 0.62143  0.90650  0.82786  Biso   1.000  C
  C153     1.0000 0.15826  0.49410  0.34502  Biso   1.000  C
  C154     1.0000 0.65826  0.99410  0.34502  Biso   1.000  C
  C155     1.0000 0.84174  0.49410  0.15498  Biso   1.000  C
  C156     1.0000 0.34174  0.99410  0.15498  Biso   1.000  C
  C157     1.0000 0.84174  0.50590  0.65498  Biso   1.000  C
  C158     1.0000 0.34174  0.00590  0.65498  Biso   1.000  C
  C159     1.0000 0.15826  0.50590  0.84502  Biso   1.000  C
  C160     1.0000 0.65826  0.00590  0.84502  Biso   1.000  C
  H89      1.0000 0.15990  0.39660  0.32800  Biso   1.000  H
  H90      1.0000 0.65990  0.89660  0.32800  Biso   1.000  H
  H91      1.0000 0.84010  0.39660  0.17200  Biso   1.000  H
  H92      1.0000 0.34010  0.89660  0.17200  Biso   1.000  H
  H93      1.0000 0.84010  0.60340  0.67200  Biso   1.000  H
  H94      1.0000 0.34010  0.10340  0.67200  Biso   1.000  H
  H95      1.0000 0.15990  0.60340  0.82800  Biso   1.000  H
  H96      1.0000 0.65990  0.10340  0.82800  Biso   1.000  H
  C161     1.0000 0.18539  0.66700  0.41113  Biso   1.000  C
  C162     1.0000 0.68539  0.16700  0.41113  Biso   1.000  C
  C163     1.0000 0.81461  0.66700  0.08887  Biso   1.000  C
  C164     1.0000 0.31461  0.16700  0.08887  Biso   1.000  C
  C165     1.0000 0.81461  0.33300  0.58887  Biso   1.000  C
  C166     1.0000 0.31461  0.83300  0.58887  Biso   1.000  C
  C167     1.0000 0.18539  0.33300  0.91113  Biso   1.000  C
  C168     1.0000 0.68539  0.83300  0.91113  Biso   1.000  C
  H97      1.0000 0.20730  0.69710  0.44000  Biso   1.000  H
  H98      1.0000 0.70730  0.19710  0.44000  Biso   1.000  H
  H99      1.0000 0.79270  0.69710  0.06000  Biso   1.000  H
  H100     1.0000 0.29270  0.19710  0.06000  Biso   1.000  H
  H101     1.0000 0.79270  0.30290  0.56000  Biso   1.000  H
  H102     1.0000 0.29270  0.80290  0.56000  Biso   1.000  H
  H103     1.0000 0.20730  0.30290  0.94000  Biso   1.000  H
  H104     1.0000 0.70730  0.80290  0.94000  Biso   1.000  H
  C169     1.0000 0.14708  0.76220  0.39604  Biso   1.000  C
  C170     1.0000 0.64708  0.26220  0.39604  Biso   1.000  C
  C171     1.0000 0.85292  0.76220  0.10396  Biso   1.000  C
  C172     1.0000 0.35292  0.26220  0.10396  Biso   1.000  C
  C173     1.0000 0.85292  0.23780  0.60396  Biso   1.000  C
  C174     1.0000 0.35292  0.73780  0.60396  Biso   1.000  C
  C175     1.0000 0.14708  0.23780  0.89604  Biso   1.000  C
  C176     1.0000 0.64708  0.73780  0.89604  Biso   1.000  C
  H105     1.0000 0.14310  0.85150  0.41610  Biso   1.000  H
  H106     1.0000 0.64310  0.35150  0.41610  Biso   1.000  H
  H107     1.0000 0.85690  0.85150  0.08390  Biso   1.000  H
  H108     1.0000 0.35690  0.35150  0.08390  Biso   1.000  H
  H109     1.0000 0.85690  0.14850  0.58390  Biso   1.000  H
  H110     1.0000 0.35690  0.64850  0.58390  Biso   1.000  H
  H111     1.0000 0.14310  0.14850  0.91610  Biso   1.000  H
  H112     1.0000 0.64310  0.64850  0.91610  Biso   1.000  H
  N1       1.0000 0.22744  0.88960  0.17754  Biso   1.000  N
  N2       1.0000 0.72744  0.38960  0.17754  Biso   1.000  N
  N3       1.0000 0.77256  0.88960  0.32246  Biso   1.000  N
  N4       1.0000 0.27256  0.38960  0.32246  Biso   1.000  N
  N5       1.0000 0.77256  0.11040  0.82246  Biso   1.000  N
  N6       1.0000 0.27256  0.61040  0.82246  Biso   1.000  N
  N7       1.0000 0.22744  0.11040  0.67754  Biso   1.000  N
  N8       1.0000 0.72744  0.61040  0.67754  Biso   1.000  N
  N9       1.0000 0.14500  0.30720  0.48485  Biso   1.000  N
  N10      1.0000 0.64500  0.80720  0.48485  Biso   1.000  N
  N11      1.0000 0.85500  0.30720  0.01515  Biso   1.000  N
  N12      1.0000 0.35500  0.80720  0.01515  Biso   1.000  N
  N13      1.0000 0.85500  0.69280  0.51515  Biso   1.000  N
  N14      1.0000 0.35500  0.19280  0.51515  Biso   1.000  N
  N15      1.0000 0.14500  0.69280  0.98485  Biso   1.000  N
  N16      1.0000 0.64500  0.19280  0.98485  Biso   1.000  N
  N17      1.0000 0.92303  0.44010  0.35002  Biso   1.000  N
  N18      1.0000 0.42303  0.94010  0.35002  Biso   1.000  N
  N19      1.0000 0.07697  0.44010  0.14998  Biso   1.000  N
  N20      1.0000 0.57697  0.94010  0.14998  Biso   1.000  N
  N21      1.0000 0.07697  0.55990  0.64998  Biso   1.000  N
  N22      1.0000 0.57697  0.05990  0.64998  Biso   1.000  N
  N23      1.0000 0.92303  0.55990  0.85002  Biso   1.000  N
  N24      1.0000 0.42303  0.05990  0.85002  Biso   1.000  N
  N25      1.0000 0.88210  0.70700  0.38630  Biso   1.000  N
  N26      1.0000 0.38210  0.20700  0.38630  Biso   1.000  N
  N27      1.0000 0.11790  0.70700  0.11370  Biso   1.000  N
  N28      1.0000 0.61790  0.20700  0.11370  Biso   1.000  N
  N29      1.0000 0.11790  0.29300  0.61370  Biso   1.000  N
  N30      1.0000 0.61790  0.79300  0.61370  Biso   1.000  N
  N31      1.0000 0.88210  0.29300  0.88630  Biso   1.000  N
  N32      1.0000 0.38210  0.79300  0.88630  Biso   1.000  N
  N33      1.0000 0.19190  0.53230  0.38527  Biso   1.000  N
  N34      1.0000 0.69190  0.03230  0.38527  Biso   1.000  N
  N35      1.0000 0.80810  0.53230  0.11473  Biso   1.000  N
  N36      1.0000 0.30810  0.03230  0.11473  Biso   1.000  N
  N37      1.0000 0.80810  0.46770  0.61473  Biso   1.000  N
  N38      1.0000 0.30810  0.96770  0.61473  Biso   1.000  N
  N39      1.0000 0.19190  0.46770  0.88527  Biso   1.000  N
  N40      1.0000 0.69190  0.96770  0.88527  Biso   1.000  N
  N41      1.0000 0.11563  0.73000  0.35363  Biso   1.000  N
  N42      1.0000 0.61563  0.23000  0.35363  Biso   1.000  N
  N43      1.0000 0.88437  0.73000  0.14637  Biso   1.000  N
  N44      1.0000 0.38437  0.23000  0.14637  Biso   1.000  N
  N45      1.0000 0.88437  0.27000  0.64637  Biso   1.000  N
  N46      1.0000 0.38437  0.77000  0.64637  Biso   1.000  N
  N47      1.0000 0.11563  0.27000  0.85363  Biso   1.000  N
  N48      1.0000 0.61563  0.77000  0.85363  Biso   1.000  N
  O1       1.0000 0.11138  0.12090  0.20678  Biso   1.000  O
  O2       1.0000 0.61138  0.62090  0.20678  Biso   1.000  O
  O3       1.0000 0.88862  0.12090  0.29322  Biso   1.000  O
  O4       1.0000 0.38862  0.62090  0.29322  Biso   1.000  O
  O5       1.0000 0.88862  0.87910  0.79322  Biso   1.000  O
  O6       1.0000 0.38862  0.37910  0.79322  Biso   1.000  O
  O7       1.0000 0.11138  0.87910  0.70678  Biso   1.000  O
  O8       1.0000 0.61138  0.37910  0.70678  Biso   1.000  O
  O9       1.0000 0.11908  0.99820  0.28455  Biso   1.000  O
  O10      1.0000 0.61908  0.49820  0.28455  Biso   1.000  O
  O11      1.0000 0.88092  0.99820  0.21545  Biso   1.000  O
  O12      1.0000 0.38092  0.49820  0.21545  Biso   1.000  O
  O13      1.0000 0.88092  0.00180  0.71545  Biso   1.000  O
  O14      1.0000 0.38092  0.50180  0.71545  Biso   1.000  O
  O15      1.0000 0.11908  0.00180  0.78455  Biso   1.000  O
  O16      1.0000 0.61908  0.50180  0.78455  Biso   1.000  O
  O17      1.0000 0.05889  0.02040  0.38579  Biso   1.000  O
  O18      1.0000 0.55889  0.52040  0.38579  Biso   1.000  O
  O19      1.0000 0.94111  0.02040  0.11421  Biso   1.000  O
  O20      1.0000 0.44111  0.52040  0.11421  Biso   1.000  O
  O21      1.0000 0.94111  0.97960  0.61421  Biso   1.000  O
  O22      1.0000 0.44111  0.47960  0.61421  Biso   1.000  O
  O23      1.0000 0.05889  0.97960  0.88579  Biso   1.000  O
  O24      1.0000 0.55889  0.47960  0.88579  Biso   1.000  O
  O25      1.0000 0.99779  0.17890  0.38441  Biso   1.000  O
  O26      1.0000 0.49779  0.67890  0.38441  Biso   1.000  O
  O27      1.0000 0.00221  0.17890  0.11559  Biso   1.000  O
  O28      1.0000 0.50221  0.67890  0.11559  Biso   1.000  O
  O29      1.0000 0.00221  0.82110  0.61559  Biso   1.000  O
  O30      1.0000 0.50221  0.32110  0.61559  Biso   1.000  O
  O31      1.0000 0.99779  0.82110  0.88441  Biso   1.000  O
  O32      1.0000 0.49779  0.32110  0.88441  Biso   1.000  O
  O33      1.0000 0.00434  0.46630  0.32188  Biso   1.000  O
  O34      1.0000 0.50434  0.96630  0.32188  Biso   1.000  O
  O35      1.0000 0.99566  0.46630  0.17812  Biso   1.000  O
  O36      1.0000 0.49566  0.96630  0.17812  Biso   1.000  O
  O37      1.0000 0.99566  0.53370  0.67812  Biso   1.000  O
  O38      1.0000 0.49566  0.03370  0.67812  Biso   1.000  O
  O39      1.0000 0.00434  0.53370  0.82188  Biso   1.000  O
  O40      1.0000 0.50434  0.03370  0.82188  Biso   1.000  O
  O41      1.0000 0.01285  0.72020  0.34989  Biso   1.000  O
  O42      1.0000 0.51285  0.22020  0.34989  Biso   1.000  O
  O43      1.0000 0.98715  0.72020  0.15011  Biso   1.000  O
  O44      1.0000 0.48715  0.22020  0.15011  Biso   1.000  O
  O45      1.0000 0.98715  0.27980  0.65011  Biso   1.000  O
  O46      1.0000 0.48715  0.77980  0.65011  Biso   1.000  O
  O47      1.0000 0.01285  0.27980  0.84989  Biso   1.000  O
  O48      1.0000 0.51285  0.77980  0.84989  Biso   1.000  O
  O49      1.0000 0.06288  0.67740  0.25946  Biso   1.000  O
  O50      1.0000 0.56288  0.17740  0.25946  Biso   1.000  O
  O51      1.0000 0.93712  0.67740  0.24054  Biso   1.000  O
  O52      1.0000 0.43712  0.17740  0.24054  Biso   1.000  O
  O53      1.0000 0.93712  0.32260  0.74054  Biso   1.000  O
  O54      1.0000 0.43712  0.82260  0.74054  Biso   1.000  O
  O55      1.0000 0.06288  0.32260  0.75946  Biso   1.000  O
  O56      1.0000 0.56288  0.82260  0.75946  Biso   1.000  O
  O57      1.0000 0.08728  0.42270  0.25929  Biso   1.000  O
  O58      1.0000 0.58728  0.92270  0.25929  Biso   1.000  O
  O59      1.0000 0.91272  0.42270  0.24071  Biso   1.000  O
  O60      1.0000 0.41272  0.92270  0.24071  Biso   1.000  O
  O61      1.0000 0.91272  0.57730  0.74071  Biso   1.000  O
  O62      1.0000 0.41272  0.07730  0.74071  Biso   1.000  O
  O63      1.0000 0.08728  0.57730  0.75929  Biso   1.000  O
  O64      1.0000 0.58728  0.07730  0.75929  Biso   1.000  O
  O65      1.0000 0.03655  0.18710  0.28865  Biso   1.000  O
  O66      1.0000 0.53655  0.68710  0.28865  Biso   1.000  O
  O67      1.0000 0.96345  0.18710  0.21135  Biso   1.000  O
  O68      1.0000 0.46345  0.68710  0.21135  Biso   1.000  O
  O69      1.0000 0.96345  0.81290  0.71135  Biso   1.000  O
  O70      1.0000 0.46345  0.31290  0.71135  Biso   1.000  O
  O71      1.0000 0.03655  0.81290  0.78865  Biso   1.000  O
  O72      1.0000 0.53655  0.31290  0.78865  Biso   1.000  O
  O73      1.0000 0.02785  0.96040  0.21447  Biso   1.000  O
  O74      1.0000 0.52785  0.46040  0.21447  Biso   1.000  O
  O75      1.0000 0.97215  0.96040  0.28553  Biso   1.000  O
  O76      1.0000 0.47215  0.46040  0.28553  Biso   1.000  O
  O77      1.0000 0.97215  0.03960  0.78553  Biso   1.000  O
  O78      1.0000 0.47215  0.53960  0.78553  Biso   1.000  O
  O79      1.0000 0.02785  0.03960  0.71447  Biso   1.000  O
  O80      1.0000 0.52785  0.53960  0.71447  Biso   1.000  O
