data_image0
_cell_length_a       29.534
_cell_length_b       8.242
_cell_length_c       26.163
_cell_angle_alpha    90
_cell_angle_beta     101.38
_cell_angle_gamma    90

_symmetry_space_group_name_H-M    "P 1"
_symmetry_int_tables_number       1

loop_
  _symmetry_equiv_pos_as_xyz
  'x, y, z'

loop_
  _atom_site_label
  _atom_site_occupancy
  _atom_site_fract_x
  _atom_site_fract_y
  _atom_site_fract_z
  _atom_site_thermal_displace_type
  _atom_site_B_iso_or_equiv
  _atom_site_type_symbol
  Yb1      1.0000 0.04993  0.90329  0.30383  Biso   1.000  Yb
  Yb2      1.0000 0.54993  0.40329  0.30383  Biso   1.000  Yb
  Yb3      1.0000 0.95007  0.90329  0.19617  Biso   1.000  Yb
  Yb4      1.0000 0.45007  0.40329  0.19617  Biso   1.000  Yb
  Yb5      1.0000 0.95007  0.09671  0.69617  Biso   1.000  Yb
  Yb6      1.0000 0.45007  0.59671  0.69617  Biso   1.000  Yb
  Yb7      1.0000 0.04993  0.09671  0.80383  Biso   1.000  Yb
  Yb8      1.0000 0.54993  0.59671  0.80383  Biso   1.000  Yb
  Yb9      1.0000 0.96162  0.22999  0.29719  Biso   1.000  Yb
  Yb10     1.0000 0.46162  0.72999  0.29719  Biso   1.000  Yb
  Yb11     1.0000 0.03838  0.22999  0.20281  Biso   1.000  Yb
  Yb12     1.0000 0.53838  0.72999  0.20281  Biso   1.000  Yb
  Yb13     1.0000 0.03838  0.77001  0.70281  Biso   1.000  Yb
  Yb14     1.0000 0.53838  0.27001  0.70281  Biso   1.000  Yb
  Yb15     1.0000 0.96162  0.77001  0.79719  Biso   1.000  Yb
  Yb16     1.0000 0.46162  0.27001  0.79719  Biso   1.000  Yb
  Cu1      1.0000 0.24510  0.90643  0.10465  Biso   1.000  Cu
  Cu2      1.0000 0.74510  0.40643  0.10465  Biso   1.000  Cu
  Cu3      1.0000 0.75490  0.90643  0.39535  Biso   1.000  Cu
  Cu4      1.0000 0.25490  0.40643  0.39535  Biso   1.000  Cu
  Cu5      1.0000 0.75490  0.09357  0.89535  Biso   1.000  Cu
  Cu6      1.0000 0.25490  0.59357  0.89535  Biso   1.000  Cu
  Cu7      1.0000 0.24510  0.09357  0.60465  Biso   1.000  Cu
  Cu8      1.0000 0.74510  0.59357  0.60465  Biso   1.000  Cu
  Cu9      1.0000 0.20777  0.20226  0.51110  Biso   1.000  Cu
  Cu10     1.0000 0.70777  0.70226  0.51110  Biso   1.000  Cu
  Cu11     1.0000 0.79223  0.20226  0.98890  Biso   1.000  Cu
  Cu12     1.0000 0.29223  0.70226  0.98890  Biso   1.000  Cu
  Cu13     1.0000 0.79223  0.79774  0.48890  Biso   1.000  Cu
  Cu14     1.0000 0.29223  0.29774  0.48890  Biso   1.000  Cu
  Cu15     1.0000 0.20777  0.79774  0.01110  Biso   1.000  Cu
  Cu16     1.0000 0.70777  0.29774  0.01110  Biso   1.000  Cu
  I1       1.0000 0.18534  0.09559  0.04702  Biso   1.000  I
  I2       1.0000 0.68534  0.59559  0.04702  Biso   1.000  I
  I3       1.0000 0.81466  0.09559  0.45298  Biso   1.000  I
  I4       1.0000 0.31466  0.59559  0.45298  Biso   1.000  I
  I5       1.0000 0.81466  0.90441  0.95298  Biso   1.000  I
  I6       1.0000 0.31466  0.40441  0.95298  Biso   1.000  I
  I7       1.0000 0.18534  0.90441  0.54702  Biso   1.000  I
  I8       1.0000 0.68534  0.40441  0.54702  Biso   1.000  I
  I9       1.0000 0.26202  0.60885  0.07644  Biso   1.000  I
  I10      1.0000 0.76202  0.10885  0.07644  Biso   1.000  I
  I11      1.0000 0.73798  0.60885  0.42356  Biso   1.000  I
  I12      1.0000 0.23798  0.10885  0.42356  Biso   1.000  I
  I13      1.0000 0.73798  0.39115  0.92356  Biso   1.000  I
  I14      1.0000 0.23798  0.89115  0.92356  Biso   1.000  I
  I15      1.0000 0.26202  0.39115  0.57644  Biso   1.000  I
  I16      1.0000 0.76202  0.89115  0.57644  Biso   1.000  I
  C1       1.0000 0.13099  0.02290  0.24150  Biso   1.000  C
  C2       1.0000 0.63099  0.52290  0.24150  Biso   1.000  C
  C3       1.0000 0.86901  0.02290  0.25850  Biso   1.000  C
  C4       1.0000 0.36901  0.52290  0.25850  Biso   1.000  C
  C5       1.0000 0.86901  0.97710  0.75850  Biso   1.000  C
  C6       1.0000 0.36901  0.47710  0.75850  Biso   1.000  C
  C7       1.0000 0.13099  0.97710  0.74150  Biso   1.000  C
  C8       1.0000 0.63099  0.47710  0.74150  Biso   1.000  C
  C9       1.0000 0.17549  0.94940  0.23390  Biso   1.000  C
  C10      1.0000 0.67549  0.44940  0.23390  Biso   1.000  C
  C11      1.0000 0.82451  0.94940  0.26610  Biso   1.000  C
  C12      1.0000 0.32451  0.44940  0.26610  Biso   1.000  C
  C13      1.0000 0.82451  0.05060  0.76610  Biso   1.000  C
  C14      1.0000 0.32451  0.55060  0.76610  Biso   1.000  C
  C15      1.0000 0.17549  0.05060  0.73390  Biso   1.000  C
  C16      1.0000 0.67549  0.55060  0.73390  Biso   1.000  C
  C17      1.0000 0.18870  0.95290  0.18700  Biso   1.000  C
  C18      1.0000 0.68870  0.45290  0.18700  Biso   1.000  C
  C19      1.0000 0.81130  0.95290  0.31300  Biso   1.000  C
  C20      1.0000 0.31130  0.45290  0.31300  Biso   1.000  C
  C21      1.0000 0.81130  0.04710  0.81300  Biso   1.000  C
  C22      1.0000 0.31130  0.54710  0.81300  Biso   1.000  C
  C23      1.0000 0.18870  0.04710  0.68700  Biso   1.000  C
  C24      1.0000 0.68870  0.54710  0.68700  Biso   1.000  C
  H1       1.0000 0.16970  0.00750  0.15980  Biso   1.000  H
  H2       1.0000 0.66970  0.50750  0.15980  Biso   1.000  H
  H3       1.0000 0.83030  0.00750  0.34020  Biso   1.000  H
  H4       1.0000 0.33030  0.50750  0.34020  Biso   1.000  H
  H5       1.0000 0.83030  0.99250  0.84020  Biso   1.000  H
  H6       1.0000 0.33030  0.49250  0.84020  Biso   1.000  H
  H7       1.0000 0.16970  0.99250  0.65980  Biso   1.000  H
  H8       1.0000 0.66970  0.49250  0.65980  Biso   1.000  H
  C25      1.0000 0.25440  0.80920  0.21640  Biso   1.000  C
  C26      1.0000 0.75440  0.30920  0.21640  Biso   1.000  C
  C27      1.0000 0.74560  0.80920  0.28360  Biso   1.000  C
  C28      1.0000 0.24560  0.30920  0.28360  Biso   1.000  C
  C29      1.0000 0.74560  0.19080  0.78360  Biso   1.000  C
  C30      1.0000 0.24560  0.69080  0.78360  Biso   1.000  C
  C31      1.0000 0.25440  0.19080  0.71640  Biso   1.000  C
  C32      1.0000 0.75440  0.69080  0.71640  Biso   1.000  C
  H9       1.0000 0.28090  0.75870  0.21020  Biso   1.000  H
  H10      1.0000 0.78090  0.25870  0.21020  Biso   1.000  H
  H11      1.0000 0.71910  0.75870  0.28980  Biso   1.000  H
  H12      1.0000 0.21910  0.25870  0.28980  Biso   1.000  H
  H13      1.0000 0.71910  0.24130  0.78980  Biso   1.000  H
  H14      1.0000 0.21910  0.74130  0.78980  Biso   1.000  H
  H15      1.0000 0.28090  0.24130  0.71020  Biso   1.000  H
  H16      1.0000 0.78090  0.74130  0.71020  Biso   1.000  H
  C33      1.0000 0.24490  0.80360  0.26780  Biso   1.000  C
  C34      1.0000 0.74490  0.30360  0.26780  Biso   1.000  C
  C35      1.0000 0.75510  0.80360  0.23220  Biso   1.000  C
  C36      1.0000 0.25510  0.30360  0.23220  Biso   1.000  C
  C37      1.0000 0.75510  0.19640  0.73220  Biso   1.000  C
  C38      1.0000 0.25510  0.69640  0.73220  Biso   1.000  C
  C39      1.0000 0.24490  0.19640  0.76780  Biso   1.000  C
  C40      1.0000 0.74490  0.69640  0.76780  Biso   1.000  C
  H17      1.0000 0.26560  0.75560  0.29490  Biso   1.000  H
  H18      1.0000 0.76560  0.25560  0.29490  Biso   1.000  H
  H19      1.0000 0.73440  0.75560  0.20510  Biso   1.000  H
  H20      1.0000 0.23440  0.25560  0.20510  Biso   1.000  H
  H21      1.0000 0.73440  0.24440  0.70510  Biso   1.000  H
  H22      1.0000 0.23440  0.74440  0.70510  Biso   1.000  H
  H23      1.0000 0.26560  0.24440  0.79490  Biso   1.000  H
  H24      1.0000 0.76560  0.74440  0.79490  Biso   1.000  H
  C41      1.0000 0.20480  0.86980  0.27610  Biso   1.000  C
  C42      1.0000 0.70480  0.36980  0.27610  Biso   1.000  C
  C43      1.0000 0.79520  0.86980  0.22390  Biso   1.000  C
  C44      1.0000 0.29520  0.36980  0.22390  Biso   1.000  C
  C45      1.0000 0.79520  0.13020  0.72390  Biso   1.000  C
  C46      1.0000 0.29520  0.63020  0.72390  Biso   1.000  C
  C47      1.0000 0.20480  0.13020  0.77610  Biso   1.000  C
  C48      1.0000 0.70480  0.63020  0.77610  Biso   1.000  C
  H25      1.0000 0.19680  0.86330  0.30860  Biso   1.000  H
  H26      1.0000 0.69680  0.36330  0.30860  Biso   1.000  H
  H27      1.0000 0.80320  0.86330  0.19140  Biso   1.000  H
  H28      1.0000 0.30320  0.36330  0.19140  Biso   1.000  H
  H29      1.0000 0.80320  0.13670  0.69140  Biso   1.000  H
  H30      1.0000 0.30320  0.63670  0.69140  Biso   1.000  H
  H31      1.0000 0.19680  0.13670  0.80860  Biso   1.000  H
  H32      1.0000 0.69680  0.63670  0.80860  Biso   1.000  H
  C49      1.0000 0.03880  0.13400  0.39820  Biso   1.000  C
  C50      1.0000 0.53880  0.63400  0.39820  Biso   1.000  C
  C51      1.0000 0.96120  0.13400  0.10180  Biso   1.000  C
  C52      1.0000 0.46120  0.63400  0.10180  Biso   1.000  C
  C53      1.0000 0.96120  0.86600  0.60180  Biso   1.000  C
  C54      1.0000 0.46120  0.36600  0.60180  Biso   1.000  C
  C55      1.0000 0.03880  0.86600  0.89820  Biso   1.000  C
  C56      1.0000 0.53880  0.36600  0.89820  Biso   1.000  C
  C57      1.0000 0.06790  0.24700  0.43590  Biso   1.000  C
  C58      1.0000 0.56790  0.74700  0.43590  Biso   1.000  C
  C59      1.0000 0.93210  0.24700  0.06410  Biso   1.000  C
  C60      1.0000 0.43210  0.74700  0.06410  Biso   1.000  C
  C61      1.0000 0.93210  0.75300  0.56410  Biso   1.000  C
  C62      1.0000 0.43210  0.25300  0.56410  Biso   1.000  C
  C63      1.0000 0.06790  0.75300  0.93590  Biso   1.000  C
  C64      1.0000 0.56790  0.25300  0.93590  Biso   1.000  C
  C65      1.0000 0.11400  0.21030  0.45300  Biso   1.000  C
  C66      1.0000 0.61400  0.71030  0.45300  Biso   1.000  C
  C67      1.0000 0.88600  0.21030  0.04700  Biso   1.000  C
  C68      1.0000 0.38600  0.71030  0.04700  Biso   1.000  C
  C69      1.0000 0.88600  0.78970  0.54700  Biso   1.000  C
  C70      1.0000 0.38600  0.28970  0.54700  Biso   1.000  C
  C71      1.0000 0.11400  0.78970  0.95300  Biso   1.000  C
  C72      1.0000 0.61400  0.28970  0.95300  Biso   1.000  C
  H33      1.0000 0.12450  0.11200  0.44230  Biso   1.000  H
  H34      1.0000 0.62450  0.61200  0.44230  Biso   1.000  H
  H35      1.0000 0.87550  0.11200  0.05770  Biso   1.000  H
  H36      1.0000 0.37550  0.61200  0.05770  Biso   1.000  H
  H37      1.0000 0.87550  0.88800  0.55770  Biso   1.000  H
  H38      1.0000 0.37550  0.38800  0.55770  Biso   1.000  H
  H39      1.0000 0.12450  0.88800  0.94230  Biso   1.000  H
  H40      1.0000 0.62450  0.38800  0.94230  Biso   1.000  H
  C73      1.0000 0.12850  0.44780  0.49660  Biso   1.000  C
  C74      1.0000 0.62850  0.94780  0.49660  Biso   1.000  C
  C75      1.0000 0.87150  0.44780  0.00340  Biso   1.000  C
  C76      1.0000 0.37150  0.94780  0.00340  Biso   1.000  C
  C77      1.0000 0.87150  0.55220  0.50340  Biso   1.000  C
  C78      1.0000 0.37150  0.05220  0.50340  Biso   1.000  C
  C79      1.0000 0.12850  0.55220  0.99660  Biso   1.000  C
  C80      1.0000 0.62850  0.05220  0.99660  Biso   1.000  C
  H41      1.0000 0.14920  0.51870  0.51670  Biso   1.000  H
  H42      1.0000 0.64920  0.01870  0.51670  Biso   1.000  H
  H43      1.0000 0.85080  0.51870  0.98330  Biso   1.000  H
  H44      1.0000 0.35080  0.01870  0.98330  Biso   1.000  H
  H45      1.0000 0.85080  0.48130  0.48330  Biso   1.000  H
  H46      1.0000 0.35080  0.98130  0.48330  Biso   1.000  H
  H47      1.0000 0.14920  0.48130  0.01670  Biso   1.000  H
  H48      1.0000 0.64920  0.98130  0.01670  Biso   1.000  H
  C81      1.0000 0.08360  0.49530  0.48190  Biso   1.000  C
  C82      1.0000 0.58360  0.99530  0.48190  Biso   1.000  C
  C83      1.0000 0.91640  0.49530  0.01810  Biso   1.000  C
  C84      1.0000 0.41640  0.99530  0.01810  Biso   1.000  C
  C85      1.0000 0.91640  0.50470  0.51810  Biso   1.000  C
  C86      1.0000 0.41640  0.00470  0.51810  Biso   1.000  C
  C87      1.0000 0.08360  0.50470  0.98190  Biso   1.000  C
  C88      1.0000 0.58360  0.00470  0.98190  Biso   1.000  C
  H49      1.0000 0.07430  0.59610  0.49210  Biso   1.000  H
  H50      1.0000 0.57430  0.09610  0.49210  Biso   1.000  H
  H51      1.0000 0.92570  0.59610  0.00790  Biso   1.000  H
  H52      1.0000 0.42570  0.09610  0.00790  Biso   1.000  H
  H53      1.0000 0.92570  0.40390  0.50790  Biso   1.000  H
  H54      1.0000 0.42570  0.90390  0.50790  Biso   1.000  H
  H55      1.0000 0.07430  0.40390  0.99210  Biso   1.000  H
  H56      1.0000 0.57430  0.90390  0.99210  Biso   1.000  H
  C89      1.0000 0.05190  0.39350  0.45200  Biso   1.000  C
  C90      1.0000 0.55190  0.89350  0.45200  Biso   1.000  C
  C91      1.0000 0.94810  0.39350  0.04800  Biso   1.000  C
  C92      1.0000 0.44810  0.89350  0.04800  Biso   1.000  C
  C93      1.0000 0.94810  0.60650  0.54800  Biso   1.000  C
  C94      1.0000 0.44810  0.10650  0.54800  Biso   1.000  C
  C95      1.0000 0.05190  0.60650  0.95200  Biso   1.000  C
  C96      1.0000 0.55190  0.10650  0.95200  Biso   1.000  C
  H57      1.0000 0.02080  0.42180  0.44290  Biso   1.000  H
  H58      1.0000 0.52080  0.92180  0.44290  Biso   1.000  H
  H59      1.0000 0.97920  0.42180  0.05710  Biso   1.000  H
  H60      1.0000 0.47920  0.92180  0.05710  Biso   1.000  H
  H61      1.0000 0.97920  0.57820  0.55710  Biso   1.000  H
  H62      1.0000 0.47920  0.07820  0.55710  Biso   1.000  H
  H63      1.0000 0.02080  0.57820  0.94290  Biso   1.000  H
  H64      1.0000 0.52080  0.07820  0.94290  Biso   1.000  H
  C97      1.0000 0.99129  0.58290  0.34120  Biso   1.000  C
  C98      1.0000 0.49129  0.08290  0.34120  Biso   1.000  C
  C99      1.0000 0.00871  0.58290  0.15880  Biso   1.000  C
  C100     1.0000 0.50871  0.08290  0.15880  Biso   1.000  C
  C101     1.0000 0.00871  0.41710  0.65880  Biso   1.000  C
  C102     1.0000 0.50871  0.91710  0.65880  Biso   1.000  C
  C103     1.0000 0.99129  0.41710  0.84120  Biso   1.000  C
  C104     1.0000 0.49129  0.91710  0.84120  Biso   1.000  C
  C105     1.0000 0.94480  0.57030  0.35720  Biso   1.000  C
  C106     1.0000 0.44480  0.07030  0.35720  Biso   1.000  C
  C107     1.0000 0.05520  0.57030  0.14280  Biso   1.000  C
  C108     1.0000 0.55520  0.07030  0.14280  Biso   1.000  C
  C109     1.0000 0.05520  0.42970  0.64280  Biso   1.000  C
  C110     1.0000 0.55520  0.92970  0.64280  Biso   1.000  C
  C111     1.0000 0.94480  0.42970  0.85720  Biso   1.000  C
  C112     1.0000 0.44480  0.92970  0.85720  Biso   1.000  C
  C113     1.0000 0.92440  0.70090  0.37620  Biso   1.000  C
  C114     1.0000 0.42440  0.20090  0.37620  Biso   1.000  C
  C115     1.0000 0.07560  0.70090  0.12380  Biso   1.000  C
  C116     1.0000 0.57560  0.20090  0.12380  Biso   1.000  C
  C117     1.0000 0.07560  0.29910  0.62380  Biso   1.000  C
  C118     1.0000 0.57560  0.79910  0.62380  Biso   1.000  C
  C119     1.0000 0.92440  0.29910  0.87620  Biso   1.000  C
  C120     1.0000 0.42440  0.79910  0.87620  Biso   1.000  C
  H65      1.0000 0.94100  0.79680  0.38350  Biso   1.000  H
  H66      1.0000 0.44100  0.29680  0.38350  Biso   1.000  H
  H67      1.0000 0.05900  0.79680  0.11650  Biso   1.000  H
  H68      1.0000 0.55900  0.29680  0.11650  Biso   1.000  H
  H69      1.0000 0.05900  0.20320  0.61650  Biso   1.000  H
  H70      1.0000 0.55900  0.70320  0.61650  Biso   1.000  H
  H71      1.0000 0.94100  0.20320  0.88350  Biso   1.000  H
  H72      1.0000 0.44100  0.70320  0.88350  Biso   1.000  H
  C121     1.0000 0.86110  0.55490  0.37680  Biso   1.000  C
  C122     1.0000 0.36110  0.05490  0.37680  Biso   1.000  C
  C123     1.0000 0.13890  0.55490  0.12320  Biso   1.000  C
  C124     1.0000 0.63890  0.05490  0.12320  Biso   1.000  C
  C125     1.0000 0.13890  0.44510  0.62320  Biso   1.000  C
  C126     1.0000 0.63890  0.94510  0.62320  Biso   1.000  C
  C127     1.0000 0.86110  0.44510  0.87680  Biso   1.000  C
  C128     1.0000 0.36110  0.94510  0.87680  Biso   1.000  C
  H73      1.0000 0.83120  0.54580  0.38300  Biso   1.000  H
  H74      1.0000 0.33120  0.04580  0.38300  Biso   1.000  H
  H75      1.0000 0.16880  0.54580  0.11700  Biso   1.000  H
  H76      1.0000 0.66880  0.04580  0.11700  Biso   1.000  H
  H77      1.0000 0.16880  0.45420  0.61700  Biso   1.000  H
  H78      1.0000 0.66880  0.95420  0.61700  Biso   1.000  H
  H79      1.0000 0.83120  0.45420  0.88300  Biso   1.000  H
  H80      1.0000 0.33120  0.95420  0.88300  Biso   1.000  H
  C129     1.0000 0.88070  0.41850  0.35990  Biso   1.000  C
  C130     1.0000 0.38070  0.91850  0.35990  Biso   1.000  C
  C131     1.0000 0.11930  0.41850  0.14010  Biso   1.000  C
  C132     1.0000 0.61930  0.91850  0.14010  Biso   1.000  C
  C133     1.0000 0.11930  0.58150  0.64010  Biso   1.000  C
  C134     1.0000 0.61930  0.08150  0.64010  Biso   1.000  C
  C135     1.0000 0.88070  0.58150  0.85990  Biso   1.000  C
  C136     1.0000 0.38070  0.08150  0.85990  Biso   1.000  C
  H81      1.0000 0.86460  0.32090  0.35580  Biso   1.000  H
  H82      1.0000 0.36460  0.82090  0.35580  Biso   1.000  H
  H83      1.0000 0.13540  0.32090  0.14420  Biso   1.000  H
  H84      1.0000 0.63540  0.82090  0.14420  Biso   1.000  H
  H85      1.0000 0.13540  0.67910  0.64420  Biso   1.000  H
  H86      1.0000 0.63540  0.17910  0.64420  Biso   1.000  H
  H87      1.0000 0.86460  0.67910  0.85580  Biso   1.000  H
  H88      1.0000 0.36460  0.17910  0.85580  Biso   1.000  H
  C137     1.0000 0.08681  0.55410  0.27790  Biso   1.000  C
  C138     1.0000 0.58681  0.05410  0.27790  Biso   1.000  C
  C139     1.0000 0.91319  0.55410  0.22210  Biso   1.000  C
  C140     1.0000 0.41319  0.05410  0.22210  Biso   1.000  C
  C141     1.0000 0.91319  0.44590  0.72210  Biso   1.000  C
  C142     1.0000 0.41319  0.94590  0.72210  Biso   1.000  C
  C143     1.0000 0.08681  0.44590  0.77790  Biso   1.000  C
  C144     1.0000 0.58681  0.94590  0.77790  Biso   1.000  C
  C145     1.0000 0.12064  0.58800  0.32780  Biso   1.000  C
  C146     1.0000 0.62064  0.08800  0.32780  Biso   1.000  C
  C147     1.0000 0.87936  0.58800  0.17220  Biso   1.000  C
  C148     1.0000 0.37936  0.08800  0.17220  Biso   1.000  C
  C149     1.0000 0.87936  0.41200  0.67220  Biso   1.000  C
  C150     1.0000 0.37936  0.91200  0.67220  Biso   1.000  C
  C151     1.0000 0.12064  0.41200  0.82780  Biso   1.000  C
  C152     1.0000 0.62064  0.91200  0.82780  Biso   1.000  C
  C153     1.0000 0.15790  0.48710  0.34510  Biso   1.000  C
  C154     1.0000 0.65790  0.98710  0.34510  Biso   1.000  C
  C155     1.0000 0.84210  0.48710  0.15490  Biso   1.000  C
  C156     1.0000 0.34210  0.98710  0.15490  Biso   1.000  C
  C157     1.0000 0.84210  0.51290  0.65490  Biso   1.000  C
  C158     1.0000 0.34210  0.01290  0.65490  Biso   1.000  C
  C159     1.0000 0.15790  0.51290  0.84510  Biso   1.000  C
  C160     1.0000 0.65790  0.01290  0.84510  Biso   1.000  C
  H89      1.0000 0.15970  0.38880  0.32820  Biso   1.000  H
  H90      1.0000 0.65970  0.88880  0.32820  Biso   1.000  H
  H91      1.0000 0.84030  0.38880  0.17180  Biso   1.000  H
  H92      1.0000 0.34030  0.88880  0.17180  Biso   1.000  H
  H93      1.0000 0.84030  0.61120  0.67180  Biso   1.000  H
  H94      1.0000 0.34030  0.11120  0.67180  Biso   1.000  H
  H95      1.0000 0.15970  0.61120  0.82820  Biso   1.000  H
  H96      1.0000 0.65970  0.11120  0.82820  Biso   1.000  H
  C161     1.0000 0.18430  0.66200  0.41170  Biso   1.000  C
  C162     1.0000 0.68430  0.16200  0.41170  Biso   1.000  C
  C163     1.0000 0.81570  0.66200  0.08830  Biso   1.000  C
  C164     1.0000 0.31570  0.16200  0.08830  Biso   1.000  C
  C165     1.0000 0.81570  0.33800  0.58830  Biso   1.000  C
  C166     1.0000 0.31570  0.83800  0.58830  Biso   1.000  C
  C167     1.0000 0.18430  0.33800  0.91170  Biso   1.000  C
  C168     1.0000 0.68430  0.83800  0.91170  Biso   1.000  C
  H97      1.0000 0.20580  0.69140  0.44120  Biso   1.000  H
  H98      1.0000 0.70580  0.19140  0.44120  Biso   1.000  H
  H99      1.0000 0.79420  0.69140  0.05880  Biso   1.000  H
  H100     1.0000 0.29420  0.19140  0.05880  Biso   1.000  H
  H101     1.0000 0.79420  0.30860  0.55880  Biso   1.000  H
  H102     1.0000 0.29420  0.80860  0.55880  Biso   1.000  H
  H103     1.0000 0.20580  0.30860  0.94120  Biso   1.000  H
  H104     1.0000 0.70580  0.80860  0.94120  Biso   1.000  H
  C169     1.0000 0.14630  0.75740  0.39610  Biso   1.000  C
  C170     1.0000 0.64630  0.25740  0.39610  Biso   1.000  C
  C171     1.0000 0.85370  0.75740  0.10390  Biso   1.000  C
  C172     1.0000 0.35370  0.25740  0.10390  Biso   1.000  C
  C173     1.0000 0.85370  0.24260  0.60390  Biso   1.000  C
  C174     1.0000 0.35370  0.74260  0.60390  Biso   1.000  C
  C175     1.0000 0.14630  0.24260  0.89610  Biso   1.000  C
  C176     1.0000 0.64630  0.74260  0.89610  Biso   1.000  C
  H105     1.0000 0.14210  0.84750  0.41610  Biso   1.000  H
  H106     1.0000 0.64210  0.34750  0.41610  Biso   1.000  H
  H107     1.0000 0.85790  0.84750  0.08390  Biso   1.000  H
  H108     1.0000 0.35790  0.34750  0.08390  Biso   1.000  H
  H109     1.0000 0.85790  0.15250  0.58390  Biso   1.000  H
  H110     1.0000 0.35790  0.65250  0.58390  Biso   1.000  H
  H111     1.0000 0.14210  0.15250  0.91610  Biso   1.000  H
  H112     1.0000 0.64210  0.65250  0.91610  Biso   1.000  H
  N1       1.0000 0.22667  0.88400  0.17710  Biso   1.000  N
  N2       1.0000 0.72667  0.38400  0.17710  Biso   1.000  N
  N3       1.0000 0.77333  0.88400  0.32290  Biso   1.000  N
  N4       1.0000 0.27333  0.38400  0.32290  Biso   1.000  N
  N5       1.0000 0.77333  0.11600  0.82290  Biso   1.000  N
  N6       1.0000 0.27333  0.61600  0.82290  Biso   1.000  N
  N7       1.0000 0.22667  0.11600  0.67710  Biso   1.000  N
  N8       1.0000 0.72667  0.61600  0.67710  Biso   1.000  N
  N9       1.0000 0.14445  0.30350  0.48350  Biso   1.000  N
  N10      1.0000 0.64445  0.80350  0.48350  Biso   1.000  N
  N11      1.0000 0.85555  0.30350  0.01650  Biso   1.000  N
  N12      1.0000 0.35555  0.80350  0.01650  Biso   1.000  N
  N13      1.0000 0.85555  0.69650  0.51650  Biso   1.000  N
  N14      1.0000 0.35555  0.19650  0.51650  Biso   1.000  N
  N15      1.0000 0.14445  0.69650  0.98350  Biso   1.000  N
  N16      1.0000 0.64445  0.19650  0.98350  Biso   1.000  N
  N17      1.0000 0.92381  0.42810  0.34930  Biso   1.000  N
  N18      1.0000 0.42381  0.92810  0.34930  Biso   1.000  N
  N19      1.0000 0.07619  0.42810  0.15070  Biso   1.000  N
  N20      1.0000 0.57619  0.92810  0.15070  Biso   1.000  N
  N21      1.0000 0.07619  0.57190  0.65070  Biso   1.000  N
  N22      1.0000 0.57619  0.07190  0.65070  Biso   1.000  N
  N23      1.0000 0.92381  0.57190  0.84930  Biso   1.000  N
  N24      1.0000 0.42381  0.07190  0.84930  Biso   1.000  N
  N25      1.0000 0.88090  0.69290  0.38450  Biso   1.000  N
  N26      1.0000 0.38090  0.19290  0.38450  Biso   1.000  N
  N27      1.0000 0.11910  0.69290  0.11550  Biso   1.000  N
  N28      1.0000 0.61910  0.19290  0.11550  Biso   1.000  N
  N29      1.0000 0.11910  0.30710  0.61550  Biso   1.000  N
  N30      1.0000 0.61910  0.80710  0.61550  Biso   1.000  N
  N31      1.0000 0.88090  0.30710  0.88450  Biso   1.000  N
  N32      1.0000 0.38090  0.80710  0.88450  Biso   1.000  N
  N33      1.0000 0.19168  0.52770  0.38580  Biso   1.000  N
  N34      1.0000 0.69168  0.02770  0.38580  Biso   1.000  N
  N35      1.0000 0.80832  0.52770  0.11420  Biso   1.000  N
  N36      1.0000 0.30832  0.02770  0.11420  Biso   1.000  N
  N37      1.0000 0.80832  0.47230  0.61420  Biso   1.000  N
  N38      1.0000 0.30832  0.97230  0.61420  Biso   1.000  N
  N39      1.0000 0.19168  0.47230  0.88580  Biso   1.000  N
  N40      1.0000 0.69168  0.97230  0.88580  Biso   1.000  N
  N41      1.0000 0.11483  0.72490  0.35300  Biso   1.000  N
  N42      1.0000 0.61483  0.22490  0.35300  Biso   1.000  N
  N43      1.0000 0.88517  0.72490  0.14700  Biso   1.000  N
  N44      1.0000 0.38517  0.22490  0.14700  Biso   1.000  N
  N45      1.0000 0.88517  0.27510  0.64700  Biso   1.000  N
  N46      1.0000 0.38517  0.77510  0.64700  Biso   1.000  N
  N47      1.0000 0.11483  0.27510  0.85300  Biso   1.000  N
  N48      1.0000 0.61483  0.77510  0.85300  Biso   1.000  N
  O1       1.0000 0.10991  0.11290  0.20649  Biso   1.000  O
  O2       1.0000 0.60991  0.61290  0.20649  Biso   1.000  O
  O3       1.0000 0.89009  0.11290  0.29351  Biso   1.000  O
  O4       1.0000 0.39009  0.61290  0.29351  Biso   1.000  O
  O5       1.0000 0.89009  0.88710  0.79351  Biso   1.000  O
  O6       1.0000 0.39009  0.38710  0.79351  Biso   1.000  O
  O7       1.0000 0.10991  0.88710  0.70649  Biso   1.000  O
  O8       1.0000 0.60991  0.38710  0.70649  Biso   1.000  O
  O9       1.0000 0.11842  0.98960  0.28394  Biso   1.000  O
  O10      1.0000 0.61842  0.48960  0.28394  Biso   1.000  O
  O11      1.0000 0.88158  0.98960  0.21606  Biso   1.000  O
  O12      1.0000 0.38158  0.48960  0.21606  Biso   1.000  O
  O13      1.0000 0.88158  0.01040  0.71606  Biso   1.000  O
  O14      1.0000 0.38158  0.51040  0.71606  Biso   1.000  O
  O15      1.0000 0.11842  0.01040  0.78394  Biso   1.000  O
  O16      1.0000 0.61842  0.51040  0.78394  Biso   1.000  O
  O17      1.0000 0.05889  0.01270  0.38327  Biso   1.000  O
  O18      1.0000 0.55889  0.51270  0.38327  Biso   1.000  O
  O19      1.0000 0.94111  0.01270  0.11673  Biso   1.000  O
  O20      1.0000 0.44111  0.51270  0.11673  Biso   1.000  O
  O21      1.0000 0.94111  0.98730  0.61673  Biso   1.000  O
  O22      1.0000 0.44111  0.48730  0.61673  Biso   1.000  O
  O23      1.0000 0.05889  0.98730  0.88327  Biso   1.000  O
  O24      1.0000 0.55889  0.48730  0.88327  Biso   1.000  O
  O25      1.0000 0.99667  0.16950  0.38219  Biso   1.000  O
  O26      1.0000 0.49667  0.66950  0.38219  Biso   1.000  O
  O27      1.0000 0.00333  0.16950  0.11781  Biso   1.000  O
  O28      1.0000 0.50333  0.66950  0.11781  Biso   1.000  O
  O29      1.0000 0.00333  0.83050  0.61781  Biso   1.000  O
  O30      1.0000 0.50333  0.33050  0.61781  Biso   1.000  O
  O31      1.0000 0.99667  0.83050  0.88219  Biso   1.000  O
  O32      1.0000 0.49667  0.33050  0.88219  Biso   1.000  O
  O33      1.0000 0.00486  0.45830  0.32089  Biso   1.000  O
  O34      1.0000 0.50486  0.95830  0.32089  Biso   1.000  O
  O35      1.0000 0.99514  0.45830  0.17911  Biso   1.000  O
  O36      1.0000 0.49514  0.95830  0.17911  Biso   1.000  O
  O37      1.0000 0.99514  0.54170  0.67911  Biso   1.000  O
  O38      1.0000 0.49514  0.04170  0.67911  Biso   1.000  O
  O39      1.0000 0.00486  0.54170  0.82089  Biso   1.000  O
  O40      1.0000 0.50486  0.04170  0.82089  Biso   1.000  O
  O41      1.0000 0.01283  0.71490  0.34895  Biso   1.000  O
  O42      1.0000 0.51283  0.21490  0.34895  Biso   1.000  O
  O43      1.0000 0.98717  0.71490  0.15105  Biso   1.000  O
  O44      1.0000 0.48717  0.21490  0.15105  Biso   1.000  O
  O45      1.0000 0.98717  0.28510  0.65105  Biso   1.000  O
  O46      1.0000 0.48717  0.78510  0.65105  Biso   1.000  O
  O47      1.0000 0.01283  0.28510  0.84895  Biso   1.000  O
  O48      1.0000 0.51283  0.78510  0.84895  Biso   1.000  O
  O49      1.0000 0.06188  0.67180  0.25928  Biso   1.000  O
  O50      1.0000 0.56188  0.17180  0.25928  Biso   1.000  O
  O51      1.0000 0.93812  0.67180  0.24072  Biso   1.000  O
  O52      1.0000 0.43812  0.17180  0.24072  Biso   1.000  O
  O53      1.0000 0.93812  0.32820  0.74072  Biso   1.000  O
  O54      1.0000 0.43812  0.82820  0.74072  Biso   1.000  O
  O55      1.0000 0.06188  0.32820  0.75928  Biso   1.000  O
  O56      1.0000 0.56188  0.82820  0.75928  Biso   1.000  O
  O57      1.0000 0.08722  0.41510  0.25900  Biso   1.000  O
  O58      1.0000 0.58722  0.91510  0.25900  Biso   1.000  O
  O59      1.0000 0.91278  0.41510  0.24100  Biso   1.000  O
  O60      1.0000 0.41278  0.91510  0.24100  Biso   1.000  O
  O61      1.0000 0.91278  0.58490  0.74100  Biso   1.000  O
  O62      1.0000 0.41278  0.08490  0.74100  Biso   1.000  O
  O63      1.0000 0.08722  0.58490  0.75900  Biso   1.000  O
  O64      1.0000 0.58722  0.08490  0.75900  Biso   1.000  O
  O65      1.0000 0.03653  0.17920  0.28828  Biso   1.000  O
  O66      1.0000 0.53653  0.67920  0.28828  Biso   1.000  O
  O67      1.0000 0.96347  0.17920  0.21172  Biso   1.000  O
  O68      1.0000 0.46347  0.67920  0.21172  Biso   1.000  O
  O69      1.0000 0.96347  0.82080  0.71172  Biso   1.000  O
  O70      1.0000 0.46347  0.32080  0.71172  Biso   1.000  O
  O71      1.0000 0.03653  0.82080  0.78828  Biso   1.000  O
  O72      1.0000 0.53653  0.32080  0.78828  Biso   1.000  O
  O73      1.0000 0.02748  0.95410  0.21506  Biso   1.000  O
  O74      1.0000 0.52748  0.45410  0.21506  Biso   1.000  O
  O75      1.0000 0.97252  0.95410  0.28494  Biso   1.000  O
  O76      1.0000 0.47252  0.45410  0.28494  Biso   1.000  O
  O77      1.0000 0.97252  0.04590  0.78494  Biso   1.000  O
  O78      1.0000 0.47252  0.54590  0.78494  Biso   1.000  O
  O79      1.0000 0.02748  0.04590  0.71506  Biso   1.000  O
  O80      1.0000 0.52748  0.54590  0.71506  Biso   1.000  O
