data_image0
_cell_length_a       29.587
_cell_length_b       8.28
_cell_length_c       26.108
_cell_angle_alpha    90
_cell_angle_beta     101.285
_cell_angle_gamma    90

_symmetry_space_group_name_H-M    "P 1"
_symmetry_int_tables_number       1

loop_
  _symmetry_equiv_pos_as_xyz
  'x, y, z'

loop_
  _atom_site_label
  _atom_site_occupancy
  _atom_site_fract_x
  _atom_site_fract_y
  _atom_site_fract_z
  _atom_site_thermal_displace_type
  _atom_site_B_iso_or_equiv
  _atom_site_type_symbol
  Er1      1.0000 0.05015  0.90647  0.30452  Biso   1.000  Er
  Er2      1.0000 0.55015  0.40647  0.30452  Biso   1.000  Er
  Er3      1.0000 0.94985  0.90647  0.19548  Biso   1.000  Er
  Er4      1.0000 0.44985  0.40647  0.19548  Biso   1.000  Er
  Er5      1.0000 0.94985  0.09353  0.69548  Biso   1.000  Er
  Er6      1.0000 0.44985  0.59353  0.69548  Biso   1.000  Er
  Er7      1.0000 0.05015  0.09353  0.80452  Biso   1.000  Er
  Er8      1.0000 0.55015  0.59353  0.80452  Biso   1.000  Er
  Er9      1.0000 0.96117  0.23359  0.29777  Biso   1.000  Er
  Er10     1.0000 0.46117  0.73359  0.29777  Biso   1.000  Er
  Er11     1.0000 0.03883  0.23359  0.20223  Biso   1.000  Er
  Er12     1.0000 0.53883  0.73359  0.20223  Biso   1.000  Er
  Er13     1.0000 0.03883  0.76641  0.70223  Biso   1.000  Er
  Er14     1.0000 0.53883  0.26641  0.70223  Biso   1.000  Er
  Er15     1.0000 0.96117  0.76641  0.79777  Biso   1.000  Er
  Er16     1.0000 0.46117  0.26641  0.79777  Biso   1.000  Er
  Cu1      1.0000 0.24556  0.90811  0.10481  Biso   1.000  Cu
  Cu2      1.0000 0.74556  0.40811  0.10481  Biso   1.000  Cu
  Cu3      1.0000 0.75444  0.90811  0.39519  Biso   1.000  Cu
  Cu4      1.0000 0.25444  0.40811  0.39519  Biso   1.000  Cu
  Cu5      1.0000 0.75444  0.09189  0.89519  Biso   1.000  Cu
  Cu6      1.0000 0.25444  0.59189  0.89519  Biso   1.000  Cu
  Cu7      1.0000 0.24556  0.09189  0.60481  Biso   1.000  Cu
  Cu8      1.0000 0.74556  0.59189  0.60481  Biso   1.000  Cu
  Cu9      1.0000 0.20798  0.20265  0.51150  Biso   1.000  Cu
  Cu10     1.0000 0.70798  0.70265  0.51150  Biso   1.000  Cu
  Cu11     1.0000 0.79202  0.20265  0.98850  Biso   1.000  Cu
  Cu12     1.0000 0.29202  0.70265  0.98850  Biso   1.000  Cu
  Cu13     1.0000 0.79202  0.79735  0.48850  Biso   1.000  Cu
  Cu14     1.0000 0.29202  0.29735  0.48850  Biso   1.000  Cu
  Cu15     1.0000 0.20798  0.79735  0.01150  Biso   1.000  Cu
  Cu16     1.0000 0.70798  0.29735  0.01150  Biso   1.000  Cu
  I1       1.0000 0.18568  0.09416  0.04685  Biso   1.000  I
  I2       1.0000 0.68568  0.59416  0.04685  Biso   1.000  I
  I3       1.0000 0.81432  0.09416  0.45315  Biso   1.000  I
  I4       1.0000 0.31432  0.59416  0.45315  Biso   1.000  I
  I5       1.0000 0.81432  0.90584  0.95315  Biso   1.000  I
  I6       1.0000 0.31432  0.40584  0.95315  Biso   1.000  I
  I7       1.0000 0.18568  0.90584  0.54685  Biso   1.000  I
  I8       1.0000 0.68568  0.40584  0.54685  Biso   1.000  I
  I9       1.0000 0.26247  0.61157  0.07700  Biso   1.000  I
  I10      1.0000 0.76247  0.11157  0.07700  Biso   1.000  I
  I11      1.0000 0.73753  0.61157  0.42300  Biso   1.000  I
  I12      1.0000 0.23753  0.11157  0.42300  Biso   1.000  I
  I13      1.0000 0.73753  0.38843  0.92300  Biso   1.000  I
  I14      1.0000 0.23753  0.88843  0.92300  Biso   1.000  I
  I15      1.0000 0.26247  0.38843  0.57700  Biso   1.000  I
  I16      1.0000 0.76247  0.88843  0.57700  Biso   1.000  I
  C1       1.0000 0.13186  0.02640  0.24200  Biso   1.000  C
  C2       1.0000 0.63186  0.52640  0.24200  Biso   1.000  C
  C3       1.0000 0.86814  0.02640  0.25800  Biso   1.000  C
  C4       1.0000 0.36814  0.52640  0.25800  Biso   1.000  C
  C5       1.0000 0.86814  0.97360  0.75800  Biso   1.000  C
  C6       1.0000 0.36814  0.47360  0.75800  Biso   1.000  C
  C7       1.0000 0.13186  0.97360  0.74200  Biso   1.000  C
  C8       1.0000 0.63186  0.47360  0.74200  Biso   1.000  C
  C9       1.0000 0.17601  0.95380  0.23520  Biso   1.000  C
  C10      1.0000 0.67601  0.45380  0.23520  Biso   1.000  C
  C11      1.0000 0.82399  0.95380  0.26480  Biso   1.000  C
  C12      1.0000 0.32399  0.45380  0.26480  Biso   1.000  C
  C13      1.0000 0.82399  0.04620  0.76480  Biso   1.000  C
  C14      1.0000 0.32399  0.54620  0.76480  Biso   1.000  C
  C15      1.0000 0.17601  0.04620  0.73520  Biso   1.000  C
  C16      1.0000 0.67601  0.54620  0.73520  Biso   1.000  C
  C17      1.0000 0.18911  0.95740  0.18710  Biso   1.000  C
  C18      1.0000 0.68911  0.45740  0.18710  Biso   1.000  C
  C19      1.0000 0.81089  0.95740  0.31290  Biso   1.000  C
  C20      1.0000 0.31089  0.45740  0.31290  Biso   1.000  C
  C21      1.0000 0.81089  0.04260  0.81290  Biso   1.000  C
  C22      1.0000 0.31089  0.54260  0.81290  Biso   1.000  C
  C23      1.0000 0.18911  0.04260  0.68710  Biso   1.000  C
  C24      1.0000 0.68911  0.54260  0.68710  Biso   1.000  C
  H1       1.0000 0.17030  0.01170  0.15980  Biso   1.000  H
  H2       1.0000 0.67030  0.51170  0.15980  Biso   1.000  H
  H3       1.0000 0.82970  0.01170  0.34020  Biso   1.000  H
  H4       1.0000 0.32970  0.51170  0.34020  Biso   1.000  H
  H5       1.0000 0.82970  0.98830  0.84020  Biso   1.000  H
  H6       1.0000 0.32970  0.48830  0.84020  Biso   1.000  H
  H7       1.0000 0.17030  0.98830  0.65980  Biso   1.000  H
  H8       1.0000 0.67030  0.48830  0.65980  Biso   1.000  H
  C25      1.0000 0.25450  0.81170  0.21720  Biso   1.000  C
  C26      1.0000 0.75450  0.31170  0.21720  Biso   1.000  C
  C27      1.0000 0.74550  0.81170  0.28280  Biso   1.000  C
  C28      1.0000 0.24550  0.31170  0.28280  Biso   1.000  C
  C29      1.0000 0.74550  0.18830  0.78280  Biso   1.000  C
  C30      1.0000 0.24550  0.68830  0.78280  Biso   1.000  C
  C31      1.0000 0.25450  0.18830  0.71720  Biso   1.000  C
  C32      1.0000 0.75450  0.68830  0.71720  Biso   1.000  C
  H9       1.0000 0.28100  0.76130  0.21100  Biso   1.000  H
  H10      1.0000 0.78100  0.26130  0.21100  Biso   1.000  H
  H11      1.0000 0.71900  0.76130  0.28900  Biso   1.000  H
  H12      1.0000 0.21900  0.26130  0.28900  Biso   1.000  H
  H13      1.0000 0.71900  0.23870  0.78900  Biso   1.000  H
  H14      1.0000 0.21900  0.73870  0.78900  Biso   1.000  H
  H15      1.0000 0.28100  0.23870  0.71100  Biso   1.000  H
  H16      1.0000 0.78100  0.73870  0.71100  Biso   1.000  H
  C33      1.0000 0.24490  0.80480  0.26810  Biso   1.000  C
  C34      1.0000 0.74490  0.30480  0.26810  Biso   1.000  C
  C35      1.0000 0.75510  0.80480  0.23190  Biso   1.000  C
  C36      1.0000 0.25510  0.30480  0.23190  Biso   1.000  C
  C37      1.0000 0.75510  0.19520  0.73190  Biso   1.000  C
  C38      1.0000 0.25510  0.69520  0.73190  Biso   1.000  C
  C39      1.0000 0.24490  0.19520  0.76810  Biso   1.000  C
  C40      1.0000 0.74490  0.69520  0.76810  Biso   1.000  C
  H17      1.0000 0.26520  0.75480  0.29520  Biso   1.000  H
  H18      1.0000 0.76520  0.25480  0.29520  Biso   1.000  H
  H19      1.0000 0.73480  0.75480  0.20480  Biso   1.000  H
  H20      1.0000 0.23480  0.25480  0.20480  Biso   1.000  H
  H21      1.0000 0.73480  0.24520  0.70480  Biso   1.000  H
  H22      1.0000 0.23480  0.74520  0.70480  Biso   1.000  H
  H23      1.0000 0.26520  0.24520  0.79520  Biso   1.000  H
  H24      1.0000 0.76520  0.74520  0.79520  Biso   1.000  H
  C41      1.0000 0.20500  0.87350  0.27660  Biso   1.000  C
  C42      1.0000 0.70500  0.37350  0.27660  Biso   1.000  C
  C43      1.0000 0.79500  0.87350  0.22340  Biso   1.000  C
  C44      1.0000 0.29500  0.37350  0.22340  Biso   1.000  C
  C45      1.0000 0.79500  0.12650  0.72340  Biso   1.000  C
  C46      1.0000 0.29500  0.62650  0.72340  Biso   1.000  C
  C47      1.0000 0.20500  0.12650  0.77660  Biso   1.000  C
  C48      1.0000 0.70500  0.62650  0.77660  Biso   1.000  C
  H25      1.0000 0.19710  0.86730  0.30930  Biso   1.000  H
  H26      1.0000 0.69710  0.36730  0.30930  Biso   1.000  H
  H27      1.0000 0.80290  0.86730  0.19070  Biso   1.000  H
  H28      1.0000 0.30290  0.36730  0.19070  Biso   1.000  H
  H29      1.0000 0.80290  0.13270  0.69070  Biso   1.000  H
  H30      1.0000 0.30290  0.63270  0.69070  Biso   1.000  H
  H31      1.0000 0.19710  0.13270  0.80930  Biso   1.000  H
  H32      1.0000 0.69710  0.63270  0.80930  Biso   1.000  H
  C49      1.0000 0.03908  0.13910  0.39990  Biso   1.000  C
  C50      1.0000 0.53908  0.63910  0.39990  Biso   1.000  C
  C51      1.0000 0.96092  0.13910  0.10010  Biso   1.000  C
  C52      1.0000 0.46092  0.63910  0.10010  Biso   1.000  C
  C53      1.0000 0.96092  0.86090  0.60010  Biso   1.000  C
  C54      1.0000 0.46092  0.36090  0.60010  Biso   1.000  C
  C55      1.0000 0.03908  0.86090  0.89990  Biso   1.000  C
  C56      1.0000 0.53908  0.36090  0.89990  Biso   1.000  C
  C57      1.0000 0.06878  0.25040  0.43660  Biso   1.000  C
  C58      1.0000 0.56878  0.75040  0.43660  Biso   1.000  C
  C59      1.0000 0.93122  0.25040  0.06340  Biso   1.000  C
  C60      1.0000 0.43122  0.75040  0.06340  Biso   1.000  C
  C61      1.0000 0.93122  0.74960  0.56340  Biso   1.000  C
  C62      1.0000 0.43122  0.24960  0.56340  Biso   1.000  C
  C63      1.0000 0.06878  0.74960  0.93660  Biso   1.000  C
  C64      1.0000 0.56878  0.24960  0.93660  Biso   1.000  C
  C65      1.0000 0.11448  0.21150  0.45420  Biso   1.000  C
  C66      1.0000 0.61448  0.71150  0.45420  Biso   1.000  C
  C67      1.0000 0.88552  0.21150  0.04580  Biso   1.000  C
  C68      1.0000 0.38552  0.71150  0.04580  Biso   1.000  C
  C69      1.0000 0.88552  0.78850  0.54580  Biso   1.000  C
  C70      1.0000 0.38552  0.28850  0.54580  Biso   1.000  C
  C71      1.0000 0.11448  0.78850  0.95420  Biso   1.000  C
  C72      1.0000 0.61448  0.28850  0.95420  Biso   1.000  C
  H33      1.0000 0.12470  0.11250  0.44410  Biso   1.000  H
  H34      1.0000 0.62470  0.61250  0.44410  Biso   1.000  H
  H35      1.0000 0.87530  0.11250  0.05590  Biso   1.000  H
  H36      1.0000 0.37530  0.61250  0.05590  Biso   1.000  H
  H37      1.0000 0.87530  0.88750  0.55590  Biso   1.000  H
  H38      1.0000 0.37530  0.38750  0.55590  Biso   1.000  H
  H39      1.0000 0.12470  0.88750  0.94410  Biso   1.000  H
  H40      1.0000 0.62470  0.38750  0.94410  Biso   1.000  H
  C73      1.0000 0.12990  0.44930  0.49690  Biso   1.000  C
  C74      1.0000 0.62990  0.94930  0.49690  Biso   1.000  C
  C75      1.0000 0.87010  0.44930  0.00310  Biso   1.000  C
  C76      1.0000 0.37010  0.94930  0.00310  Biso   1.000  C
  C77      1.0000 0.87010  0.55070  0.50310  Biso   1.000  C
  C78      1.0000 0.37010  0.05070  0.50310  Biso   1.000  C
  C79      1.0000 0.12990  0.55070  0.99690  Biso   1.000  C
  C80      1.0000 0.62990  0.05070  0.99690  Biso   1.000  C
  H41      1.0000 0.15080  0.52050  0.51620  Biso   1.000  H
  H42      1.0000 0.65080  0.02050  0.51620  Biso   1.000  H
  H43      1.0000 0.84920  0.52050  0.98380  Biso   1.000  H
  H44      1.0000 0.34920  0.02050  0.98380  Biso   1.000  H
  H45      1.0000 0.84920  0.47950  0.48380  Biso   1.000  H
  H46      1.0000 0.34920  0.97950  0.48380  Biso   1.000  H
  H47      1.0000 0.15080  0.47950  0.01620  Biso   1.000  H
  H48      1.0000 0.65080  0.97950  0.01620  Biso   1.000  H
  C81      1.0000 0.08460  0.49750  0.48210  Biso   1.000  C
  C82      1.0000 0.58460  0.99750  0.48210  Biso   1.000  C
  C83      1.0000 0.91540  0.49750  0.01790  Biso   1.000  C
  C84      1.0000 0.41540  0.99750  0.01790  Biso   1.000  C
  C85      1.0000 0.91540  0.50250  0.51790  Biso   1.000  C
  C86      1.0000 0.41540  0.00250  0.51790  Biso   1.000  C
  C87      1.0000 0.08460  0.50250  0.98210  Biso   1.000  C
  C88      1.0000 0.58460  0.00250  0.98210  Biso   1.000  C
  H49      1.0000 0.07550  0.59770  0.49250  Biso   1.000  H
  H50      1.0000 0.57550  0.09770  0.49250  Biso   1.000  H
  H51      1.0000 0.92450  0.59770  0.00750  Biso   1.000  H
  H52      1.0000 0.42450  0.09770  0.00750  Biso   1.000  H
  H53      1.0000 0.92450  0.40230  0.50750  Biso   1.000  H
  H54      1.0000 0.42450  0.90230  0.50750  Biso   1.000  H
  H55      1.0000 0.07550  0.40230  0.99250  Biso   1.000  H
  H56      1.0000 0.57550  0.90230  0.99250  Biso   1.000  H
  C89      1.0000 0.05360  0.39930  0.45250  Biso   1.000  C
  C90      1.0000 0.55360  0.89930  0.45250  Biso   1.000  C
  C91      1.0000 0.94640  0.39930  0.04750  Biso   1.000  C
  C92      1.0000 0.44640  0.89930  0.04750  Biso   1.000  C
  C93      1.0000 0.94640  0.60070  0.54750  Biso   1.000  C
  C94      1.0000 0.44640  0.10070  0.54750  Biso   1.000  C
  C95      1.0000 0.05360  0.60070  0.95250  Biso   1.000  C
  C96      1.0000 0.55360  0.10070  0.95250  Biso   1.000  C
  H57      1.0000 0.02290  0.42980  0.44290  Biso   1.000  H
  H58      1.0000 0.52290  0.92980  0.44290  Biso   1.000  H
  H59      1.0000 0.97710  0.42980  0.05710  Biso   1.000  H
  H60      1.0000 0.47710  0.92980  0.05710  Biso   1.000  H
  H61      1.0000 0.97710  0.57020  0.55710  Biso   1.000  H
  H62      1.0000 0.47710  0.07020  0.55710  Biso   1.000  H
  H63      1.0000 0.02290  0.57020  0.94290  Biso   1.000  H
  H64      1.0000 0.52290  0.07020  0.94290  Biso   1.000  H
  C97      1.0000 0.99124  0.58720  0.34190  Biso   1.000  C
  C98      1.0000 0.49124  0.08720  0.34190  Biso   1.000  C
  C99      1.0000 0.00876  0.58720  0.15810  Biso   1.000  C
  C100     1.0000 0.50876  0.08720  0.15810  Biso   1.000  C
  C101     1.0000 0.00876  0.41280  0.65810  Biso   1.000  C
  C102     1.0000 0.50876  0.91280  0.65810  Biso   1.000  C
  C103     1.0000 0.99124  0.41280  0.84190  Biso   1.000  C
  C104     1.0000 0.49124  0.91280  0.84190  Biso   1.000  C
  C105     1.0000 0.94483  0.57370  0.35780  Biso   1.000  C
  C106     1.0000 0.44483  0.07370  0.35780  Biso   1.000  C
  C107     1.0000 0.05517  0.57370  0.14220  Biso   1.000  C
  C108     1.0000 0.55517  0.07370  0.14220  Biso   1.000  C
  C109     1.0000 0.05517  0.42630  0.64220  Biso   1.000  C
  C110     1.0000 0.55517  0.92630  0.64220  Biso   1.000  C
  C111     1.0000 0.94483  0.42630  0.85780  Biso   1.000  C
  C112     1.0000 0.44483  0.92630  0.85780  Biso   1.000  C
  C113     1.0000 0.92440  0.70540  0.37680  Biso   1.000  C
  C114     1.0000 0.42440  0.20540  0.37680  Biso   1.000  C
  C115     1.0000 0.07560  0.70540  0.12320  Biso   1.000  C
  C116     1.0000 0.57560  0.20540  0.12320  Biso   1.000  C
  C117     1.0000 0.07560  0.29460  0.62320  Biso   1.000  C
  C118     1.0000 0.57560  0.79460  0.62320  Biso   1.000  C
  C119     1.0000 0.92440  0.29460  0.87680  Biso   1.000  C
  C120     1.0000 0.42440  0.79460  0.87680  Biso   1.000  C
  H65      1.0000 0.94120  0.80030  0.38420  Biso   1.000  H
  H66      1.0000 0.44120  0.30030  0.38420  Biso   1.000  H
  H67      1.0000 0.05880  0.80030  0.11580  Biso   1.000  H
  H68      1.0000 0.55880  0.30030  0.11580  Biso   1.000  H
  H69      1.0000 0.05880  0.19970  0.61580  Biso   1.000  H
  H70      1.0000 0.55880  0.69970  0.61580  Biso   1.000  H
  H71      1.0000 0.94120  0.19970  0.88420  Biso   1.000  H
  H72      1.0000 0.44120  0.69970  0.88420  Biso   1.000  H
  C121     1.0000 0.86000  0.56280  0.37610  Biso   1.000  C
  C122     1.0000 0.36000  0.06280  0.37610  Biso   1.000  C
  C123     1.0000 0.14000  0.56280  0.12390  Biso   1.000  C
  C124     1.0000 0.64000  0.06280  0.12390  Biso   1.000  C
  C125     1.0000 0.14000  0.43720  0.62390  Biso   1.000  C
  C126     1.0000 0.64000  0.93720  0.62390  Biso   1.000  C
  C127     1.0000 0.86000  0.43720  0.87610  Biso   1.000  C
  C128     1.0000 0.36000  0.93720  0.87610  Biso   1.000  C
  H73      1.0000 0.82970  0.55610  0.38070  Biso   1.000  H
  H74      1.0000 0.32970  0.05610  0.38070  Biso   1.000  H
  H75      1.0000 0.17030  0.55610  0.11930  Biso   1.000  H
  H76      1.0000 0.67030  0.05610  0.11930  Biso   1.000  H
  H77      1.0000 0.17030  0.44390  0.61930  Biso   1.000  H
  H78      1.0000 0.67030  0.94390  0.61930  Biso   1.000  H
  H79      1.0000 0.82970  0.44390  0.88070  Biso   1.000  H
  H80      1.0000 0.32970  0.94390  0.88070  Biso   1.000  H
  C129     1.0000 0.88048  0.42600  0.36000  Biso   1.000  C
  C130     1.0000 0.38048  0.92600  0.36000  Biso   1.000  C
  C131     1.0000 0.11952  0.42600  0.14000  Biso   1.000  C
  C132     1.0000 0.61952  0.92600  0.14000  Biso   1.000  C
  C133     1.0000 0.11952  0.57400  0.64000  Biso   1.000  C
  C134     1.0000 0.61952  0.07400  0.64000  Biso   1.000  C
  C135     1.0000 0.88048  0.57400  0.86000  Biso   1.000  C
  C136     1.0000 0.38048  0.07400  0.86000  Biso   1.000  C
  H81      1.0000 0.86460  0.32860  0.35630  Biso   1.000  H
  H82      1.0000 0.36460  0.82860  0.35630  Biso   1.000  H
  H83      1.0000 0.13540  0.32860  0.14370  Biso   1.000  H
  H84      1.0000 0.63540  0.82860  0.14370  Biso   1.000  H
  H85      1.0000 0.13540  0.67140  0.64370  Biso   1.000  H
  H86      1.0000 0.63540  0.17140  0.64370  Biso   1.000  H
  H87      1.0000 0.86460  0.67140  0.85630  Biso   1.000  H
  H88      1.0000 0.36460  0.17140  0.85630  Biso   1.000  H
  C137     1.0000 0.08710  0.55810  0.27800  Biso   1.000  C
  C138     1.0000 0.58710  0.05810  0.27800  Biso   1.000  C
  C139     1.0000 0.91290  0.55810  0.22200  Biso   1.000  C
  C140     1.0000 0.41290  0.05810  0.22200  Biso   1.000  C
  C141     1.0000 0.91290  0.44190  0.72200  Biso   1.000  C
  C142     1.0000 0.41290  0.94190  0.72200  Biso   1.000  C
  C143     1.0000 0.08710  0.44190  0.77800  Biso   1.000  C
  C144     1.0000 0.58710  0.94190  0.77800  Biso   1.000  C
  C145     1.0000 0.12094  0.59000  0.32800  Biso   1.000  C
  C146     1.0000 0.62094  0.09000  0.32800  Biso   1.000  C
  C147     1.0000 0.87906  0.59000  0.17200  Biso   1.000  C
  C148     1.0000 0.37906  0.09000  0.17200  Biso   1.000  C
  C149     1.0000 0.87906  0.41000  0.67200  Biso   1.000  C
  C150     1.0000 0.37906  0.91000  0.67200  Biso   1.000  C
  C151     1.0000 0.12094  0.41000  0.82800  Biso   1.000  C
  C152     1.0000 0.62094  0.91000  0.82800  Biso   1.000  C
  C153     1.0000 0.15798  0.49020  0.34550  Biso   1.000  C
  C154     1.0000 0.65798  0.99020  0.34550  Biso   1.000  C
  C155     1.0000 0.84202  0.49020  0.15450  Biso   1.000  C
  C156     1.0000 0.34202  0.99020  0.15450  Biso   1.000  C
  C157     1.0000 0.84202  0.50980  0.65450  Biso   1.000  C
  C158     1.0000 0.34202  0.00980  0.65450  Biso   1.000  C
  C159     1.0000 0.15798  0.50980  0.84550  Biso   1.000  C
  C160     1.0000 0.65798  0.00980  0.84550  Biso   1.000  C
  H89      1.0000 0.15970  0.39170  0.32880  Biso   1.000  H
  H90      1.0000 0.65970  0.89170  0.32880  Biso   1.000  H
  H91      1.0000 0.84030  0.39170  0.17120  Biso   1.000  H
  H92      1.0000 0.34030  0.89170  0.17120  Biso   1.000  H
  H93      1.0000 0.84030  0.60830  0.67120  Biso   1.000  H
  H94      1.0000 0.34030  0.10830  0.67120  Biso   1.000  H
  H95      1.0000 0.15970  0.60830  0.82880  Biso   1.000  H
  H96      1.0000 0.65970  0.10830  0.82880  Biso   1.000  H
  C161     1.0000 0.18492  0.66400  0.41160  Biso   1.000  C
  C162     1.0000 0.68492  0.16400  0.41160  Biso   1.000  C
  C163     1.0000 0.81508  0.66400  0.08840  Biso   1.000  C
  C164     1.0000 0.31508  0.16400  0.08840  Biso   1.000  C
  C165     1.0000 0.81508  0.33600  0.58840  Biso   1.000  C
  C166     1.0000 0.31508  0.83600  0.58840  Biso   1.000  C
  C167     1.0000 0.18492  0.33600  0.91160  Biso   1.000  C
  C168     1.0000 0.68492  0.83600  0.91160  Biso   1.000  C
  H97      1.0000 0.20670  0.69400  0.44080  Biso   1.000  H
  H98      1.0000 0.70670  0.19400  0.44080  Biso   1.000  H
  H99      1.0000 0.79330  0.69400  0.05920  Biso   1.000  H
  H100     1.0000 0.29330  0.19400  0.05920  Biso   1.000  H
  H101     1.0000 0.79330  0.30600  0.55920  Biso   1.000  H
  H102     1.0000 0.29330  0.80600  0.55920  Biso   1.000  H
  H103     1.0000 0.20670  0.30600  0.94080  Biso   1.000  H
  H104     1.0000 0.70670  0.80600  0.94080  Biso   1.000  H
  C169     1.0000 0.14676  0.75820  0.39630  Biso   1.000  C
  C170     1.0000 0.64676  0.25820  0.39630  Biso   1.000  C
  C171     1.0000 0.85324  0.75820  0.10370  Biso   1.000  C
  C172     1.0000 0.35324  0.25820  0.10370  Biso   1.000  C
  C173     1.0000 0.85324  0.24180  0.60370  Biso   1.000  C
  C174     1.0000 0.35324  0.74180  0.60370  Biso   1.000  C
  C175     1.0000 0.14676  0.24180  0.89630  Biso   1.000  C
  C176     1.0000 0.64676  0.74180  0.89630  Biso   1.000  C
  H105     1.0000 0.14260  0.84720  0.41660  Biso   1.000  H
  H106     1.0000 0.64260  0.34720  0.41660  Biso   1.000  H
  H107     1.0000 0.85740  0.84720  0.08340  Biso   1.000  H
  H108     1.0000 0.35740  0.34720  0.08340  Biso   1.000  H
  H109     1.0000 0.85740  0.15280  0.58340  Biso   1.000  H
  H110     1.0000 0.35740  0.65280  0.58340  Biso   1.000  H
  H111     1.0000 0.14260  0.15280  0.91660  Biso   1.000  H
  H112     1.0000 0.64260  0.65280  0.91660  Biso   1.000  H
  N1       1.0000 0.22747  0.88670  0.17780  Biso   1.000  N
  N2       1.0000 0.72747  0.38670  0.17780  Biso   1.000  N
  N3       1.0000 0.77253  0.88670  0.32220  Biso   1.000  N
  N4       1.0000 0.27253  0.38670  0.32220  Biso   1.000  N
  N5       1.0000 0.77253  0.11330  0.82220  Biso   1.000  N
  N6       1.0000 0.27253  0.61330  0.82220  Biso   1.000  N
  N7       1.0000 0.22747  0.11330  0.67780  Biso   1.000  N
  N8       1.0000 0.72747  0.61330  0.67780  Biso   1.000  N
  N9       1.0000 0.14498  0.30540  0.48470  Biso   1.000  N
  N10      1.0000 0.64498  0.80540  0.48470  Biso   1.000  N
  N11      1.0000 0.85502  0.30540  0.01530  Biso   1.000  N
  N12      1.0000 0.35502  0.80540  0.01530  Biso   1.000  N
  N13      1.0000 0.85502  0.69460  0.51530  Biso   1.000  N
  N14      1.0000 0.35502  0.19460  0.51530  Biso   1.000  N
  N15      1.0000 0.14498  0.69460  0.98470  Biso   1.000  N
  N16      1.0000 0.64498  0.19460  0.98470  Biso   1.000  N
  N17      1.0000 0.92331  0.43400  0.34992  Biso   1.000  N
  N18      1.0000 0.42331  0.93400  0.34992  Biso   1.000  N
  N19      1.0000 0.07669  0.43400  0.15008  Biso   1.000  N
  N20      1.0000 0.57669  0.93400  0.15008  Biso   1.000  N
  N21      1.0000 0.07669  0.56600  0.65008  Biso   1.000  N
  N22      1.0000 0.57669  0.06600  0.65008  Biso   1.000  N
  N23      1.0000 0.92331  0.56600  0.84992  Biso   1.000  N
  N24      1.0000 0.42331  0.06600  0.84992  Biso   1.000  N
  N25      1.0000 0.88150  0.69950  0.38480  Biso   1.000  N
  N26      1.0000 0.38150  0.19950  0.38480  Biso   1.000  N
  N27      1.0000 0.11850  0.69950  0.11520  Biso   1.000  N
  N28      1.0000 0.61850  0.19950  0.11520  Biso   1.000  N
  N29      1.0000 0.11850  0.30050  0.61520  Biso   1.000  N
  N30      1.0000 0.61850  0.80050  0.61520  Biso   1.000  N
  N31      1.0000 0.88150  0.30050  0.88480  Biso   1.000  N
  N32      1.0000 0.38150  0.80050  0.88480  Biso   1.000  N
  N33      1.0000 0.19158  0.52960  0.38566  Biso   1.000  N
  N34      1.0000 0.69158  0.02960  0.38566  Biso   1.000  N
  N35      1.0000 0.80842  0.52960  0.11434  Biso   1.000  N
  N36      1.0000 0.30842  0.02960  0.11434  Biso   1.000  N
  N37      1.0000 0.80842  0.47040  0.61434  Biso   1.000  N
  N38      1.0000 0.30842  0.97040  0.61434  Biso   1.000  N
  N39      1.0000 0.19158  0.47040  0.88566  Biso   1.000  N
  N40      1.0000 0.69158  0.97040  0.88566  Biso   1.000  N
  N41      1.0000 0.11539  0.72790  0.35355  Biso   1.000  N
  N42      1.0000 0.61539  0.22790  0.35355  Biso   1.000  N
  N43      1.0000 0.88461  0.72790  0.14645  Biso   1.000  N
  N44      1.0000 0.38461  0.22790  0.14645  Biso   1.000  N
  N45      1.0000 0.88461  0.27210  0.64645  Biso   1.000  N
  N46      1.0000 0.38461  0.77210  0.64645  Biso   1.000  N
  N47      1.0000 0.11539  0.27210  0.85355  Biso   1.000  N
  N48      1.0000 0.61539  0.77210  0.85355  Biso   1.000  N
  O1       1.0000 0.11077  0.11670  0.20633  Biso   1.000  O
  O2       1.0000 0.61077  0.61670  0.20633  Biso   1.000  O
  O3       1.0000 0.88923  0.11670  0.29367  Biso   1.000  O
  O4       1.0000 0.38923  0.61670  0.29367  Biso   1.000  O
  O5       1.0000 0.88923  0.88330  0.79367  Biso   1.000  O
  O6       1.0000 0.38923  0.38330  0.79367  Biso   1.000  O
  O7       1.0000 0.11077  0.88330  0.70633  Biso   1.000  O
  O8       1.0000 0.61077  0.38330  0.70633  Biso   1.000  O
  O9       1.0000 0.11878  0.99290  0.28397  Biso   1.000  O
  O10      1.0000 0.61878  0.49290  0.28397  Biso   1.000  O
  O11      1.0000 0.88122  0.99290  0.21603  Biso   1.000  O
  O12      1.0000 0.38122  0.49290  0.21603  Biso   1.000  O
  O13      1.0000 0.88122  0.00710  0.71603  Biso   1.000  O
  O14      1.0000 0.38122  0.50710  0.71603  Biso   1.000  O
  O15      1.0000 0.11878  0.00710  0.78397  Biso   1.000  O
  O16      1.0000 0.61878  0.50710  0.78397  Biso   1.000  O
  O17      1.0000 0.05894  0.01640  0.38514  Biso   1.000  O
  O18      1.0000 0.55894  0.51640  0.38514  Biso   1.000  O
  O19      1.0000 0.94106  0.01640  0.11486  Biso   1.000  O
  O20      1.0000 0.44106  0.51640  0.11486  Biso   1.000  O
  O21      1.0000 0.94106  0.98360  0.61486  Biso   1.000  O
  O22      1.0000 0.44106  0.48360  0.61486  Biso   1.000  O
  O23      1.0000 0.05894  0.98360  0.88514  Biso   1.000  O
  O24      1.0000 0.55894  0.48360  0.88514  Biso   1.000  O
  O25      1.0000 0.99736  0.17410  0.38401  Biso   1.000  O
  O26      1.0000 0.49736  0.67410  0.38401  Biso   1.000  O
  O27      1.0000 0.00264  0.17410  0.11599  Biso   1.000  O
  O28      1.0000 0.50264  0.67410  0.11599  Biso   1.000  O
  O29      1.0000 0.00264  0.82590  0.61599  Biso   1.000  O
  O30      1.0000 0.50264  0.32590  0.61599  Biso   1.000  O
  O31      1.0000 0.99736  0.82590  0.88401  Biso   1.000  O
  O32      1.0000 0.49736  0.32590  0.88401  Biso   1.000  O
  O33      1.0000 0.00472  0.46290  0.32144  Biso   1.000  O
  O34      1.0000 0.50472  0.96290  0.32144  Biso   1.000  O
  O35      1.0000 0.99528  0.46290  0.17856  Biso   1.000  O
  O36      1.0000 0.49528  0.96290  0.17856  Biso   1.000  O
  O37      1.0000 0.99528  0.53710  0.67856  Biso   1.000  O
  O38      1.0000 0.49528  0.03710  0.67856  Biso   1.000  O
  O39      1.0000 0.00472  0.53710  0.82144  Biso   1.000  O
  O40      1.0000 0.50472  0.03710  0.82144  Biso   1.000  O
  O41      1.0000 0.01256  0.71740  0.34976  Biso   1.000  O
  O42      1.0000 0.51256  0.21740  0.34976  Biso   1.000  O
  O43      1.0000 0.98744  0.71740  0.15024  Biso   1.000  O
  O44      1.0000 0.48744  0.21740  0.15024  Biso   1.000  O
  O45      1.0000 0.98744  0.28260  0.65024  Biso   1.000  O
  O46      1.0000 0.48744  0.78260  0.65024  Biso   1.000  O
  O47      1.0000 0.01256  0.28260  0.84976  Biso   1.000  O
  O48      1.0000 0.51256  0.78260  0.84976  Biso   1.000  O
  O49      1.0000 0.06236  0.67380  0.25908  Biso   1.000  O
  O50      1.0000 0.56236  0.17380  0.25908  Biso   1.000  O
  O51      1.0000 0.93764  0.67380  0.24092  Biso   1.000  O
  O52      1.0000 0.43764  0.17380  0.24092  Biso   1.000  O
  O53      1.0000 0.93764  0.32620  0.74092  Biso   1.000  O
  O54      1.0000 0.43764  0.82620  0.74092  Biso   1.000  O
  O55      1.0000 0.06236  0.32620  0.75908  Biso   1.000  O
  O56      1.0000 0.56236  0.82620  0.75908  Biso   1.000  O
  O57      1.0000 0.08729  0.41900  0.25899  Biso   1.000  O
  O58      1.0000 0.58729  0.91900  0.25899  Biso   1.000  O
  O59      1.0000 0.91271  0.41900  0.24101  Biso   1.000  O
  O60      1.0000 0.41271  0.91900  0.24101  Biso   1.000  O
  O61      1.0000 0.91271  0.58100  0.74101  Biso   1.000  O
  O62      1.0000 0.41271  0.08100  0.74101  Biso   1.000  O
  O63      1.0000 0.08729  0.58100  0.75899  Biso   1.000  O
  O64      1.0000 0.58729  0.08100  0.75899  Biso   1.000  O
  O65      1.0000 0.03645  0.18300  0.28853  Biso   1.000  O
  O66      1.0000 0.53645  0.68300  0.28853  Biso   1.000  O
  O67      1.0000 0.96355  0.18300  0.21147  Biso   1.000  O
  O68      1.0000 0.46355  0.68300  0.21147  Biso   1.000  O
  O69      1.0000 0.96355  0.81700  0.71147  Biso   1.000  O
  O70      1.0000 0.46355  0.31700  0.71147  Biso   1.000  O
  O71      1.0000 0.03645  0.81700  0.78853  Biso   1.000  O
  O72      1.0000 0.53645  0.31700  0.78853  Biso   1.000  O
  O73      1.0000 0.02748  0.95690  0.21460  Biso   1.000  O
  O74      1.0000 0.52748  0.45690  0.21460  Biso   1.000  O
  O75      1.0000 0.97252  0.95690  0.28540  Biso   1.000  O
  O76      1.0000 0.47252  0.45690  0.28540  Biso   1.000  O
  O77      1.0000 0.97252  0.04310  0.78540  Biso   1.000  O
  O78      1.0000 0.47252  0.54310  0.78540  Biso   1.000  O
  O79      1.0000 0.02748  0.04310  0.71460  Biso   1.000  O
  O80      1.0000 0.52748  0.54310  0.71460  Biso   1.000  O
