data_image0
_cell_length_a       10.401
_cell_length_b       26.428
_cell_length_c       8.065
_cell_angle_alpha    90
_cell_angle_beta     90
_cell_angle_gamma    90

_symmetry_space_group_name_H-M    "P 1"
_symmetry_int_tables_number       1

loop_
  _symmetry_equiv_pos_as_xyz
  'x, y, z'

loop_
  _atom_site_label
  _atom_site_occupancy
  _atom_site_fract_x
  _atom_site_fract_y
  _atom_site_fract_z
  _atom_site_thermal_displace_type
  _atom_site_B_iso_or_equiv
  _atom_site_type_symbol
  Cu1      1.0000 0.00000  0.00000  0.00000  Biso   1.000  Cu
  Cu2      1.0000 0.50000  0.50000  0.50000  Biso   1.000  Cu
  Cu3      1.0000 0.50000  0.50000  0.00000  Biso   1.000  Cu
  Cu4      1.0000 0.00000  0.00000  0.50000  Biso   1.000  Cu
  Fe1      1.0000 0.00000  0.21557  0.25000  Biso   1.000  Fe
  Fe2      1.0000 0.50000  0.71557  0.25000  Biso   1.000  Fe
  Fe3      1.0000 0.00000  0.78443  0.75000  Biso   1.000  Fe
  Fe4      1.0000 0.50000  0.28443  0.75000  Biso   1.000  Fe
  S1       1.0000 0.97760  0.11104  0.03490  Biso   1.000  S
  S2       1.0000 0.47760  0.61104  0.46510  Biso   1.000  S
  S3       1.0000 0.52240  0.61104  0.03490  Biso   1.000  S
  S4       1.0000 0.97760  0.88896  0.53490  Biso   1.000  S
  S5       1.0000 0.02240  0.88896  0.96510  Biso   1.000  S
  S6       1.0000 0.52240  0.38896  0.53490  Biso   1.000  S
  S7       1.0000 0.47760  0.38896  0.96510  Biso   1.000  S
  S8       1.0000 0.02240  0.11104  0.46510  Biso   1.000  S
  P1       1.0000 0.50000  0.10090  0.25000  Biso   1.000  P
  P2       1.0000 0.00000  0.60090  0.25000  Biso   1.000  P
  P3       1.0000 0.50000  0.89910  0.75000  Biso   1.000  P
  P4       1.0000 0.00000  0.39910  0.75000  Biso   1.000  P
  F1       1.0000 0.52120  0.14000  0.11550  Biso   1.000  F
  F2       1.0000 0.02120  0.64000  0.38450  Biso   1.000  F
  F3       1.0000 0.97880  0.64000  0.11550  Biso   1.000  F
  F4       1.0000 0.52120  0.86000  0.61550  Biso   1.000  F
  F5       1.0000 0.47880  0.86000  0.88450  Biso   1.000  F
  F6       1.0000 0.97880  0.36000  0.61550  Biso   1.000  F
  F7       1.0000 0.02120  0.36000  0.88450  Biso   1.000  F
  F8       1.0000 0.47880  0.14000  0.38450  Biso   1.000  F
  F9       1.0000 0.35610  0.10030  0.20540  Biso   1.000  F
  F10      1.0000 0.85610  0.60030  0.29460  Biso   1.000  F
  F11      1.0000 0.14390  0.60030  0.20540  Biso   1.000  F
  F12      1.0000 0.35610  0.89970  0.70540  Biso   1.000  F
  F13      1.0000 0.64390  0.89970  0.79460  Biso   1.000  F
  F14      1.0000 0.14390  0.39970  0.70540  Biso   1.000  F
  F15      1.0000 0.85610  0.39970  0.79460  Biso   1.000  F
  F16      1.0000 0.64390  0.10030  0.29460  Biso   1.000  F
  F17      1.0000 0.51430  0.05780  0.11750  Biso   1.000  F
  F18      1.0000 0.01430  0.55780  0.38250  Biso   1.000  F
  F19      1.0000 0.98570  0.55780  0.11750  Biso   1.000  F
  F20      1.0000 0.51430  0.94220  0.61750  Biso   1.000  F
  F21      1.0000 0.48570  0.94220  0.88250  Biso   1.000  F
  F22      1.0000 0.98570  0.44220  0.61750  Biso   1.000  F
  F23      1.0000 0.01430  0.44220  0.88250  Biso   1.000  F
  F24      1.0000 0.48570  0.05780  0.38250  Biso   1.000  F
  N1       1.0000 0.86990  0.03600  0.88370  Biso   1.000  N
  N2       1.0000 0.36990  0.53600  0.61630  Biso   1.000  N
  N3       1.0000 0.63010  0.53600  0.88370  Biso   1.000  N
  N4       1.0000 0.86990  0.96400  0.38370  Biso   1.000  N
  N5       1.0000 0.13010  0.96400  0.11630  Biso   1.000  N
  N6       1.0000 0.63010  0.46400  0.38370  Biso   1.000  N
  N7       1.0000 0.36990  0.46400  0.11630  Biso   1.000  N
  N8       1.0000 0.13010  0.03600  0.61630  Biso   1.000  N
  C1       1.0000 0.92690  0.17430  0.06360  Biso   1.000  C
  C2       1.0000 0.42690  0.67430  0.43640  Biso   1.000  C
  C3       1.0000 0.57310  0.67430  0.06360  Biso   1.000  C
  C4       1.0000 0.92690  0.82570  0.56360  Biso   1.000  C
  C5       1.0000 0.07310  0.82570  0.93640  Biso   1.000  C
  C6       1.0000 0.57310  0.32570  0.56360  Biso   1.000  C
  C7       1.0000 0.42690  0.32570  0.93640  Biso   1.000  C
  C8       1.0000 0.07310  0.17430  0.43640  Biso   1.000  C
  C9       1.0000 0.82730  0.18790  0.17390  Biso   1.000  C
  C10      1.0000 0.32730  0.68790  0.32610  Biso   1.000  C
  C11      1.0000 0.67270  0.68790  0.17390  Biso   1.000  C
  C12      1.0000 0.82730  0.81210  0.67390  Biso   1.000  C
  C13      1.0000 0.17270  0.81210  0.82610  Biso   1.000  C
  C14      1.0000 0.67270  0.31210  0.67390  Biso   1.000  C
  C15      1.0000 0.32730  0.31210  0.82610  Biso   1.000  C
  C16      1.0000 0.17270  0.18790  0.32610  Biso   1.000  C
  C17      1.0000 0.82710  0.24080  0.17400  Biso   1.000  C
  C18      1.0000 0.32710  0.74080  0.32600  Biso   1.000  C
  C19      1.0000 0.67290  0.74080  0.17400  Biso   1.000  C
  C20      1.0000 0.82710  0.75920  0.67400  Biso   1.000  C
  C21      1.0000 0.17290  0.75920  0.82600  Biso   1.000  C
  C22      1.0000 0.67290  0.25920  0.67400  Biso   1.000  C
  C23      1.0000 0.32710  0.25920  0.82600  Biso   1.000  C
  C24      1.0000 0.17290  0.24080  0.32600  Biso   1.000  C
  C25      1.0000 0.91600  0.26030  0.07600  Biso   1.000  C
  C26      1.0000 0.41600  0.76030  0.42400  Biso   1.000  C
  C27      1.0000 0.58400  0.76030  0.07600  Biso   1.000  C
  C28      1.0000 0.91600  0.73970  0.57600  Biso   1.000  C
  C29      1.0000 0.08400  0.73970  0.92400  Biso   1.000  C
  C30      1.0000 0.58400  0.23970  0.57600  Biso   1.000  C
  C31      1.0000 0.41600  0.23970  0.92400  Biso   1.000  C
  C32      1.0000 0.08400  0.26030  0.42400  Biso   1.000  C
  C33      1.0000 0.98480  0.21840  0.00010  Biso   1.000  C
  C34      1.0000 0.48480  0.71840  0.49990  Biso   1.000  C
  C35      1.0000 0.51520  0.71840  0.00010  Biso   1.000  C
  C36      1.0000 0.98480  0.78160  0.50010  Biso   1.000  C
  C37      1.0000 0.01520  0.78160  0.99990  Biso   1.000  C
  C38      1.0000 0.51520  0.28160  0.50010  Biso   1.000  C
  C39      1.0000 0.48480  0.28160  0.99990  Biso   1.000  C
  C40      1.0000 0.01520  0.21840  0.49990  Biso   1.000  C
  C41      1.0000 0.85920  0.08640  0.89920  Biso   1.000  C
  C42      1.0000 0.35920  0.58640  0.60080  Biso   1.000  C
  C43      1.0000 0.64080  0.58640  0.89920  Biso   1.000  C
  C44      1.0000 0.85920  0.91360  0.39920  Biso   1.000  C
  C45      1.0000 0.14080  0.91360  0.10080  Biso   1.000  C
  C46      1.0000 0.64080  0.41360  0.39920  Biso   1.000  C
  C47      1.0000 0.35920  0.41360  0.10080  Biso   1.000  C
  C48      1.0000 0.14080  0.08640  0.60080  Biso   1.000  C
  C49      1.0000 0.76790  0.11390  0.81820  Biso   1.000  C
  C50      1.0000 0.26790  0.61390  0.68180  Biso   1.000  C
  C51      1.0000 0.73210  0.61390  0.81820  Biso   1.000  C
  C52      1.0000 0.76790  0.88610  0.31820  Biso   1.000  C
  C53      1.0000 0.23210  0.88610  0.18180  Biso   1.000  C
  C54      1.0000 0.73210  0.38610  0.31820  Biso   1.000  C
  C55      1.0000 0.26790  0.38610  0.18180  Biso   1.000  C
  C56      1.0000 0.23210  0.11390  0.68180  Biso   1.000  C
  C57      1.0000 0.68330  0.08860  0.71340  Biso   1.000  C
  C58      1.0000 0.18330  0.58860  0.78660  Biso   1.000  C
  C59      1.0000 0.81670  0.58860  0.71340  Biso   1.000  C
  C60      1.0000 0.68330  0.91140  0.21340  Biso   1.000  C
  C61      1.0000 0.31670  0.91140  0.28660  Biso   1.000  C
  C62      1.0000 0.81670  0.41140  0.21340  Biso   1.000  C
  C63      1.0000 0.18330  0.41140  0.28660  Biso   1.000  C
  C64      1.0000 0.31670  0.08860  0.78660  Biso   1.000  C
  C65      1.0000 0.69280  0.03750  0.70030  Biso   1.000  C
  C66      1.0000 0.19280  0.53750  0.79970  Biso   1.000  C
  C67      1.0000 0.80720  0.53750  0.70030  Biso   1.000  C
  C68      1.0000 0.69280  0.96250  0.20030  Biso   1.000  C
  C69      1.0000 0.30720  0.96250  0.29970  Biso   1.000  C
  C70      1.0000 0.80720  0.46250  0.20030  Biso   1.000  C
  C71      1.0000 0.19280  0.46250  0.29970  Biso   1.000  C
  C72      1.0000 0.30720  0.03750  0.79970  Biso   1.000  C
  C73      1.0000 0.78340  0.01210  0.78380  Biso   1.000  C
  C74      1.0000 0.28340  0.51210  0.71620  Biso   1.000  C
  C75      1.0000 0.71660  0.51210  0.78380  Biso   1.000  C
  C76      1.0000 0.78340  0.98790  0.28380  Biso   1.000  C
  C77      1.0000 0.21660  0.98790  0.21620  Biso   1.000  C
  C78      1.0000 0.71660  0.48790  0.28380  Biso   1.000  C
  C79      1.0000 0.28340  0.48790  0.21620  Biso   1.000  C
  C80      1.0000 0.21660  0.01210  0.71620  Biso   1.000  C
  H1       1.0000 0.77290  0.16640  0.23630  Biso   1.000  H
  H2       1.0000 0.27290  0.66640  0.26370  Biso   1.000  H
  H3       1.0000 0.72710  0.66640  0.23630  Biso   1.000  H
  H4       1.0000 0.77290  0.83360  0.73630  Biso   1.000  H
  H5       1.0000 0.22710  0.83360  0.76370  Biso   1.000  H
  H6       1.0000 0.72710  0.33360  0.73630  Biso   1.000  H
  H7       1.0000 0.27290  0.33360  0.76370  Biso   1.000  H
  H8       1.0000 0.22710  0.16640  0.26370  Biso   1.000  H
  H9       1.0000 0.76280  0.26130  0.24640  Biso   1.000  H
  H10      1.0000 0.26280  0.76130  0.25360  Biso   1.000  H
  H11      1.0000 0.73720  0.76130  0.24640  Biso   1.000  H
  H12      1.0000 0.76280  0.73870  0.74640  Biso   1.000  H
  H13      1.0000 0.23720  0.73870  0.75360  Biso   1.000  H
  H14      1.0000 0.73720  0.23870  0.74640  Biso   1.000  H
  H15      1.0000 0.26280  0.23870  0.75360  Biso   1.000  H
  H16      1.0000 0.23720  0.26130  0.25360  Biso   1.000  H
  H17      1.0000 0.94210  0.29460  0.05600  Biso   1.000  H
  H18      1.0000 0.44210  0.79460  0.44400  Biso   1.000  H
  H19      1.0000 0.55790  0.79460  0.05600  Biso   1.000  H
  H20      1.0000 0.94210  0.70540  0.55600  Biso   1.000  H
  H21      1.0000 0.05790  0.70540  0.94400  Biso   1.000  H
  H22      1.0000 0.55790  0.20540  0.55600  Biso   1.000  H
  H23      1.0000 0.44210  0.20540  0.94400  Biso   1.000  H
  H24      1.0000 0.05790  0.29460  0.44400  Biso   1.000  H
  H25      1.0000 0.06120  0.22040  0.92150  Biso   1.000  H
  H26      1.0000 0.56120  0.72040  0.57850  Biso   1.000  H
  H27      1.0000 0.43880  0.72040  0.92150  Biso   1.000  H
  H28      1.0000 0.06120  0.77960  0.42150  Biso   1.000  H
  H29      1.0000 0.93880  0.77960  0.07850  Biso   1.000  H
  H30      1.0000 0.43880  0.27960  0.42150  Biso   1.000  H
  H31      1.0000 0.56120  0.27960  0.07850  Biso   1.000  H
  H32      1.0000 0.93880  0.22040  0.57850  Biso   1.000  H
  H33      1.0000 0.76510  0.14980  0.82870  Biso   1.000  H
  H34      1.0000 0.26510  0.64980  0.67130  Biso   1.000  H
  H35      1.0000 0.73490  0.64980  0.82870  Biso   1.000  H
  H36      1.0000 0.76510  0.85020  0.32870  Biso   1.000  H
  H37      1.0000 0.23490  0.85020  0.17130  Biso   1.000  H
  H38      1.0000 0.73490  0.35020  0.32870  Biso   1.000  H
  H39      1.0000 0.26510  0.35020  0.17130  Biso   1.000  H
  H40      1.0000 0.23490  0.14980  0.67130  Biso   1.000  H
  H41      1.0000 0.61340  0.10550  0.65630  Biso   1.000  H
  H42      1.0000 0.11340  0.60550  0.84370  Biso   1.000  H
  H43      1.0000 0.88660  0.60550  0.65630  Biso   1.000  H
  H44      1.0000 0.61340  0.89450  0.15630  Biso   1.000  H
  H45      1.0000 0.38660  0.89450  0.34370  Biso   1.000  H
  H46      1.0000 0.88660  0.39450  0.15630  Biso   1.000  H
  H47      1.0000 0.11340  0.39450  0.34370  Biso   1.000  H
  H48      1.0000 0.38660  0.10550  0.84370  Biso   1.000  H
  H49      1.0000 0.62990  0.01870  0.62830  Biso   1.000  H
  H50      1.0000 0.12990  0.51870  0.87170  Biso   1.000  H
  H51      1.0000 0.87010  0.51870  0.62830  Biso   1.000  H
  H52      1.0000 0.62990  0.98130  0.12830  Biso   1.000  H
  H53      1.0000 0.37010  0.98130  0.37170  Biso   1.000  H
  H54      1.0000 0.87010  0.48130  0.12830  Biso   1.000  H
  H55      1.0000 0.12990  0.48130  0.37170  Biso   1.000  H
  H56      1.0000 0.37010  0.01870  0.87170  Biso   1.000  H
  H57      1.0000 0.79530  0.97570  0.76890  Biso   1.000  H
  H58      1.0000 0.29530  0.47570  0.73110  Biso   1.000  H
  H59      1.0000 0.70470  0.47570  0.76890  Biso   1.000  H
  H60      1.0000 0.79530  0.02430  0.26890  Biso   1.000  H
  H61      1.0000 0.20470  0.02430  0.23110  Biso   1.000  H
  H62      1.0000 0.70470  0.52430  0.26890  Biso   1.000  H
  H63      1.0000 0.29530  0.52430  0.23110  Biso   1.000  H
  H64      1.0000 0.20470  0.97570  0.73110  Biso   1.000  H
