data_image0
_cell_length_a       8.9951
_cell_length_b       12.7079
_cell_length_c       11.3647
_cell_angle_alpha    90
_cell_angle_beta     108.078
_cell_angle_gamma    90

_symmetry_space_group_name_H-M    "P 1"
_symmetry_int_tables_number       1

loop_
  _symmetry_equiv_pos_as_xyz
  'x, y, z'

loop_
  _atom_site_label
  _atom_site_occupancy
  _atom_site_fract_x
  _atom_site_fract_y
  _atom_site_fract_z
  _atom_site_thermal_displace_type
  _atom_site_B_iso_or_equiv
  _atom_site_type_symbol
  Cu1      1.0000 0.25614  0.23950  0.46967  Biso   1.000  Cu
  Cu2      1.0000 0.74386  0.73950  0.03033  Biso   1.000  Cu
  Cu3      1.0000 0.74386  0.76050  0.53033  Biso   1.000  Cu
  Cu4      1.0000 0.25614  0.26050  0.96967  Biso   1.000  Cu
  S1       1.0000 0.08308  0.33401  0.31161  Biso   1.000  S
  S2       1.0000 0.91692  0.83401  0.18839  Biso   1.000  S
  S3       1.0000 0.91692  0.66599  0.68839  Biso   1.000  S
  S4       1.0000 0.08308  0.16599  0.81161  Biso   1.000  S
  C1       1.0000 0.14730  0.29926  0.19600  Biso   1.000  C
  C2       1.0000 0.85270  0.79926  0.30400  Biso   1.000  C
  C3       1.0000 0.85270  0.70074  0.80400  Biso   1.000  C
  C4       1.0000 0.14730  0.20074  0.69600  Biso   1.000  C
  N1       1.0000 0.19140  0.27771  0.11360  Biso   1.000  N
  N2       1.0000 0.80860  0.77771  0.38640  Biso   1.000  N
  N3       1.0000 0.80860  0.72229  0.88640  Biso   1.000  N
  N4       1.0000 0.19140  0.22229  0.61360  Biso   1.000  N
  N5       1.0000 0.48800  0.28483  0.49537  Biso   1.000  N
  N6       1.0000 0.51200  0.78483  0.00463  Biso   1.000  N
  N7       1.0000 0.51200  0.71517  0.50463  Biso   1.000  N
  N8       1.0000 0.48800  0.21517  0.99537  Biso   1.000  N
  N9       1.0000 0.33190  0.10972  0.38916  Biso   1.000  N
  N10      1.0000 0.66810  0.60972  0.11084  Biso   1.000  N
  N11      1.0000 0.66810  0.89028  0.61084  Biso   1.000  N
  N12      1.0000 0.33190  0.39028  0.88916  Biso   1.000  N
  C5       1.0000 0.56490  0.37080  0.54740  Biso   1.000  C
  C6       1.0000 0.43510  0.87080  0.95260  Biso   1.000  C
  C7       1.0000 0.43510  0.62920  0.45260  Biso   1.000  C
  C8       1.0000 0.56490  0.12920  0.04740  Biso   1.000  C
  H1       1.0000 0.50800  0.41900  0.58400  Biso   1.000  H
  H2       1.0000 0.49200  0.91900  0.91600  Biso   1.000  H
  H3       1.0000 0.49200  0.58100  0.41600  Biso   1.000  H
  H4       1.0000 0.50800  0.08100  0.08400  Biso   1.000  H
  C9       1.0000 0.72020  0.39060  0.55780  Biso   1.000  C
  C10      1.0000 0.27980  0.89060  0.94220  Biso   1.000  C
  C11      1.0000 0.27980  0.60940  0.44220  Biso   1.000  C
  C12      1.0000 0.72020  0.10940  0.05780  Biso   1.000  C
  H5       1.0000 0.77600  0.45800  0.60200  Biso   1.000  H
  H6       1.0000 0.22400  0.95800  0.89800  Biso   1.000  H
  H7       1.0000 0.22400  0.54200  0.39800  Biso   1.000  H
  H8       1.0000 0.77600  0.04200  0.10200  Biso   1.000  H
  C13      1.0000 0.80220  0.31780  0.51440  Biso   1.000  C
  C14      1.0000 0.19780  0.81780  0.98560  Biso   1.000  C
  C15      1.0000 0.19780  0.68220  0.48560  Biso   1.000  C
  C16      1.0000 0.80220  0.18220  0.01440  Biso   1.000  C
  H9       1.0000 0.91500  0.33100  0.51900  Biso   1.000  H
  H10      1.0000 0.08500  0.83100  0.98100  Biso   1.000  H
  H11      1.0000 0.08500  0.66900  0.48100  Biso   1.000  H
  H12      1.0000 0.91500  0.16900  0.01900  Biso   1.000  H
  C17      1.0000 0.72660  0.22400  0.45960  Biso   1.000  C
  C18      1.0000 0.27340  0.72400  0.04040  Biso   1.000  C
  C19      1.0000 0.27340  0.77600  0.54040  Biso   1.000  C
  C20      1.0000 0.72660  0.27600  0.95960  Biso   1.000  C
  C21      1.0000 0.56840  0.21217  0.45160  Biso   1.000  C
  C22      1.0000 0.43160  0.71217  0.04840  Biso   1.000  C
  C23      1.0000 0.43160  0.78783  0.54840  Biso   1.000  C
  C24      1.0000 0.56840  0.28783  0.95160  Biso   1.000  C
  C25      1.0000 0.48430  0.11824  0.39480  Biso   1.000  C
  C26      1.0000 0.51570  0.61824  0.10520  Biso   1.000  C
  C27      1.0000 0.51570  0.88176  0.60520  Biso   1.000  C
  C28      1.0000 0.48430  0.38176  0.89480  Biso   1.000  C
  C29      1.0000 0.56480  0.04053  0.35060  Biso   1.000  C
  C30      1.0000 0.43520  0.54053  0.14940  Biso   1.000  C
  C31      1.0000 0.43520  0.95947  0.64940  Biso   1.000  C
  C32      1.0000 0.56480  0.45947  0.85060  Biso   1.000  C
  C33      1.0000 0.47950  0.95000  0.29650  Biso   1.000  C
  C34      1.0000 0.52050  0.45000  0.20350  Biso   1.000  C
  C35      1.0000 0.52050  0.05000  0.70350  Biso   1.000  C
  C36      1.0000 0.47950  0.55000  0.79650  Biso   1.000  C
  H13      1.0000 0.53100  0.89400  0.26700  Biso   1.000  H
  H14      1.0000 0.46900  0.39400  0.23300  Biso   1.000  H
  H15      1.0000 0.46900  0.10600  0.73300  Biso   1.000  H
  H16      1.0000 0.53100  0.60600  0.76700  Biso   1.000  H
  C37      1.0000 0.32500  0.94240  0.28940  Biso   1.000  C
  C38      1.0000 0.67500  0.44240  0.21060  Biso   1.000  C
  C39      1.0000 0.67500  0.05760  0.71060  Biso   1.000  C
  C40      1.0000 0.32500  0.55760  0.78940  Biso   1.000  C
  H17      1.0000 0.25800  0.88400  0.24800  Biso   1.000  H
  H18      1.0000 0.74200  0.38400  0.25200  Biso   1.000  H
  H19      1.0000 0.74200  0.11600  0.75200  Biso   1.000  H
  H20      1.0000 0.25800  0.61600  0.74800  Biso   1.000  H
  C41      1.0000 0.25470  0.02380  0.33660  Biso   1.000  C
  C42      1.0000 0.74530  0.52380  0.16340  Biso   1.000  C
  C43      1.0000 0.74530  0.97620  0.66340  Biso   1.000  C
  C44      1.0000 0.25470  0.47620  0.83660  Biso   1.000  C
  H21      1.0000 0.14700  0.01900  0.33300  Biso   1.000  H
  H22      1.0000 0.85300  0.51900  0.16700  Biso   1.000  H
  H23      1.0000 0.85300  0.98100  0.66700  Biso   1.000  H
  H24      1.0000 0.14700  0.48100  0.83300  Biso   1.000  H
  C45      1.0000 0.80420  0.14350  0.41360  Biso   1.000  C
  C46      1.0000 0.19580  0.64350  0.08640  Biso   1.000  C
  C47      1.0000 0.19580  0.85650  0.58640  Biso   1.000  C
  C48      1.0000 0.80420  0.35650  0.91360  Biso   1.000  C
  H25      1.0000 0.91200  0.15400  0.42300  Biso   1.000  H
  H26      1.0000 0.08800  0.65400  0.07700  Biso   1.000  H
  H27      1.0000 0.08800  0.84600  0.57700  Biso   1.000  H
  H28      1.0000 0.91200  0.34600  0.92300  Biso   1.000  H
  C49      1.0000 0.72670  0.05580  0.36180  Biso   1.000  C
  C50      1.0000 0.27330  0.55580  0.13820  Biso   1.000  C
  C51      1.0000 0.27330  0.94420  0.63820  Biso   1.000  C
  C52      1.0000 0.72670  0.44420  0.86180  Biso   1.000  C
  H29      1.0000 0.77800  0.00500  0.33200  Biso   1.000  H
  H30      1.0000 0.22200  0.50500  0.16800  Biso   1.000  H
  H31      1.0000 0.22200  0.99500  0.66800  Biso   1.000  H
  H32      1.0000 0.77800  0.49500  0.83200  Biso   1.000  H
