data_image0
_cell_length_a       7.9744
_cell_length_b       11.948
_cell_length_c       12.956
_cell_angle_alpha    90
_cell_angle_beta     90
_cell_angle_gamma    90

_symmetry_space_group_name_H-M    "P 1"
_symmetry_int_tables_number       1

loop_
  _symmetry_equiv_pos_as_xyz
  'x, y, z'

loop_
  _atom_site_label
  _atom_site_occupancy
  _atom_site_fract_x
  _atom_site_fract_y
  _atom_site_fract_z
  _atom_site_thermal_displace_type
  _atom_site_B_iso_or_equiv
  _atom_site_type_symbol
  C1       1.0000 0.13936  0.68993  0.13076  Biso   1.000  C
  C2       1.0000 0.36064  0.31007  0.63076  Biso   1.000  C
  C3       1.0000 0.86064  0.18993  0.86924  Biso   1.000  C
  C4       1.0000 0.63936  0.81007  0.36924  Biso   1.000  C
  C5       1.0000 0.86064  0.31007  0.86924  Biso   1.000  C
  C6       1.0000 0.63936  0.68993  0.36924  Biso   1.000  C
  C7       1.0000 0.13936  0.81007  0.13076  Biso   1.000  C
  C8       1.0000 0.36064  0.18993  0.63076  Biso   1.000  C
  C9       1.0000 0.10110  0.63175  0.22243  Biso   1.000  C
  C10      1.0000 0.39890  0.36825  0.72243  Biso   1.000  C
  C11      1.0000 0.89890  0.13175  0.77757  Biso   1.000  C
  C12      1.0000 0.60110  0.86825  0.27757  Biso   1.000  C
  C13      1.0000 0.89890  0.36825  0.77757  Biso   1.000  C
  C14      1.0000 0.60110  0.63175  0.27757  Biso   1.000  C
  C15      1.0000 0.10110  0.86825  0.22243  Biso   1.000  C
  C16      1.0000 0.39890  0.13175  0.72243  Biso   1.000  C
  C17      1.0000 0.06280  0.69444  0.31338  Biso   1.000  C
  C18      1.0000 0.43720  0.30556  0.81338  Biso   1.000  C
  C19      1.0000 0.93720  0.19444  0.68662  Biso   1.000  C
  C20      1.0000 0.56280  0.80556  0.18662  Biso   1.000  C
  C21      1.0000 0.93720  0.30556  0.68662  Biso   1.000  C
  C22      1.0000 0.56280  0.69444  0.18662  Biso   1.000  C
  C23      1.0000 0.06280  0.80556  0.31338  Biso   1.000  C
  C24      1.0000 0.43720  0.19444  0.81338  Biso   1.000  C
  H1       1.0000 0.03720  0.65650  0.37400  Biso   1.000  H
  H2       1.0000 0.46280  0.34350  0.87400  Biso   1.000  H
  H3       1.0000 0.96280  0.15650  0.62600  Biso   1.000  H
  H4       1.0000 0.53720  0.84350  0.12600  Biso   1.000  H
  H5       1.0000 0.96280  0.34350  0.62600  Biso   1.000  H
  H6       1.0000 0.53720  0.65650  0.12600  Biso   1.000  H
  H7       1.0000 0.03720  0.84350  0.37400  Biso   1.000  H
  H8       1.0000 0.46280  0.15650  0.87400  Biso   1.000  H
  C25      1.0000 0.10510  0.51479  0.21873  Biso   1.000  C
  C26      1.0000 0.39490  0.48521  0.71873  Biso   1.000  C
  C27      1.0000 0.89490  0.01479  0.78127  Biso   1.000  C
  C28      1.0000 0.60510  0.98521  0.28127  Biso   1.000  C
  C29      1.0000 0.89490  0.48521  0.78127  Biso   1.000  C
  C30      1.0000 0.60510  0.51479  0.28127  Biso   1.000  C
  C31      1.0000 0.10510  0.98521  0.21873  Biso   1.000  C
  C32      1.0000 0.39490  0.01479  0.71873  Biso   1.000  C
  H9       1.0000 0.07920  0.47310  0.27720  Biso   1.000  H
  H10      1.0000 0.42080  0.52690  0.77720  Biso   1.000  H
  H11      1.0000 0.92080  0.97310  0.72280  Biso   1.000  H
  H12      1.0000 0.57920  0.02690  0.22280  Biso   1.000  H
  H13      1.0000 0.92080  0.52690  0.72280  Biso   1.000  H
  H14      1.0000 0.57920  0.47310  0.22280  Biso   1.000  H
  H15      1.0000 0.07920  0.02690  0.27720  Biso   1.000  H
  H16      1.0000 0.42080  0.97310  0.77720  Biso   1.000  H
  C33      1.0000 0.14680  0.46262  0.12958  Biso   1.000  C
  C34      1.0000 0.35320  0.53738  0.62958  Biso   1.000  C
  C35      1.0000 0.85320  0.96262  0.87042  Biso   1.000  C
  C36      1.0000 0.64680  0.03738  0.37042  Biso   1.000  C
  C37      1.0000 0.85320  0.53738  0.87042  Biso   1.000  C
  C38      1.0000 0.64680  0.46262  0.37042  Biso   1.000  C
  C39      1.0000 0.14680  0.03738  0.12958  Biso   1.000  C
  C40      1.0000 0.35320  0.96262  0.62958  Biso   1.000  C
  H17      1.0000 0.14910  0.38490  0.12620  Biso   1.000  H
  H18      1.0000 0.35090  0.61510  0.62620  Biso   1.000  H
  H19      1.0000 0.85090  0.88490  0.87380  Biso   1.000  H
  H20      1.0000 0.64910  0.11510  0.37380  Biso   1.000  H
  H21      1.0000 0.85090  0.61510  0.87380  Biso   1.000  H
  H22      1.0000 0.64910  0.38490  0.37380  Biso   1.000  H
  H23      1.0000 0.14910  0.11510  0.12620  Biso   1.000  H
  H24      1.0000 0.35090  0.88490  0.62620  Biso   1.000  H
  C41      1.0000 0.18620  0.52657  0.04275  Biso   1.000  C
  C42      1.0000 0.31380  0.47343  0.54275  Biso   1.000  C
  C43      1.0000 0.81380  0.02657  0.95725  Biso   1.000  C
  C44      1.0000 0.68620  0.97343  0.45725  Biso   1.000  C
  C45      1.0000 0.81380  0.47343  0.95725  Biso   1.000  C
  C46      1.0000 0.68620  0.52657  0.45725  Biso   1.000  C
  C47      1.0000 0.18620  0.97343  0.04275  Biso   1.000  C
  C48      1.0000 0.31380  0.02657  0.54275  Biso   1.000  C
  H25      1.0000 0.21750  0.48950  0.98260  Biso   1.000  H
  H26      1.0000 0.28250  0.51050  0.48260  Biso   1.000  H
  H27      1.0000 0.78250  0.98950  0.01740  Biso   1.000  H
  H28      1.0000 0.71750  0.01050  0.51740  Biso   1.000  H
  H29      1.0000 0.78250  0.51050  0.01740  Biso   1.000  H
  H30      1.0000 0.71750  0.48950  0.51740  Biso   1.000  H
  H31      1.0000 0.21750  0.01050  0.98260  Biso   1.000  H
  H32      1.0000 0.28250  0.98950  0.48260  Biso   1.000  H
  C49      1.0000 0.08340  0.75000  0.70798  Biso   1.000  C
  C50      1.0000 0.41660  0.25000  0.20798  Biso   1.000  C
  C51      1.0000 0.91660  0.25000  0.29202  Biso   1.000  C
  C52      1.0000 0.58340  0.75000  0.79202  Biso   1.000  C
  Cu1      1.0000 0.23713  0.75000  0.92283  Biso   1.000  Cu
  Cu2      1.0000 0.26287  0.25000  0.42283  Biso   1.000  Cu
  Cu3      1.0000 0.76287  0.25000  0.07717  Biso   1.000  Cu
  Cu4      1.0000 0.73713  0.75000  0.57717  Biso   1.000  Cu
  N1       1.0000 0.12860  0.75000  0.79199  Biso   1.000  N
  N2       1.0000 0.37140  0.25000  0.29199  Biso   1.000  N
  N3       1.0000 0.87140  0.25000  0.20801  Biso   1.000  N
  N4       1.0000 0.62860  0.75000  0.70801  Biso   1.000  N
  N5       1.0000 0.18111  0.63783  0.04164  Biso   1.000  N
  N6       1.0000 0.31889  0.36217  0.54164  Biso   1.000  N
  N7       1.0000 0.81889  0.13783  0.95836  Biso   1.000  N
  N8       1.0000 0.68111  0.86217  0.45836  Biso   1.000  N
  N9       1.0000 0.81889  0.36217  0.95836  Biso   1.000  N
  N10      1.0000 0.68111  0.63783  0.45836  Biso   1.000  N
  N11      1.0000 0.18111  0.86217  0.04164  Biso   1.000  N
  N12      1.0000 0.31889  0.13783  0.54164  Biso   1.000  N
  S1       1.0000 0.02660  0.75000  0.58628  Biso   1.000  S
  S2       1.0000 0.47340  0.25000  0.08628  Biso   1.000  S
  S3       1.0000 0.97340  0.25000  0.41372  Biso   1.000  S
  S4       1.0000 0.52660  0.75000  0.91372  Biso   1.000  S
