data_image0
_cell_length_a       9.0187
_cell_length_b       12.758
_cell_length_c       11.3738
_cell_angle_alpha    90
_cell_angle_beta     107.752
_cell_angle_gamma    90

_symmetry_space_group_name_H-M    "P 1"
_symmetry_int_tables_number       1

loop_
  _symmetry_equiv_pos_as_xyz
  'x, y, z'

loop_
  _atom_site_label
  _atom_site_occupancy
  _atom_site_fract_x
  _atom_site_fract_y
  _atom_site_fract_z
  _atom_site_thermal_displace_type
  _atom_site_B_iso_or_equiv
  _atom_site_type_symbol
  Cu1      1.0000 0.74466  0.23932  0.53181  Biso   1.000  Cu
  Cu2      1.0000 0.25534  0.73932  0.96819  Biso   1.000  Cu
  Cu3      1.0000 0.25534  0.76068  0.46819  Biso   1.000  Cu
  Cu4      1.0000 0.74466  0.26068  0.03181  Biso   1.000  Cu
  S1       1.0000 0.81060  0.22370  0.38940  Biso   1.000  S
  S2       1.0000 0.18940  0.72370  0.11060  Biso   1.000  S
  S3       1.0000 0.18940  0.77630  0.61060  Biso   1.000  S
  S4       1.0000 0.81060  0.27630  0.88940  Biso   1.000  S
  N1       1.0000 0.66840  0.11050  0.61140  Biso   1.000  N
  N2       1.0000 0.33160  0.61050  0.88860  Biso   1.000  N
  N3       1.0000 0.33160  0.88950  0.38860  Biso   1.000  N
  N4       1.0000 0.66840  0.38950  0.11140  Biso   1.000  N
  N5       1.0000 0.51420  0.28330  0.50610  Biso   1.000  N
  N6       1.0000 0.48580  0.78330  0.99390  Biso   1.000  N
  N7       1.0000 0.48580  0.71670  0.49390  Biso   1.000  N
  N8       1.0000 0.51420  0.21670  0.00610  Biso   1.000  N
  N9       1.0000 0.91604  0.16622  0.18896  Biso   1.000  N
  N10      1.0000 0.08396  0.66622  0.31104  Biso   1.000  N
  N11      1.0000 0.08396  0.83378  0.81104  Biso   1.000  N
  N12      1.0000 0.91604  0.33378  0.68896  Biso   1.000  N
  C1       1.0000 0.74570  0.02560  0.66480  Biso   1.000  C
  C2       1.0000 0.25430  0.52560  0.83520  Biso   1.000  C
  C3       1.0000 0.25430  0.97440  0.33520  Biso   1.000  C
  C4       1.0000 0.74570  0.47440  0.16480  Biso   1.000  C
  H1       1.0000 0.85110  0.01970  0.67270  Biso   1.000  H
  H2       1.0000 0.14890  0.51970  0.82730  Biso   1.000  H
  H3       1.0000 0.14890  0.98030  0.32730  Biso   1.000  H
  H4       1.0000 0.85110  0.48030  0.17270  Biso   1.000  H
  C5       1.0000 0.66980  0.94280  0.71060  Biso   1.000  C
  C6       1.0000 0.33020  0.44280  0.78940  Biso   1.000  C
  C7       1.0000 0.33020  0.05720  0.28940  Biso   1.000  C
  C8       1.0000 0.66980  0.55720  0.21060  Biso   1.000  C
  H5       1.0000 0.72540  0.88310  0.74500  Biso   1.000  H
  H6       1.0000 0.27460  0.38310  0.75500  Biso   1.000  H
  H7       1.0000 0.27460  0.11690  0.25500  Biso   1.000  H
  H8       1.0000 0.72540  0.61690  0.24500  Biso   1.000  H
  C9       1.0000 0.52550  0.95100  0.70410  Biso   1.000  C
  C10      1.0000 0.47450  0.45100  0.79590  Biso   1.000  C
  C11      1.0000 0.47450  0.04900  0.29590  Biso   1.000  C
  C12      1.0000 0.52550  0.54900  0.20410  Biso   1.000  C
  H9       1.0000 0.47850  0.89750  0.73550  Biso   1.000  H
  H10      1.0000 0.52150  0.39750  0.76450  Biso   1.000  H
  H11      1.0000 0.52150  0.10250  0.26450  Biso   1.000  H
  H12      1.0000 0.47850  0.60250  0.23550  Biso   1.000  H
  C13      1.0000 0.43570  0.04060  0.64980  Biso   1.000  C
  C14      1.0000 0.56430  0.54060  0.85020  Biso   1.000  C
  C15      1.0000 0.56430  0.95940  0.35020  Biso   1.000  C
  C16      1.0000 0.43570  0.45940  0.14980  Biso   1.000  C
  C17      1.0000 0.27400  0.05540  0.63920  Biso   1.000  C
  C18      1.0000 0.72600  0.55540  0.86080  Biso   1.000  C
  C19      1.0000 0.72600  0.94460  0.36080  Biso   1.000  C
  C20      1.0000 0.27400  0.44460  0.13920  Biso   1.000  C
  H13      1.0000 0.22120  0.00390  0.66830  Biso   1.000  H
  H14      1.0000 0.77880  0.50390  0.83170  Biso   1.000  H
  H15      1.0000 0.77880  0.99610  0.33170  Biso   1.000  H
  H16      1.0000 0.22120  0.49610  0.16830  Biso   1.000  H
  C21      1.0000 0.19730  0.14390  0.58690  Biso   1.000  C
  C22      1.0000 0.80270  0.64390  0.91310  Biso   1.000  C
  C23      1.0000 0.80270  0.85610  0.41310  Biso   1.000  C
  C24      1.0000 0.19730  0.35610  0.08690  Biso   1.000  C
  H17      1.0000 0.09280  0.15200  0.58090  Biso   1.000  H
  H18      1.0000 0.90720  0.65200  0.91910  Biso   1.000  H
  H19      1.0000 0.90720  0.84800  0.41910  Biso   1.000  H
  H20      1.0000 0.09280  0.34800  0.08090  Biso   1.000  H
  C25      1.0000 0.27540  0.22510  0.54090  Biso   1.000  C
  C26      1.0000 0.72460  0.72510  0.95910  Biso   1.000  C
  C27      1.0000 0.72460  0.77490  0.45910  Biso   1.000  C
  C28      1.0000 0.27540  0.27490  0.04090  Biso   1.000  C
  C29      1.0000 0.19900  0.31730  0.48550  Biso   1.000  C
  C30      1.0000 0.80100  0.81730  0.01450  Biso   1.000  C
  C31      1.0000 0.80100  0.68270  0.51450  Biso   1.000  C
  C32      1.0000 0.19900  0.18270  0.98550  Biso   1.000  C
  H21      1.0000 0.09480  0.32930  0.47800  Biso   1.000  H
  H22      1.0000 0.90520  0.82930  0.02200  Biso   1.000  H
  H23      1.0000 0.90520  0.67070  0.52200  Biso   1.000  H
  H24      1.0000 0.09480  0.17070  0.97800  Biso   1.000  H
  C33      1.0000 0.28470  0.38850  0.44320  Biso   1.000  C
  C34      1.0000 0.71530  0.88850  0.05680  Biso   1.000  C
  C35      1.0000 0.71530  0.61150  0.55680  Biso   1.000  C
  C36      1.0000 0.28470  0.11150  0.94320  Biso   1.000  C
  H25      1.0000 0.23820  0.45050  0.40740  Biso   1.000  H
  H26      1.0000 0.76180  0.95050  0.09260  Biso   1.000  H
  H27      1.0000 0.76180  0.54950  0.59260  Biso   1.000  H
  H28      1.0000 0.23820  0.04950  0.90740  Biso   1.000  H
  C37      1.0000 0.43780  0.36970  0.45260  Biso   1.000  C
  C38      1.0000 0.56220  0.86970  0.04740  Biso   1.000  C
  C39      1.0000 0.56220  0.63030  0.54740  Biso   1.000  C
  C40      1.0000 0.43780  0.13030  0.95260  Biso   1.000  C
  H29      1.0000 0.49090  0.41900  0.42060  Biso   1.000  H
  H30      1.0000 0.50910  0.91900  0.07940  Biso   1.000  H
  H31      1.0000 0.50910  0.58100  0.57940  Biso   1.000  H
  H32      1.0000 0.49090  0.08100  0.92060  Biso   1.000  H
  C41      1.0000 0.43250  0.21180  0.55100  Biso   1.000  C
  C42      1.0000 0.56750  0.71180  0.94900  Biso   1.000  C
  C43      1.0000 0.56750  0.78820  0.44900  Biso   1.000  C
  C44      1.0000 0.43250  0.28820  0.05100  Biso   1.000  C
  C45      1.0000 0.51580  0.11970  0.60540  Biso   1.000  C
  C46      1.0000 0.48420  0.61970  0.89460  Biso   1.000  C
  C47      1.0000 0.48420  0.88030  0.39460  Biso   1.000  C
  C48      1.0000 0.51580  0.38030  0.10540  Biso   1.000  C
  C49      1.0000 0.85350  0.20110  0.30550  Biso   1.000  C
  C50      1.0000 0.14650  0.70110  0.19450  Biso   1.000  C
  C51      1.0000 0.14650  0.79890  0.69450  Biso   1.000  C
  C52      1.0000 0.85350  0.29890  0.80550  Biso   1.000  C
