data_image0
_cell_length_a       10.6553
_cell_length_b       24.2016
_cell_length_c       18.8409
_cell_angle_alpha    90
_cell_angle_beta     94.356
_cell_angle_gamma    90

_symmetry_space_group_name_H-M    "P 1"
_symmetry_int_tables_number       1

loop_
  _symmetry_equiv_pos_as_xyz
  'x, y, z'

loop_
  _atom_site_label
  _atom_site_occupancy
  _atom_site_fract_x
  _atom_site_fract_y
  _atom_site_fract_z
  _atom_site_thermal_displace_type
  _atom_site_B_iso_or_equiv
  _atom_site_type_symbol
  Mo1      1.0000 0.69657  0.16885  0.89155  Biso   1.000  Mo
  Mo2      1.0000 0.19657  0.66885  0.89155  Biso   1.000  Mo
  Mo3      1.0000 0.69657  0.83115  0.39155  Biso   1.000  Mo
  Mo4      1.0000 0.19657  0.33115  0.39155  Biso   1.000  Mo
  Mo5      1.0000 0.30343  0.83115  0.10845  Biso   1.000  Mo
  Mo6      1.0000 0.80343  0.33115  0.10845  Biso   1.000  Mo
  Mo7      1.0000 0.30343  0.16885  0.60845  Biso   1.000  Mo
  Mo8      1.0000 0.80343  0.66885  0.60845  Biso   1.000  Mo
  Mo9      1.0000 0.86507  0.28647  0.87416  Biso   1.000  Mo
  Mo10     1.0000 0.36507  0.78647  0.87416  Biso   1.000  Mo
  Mo11     1.0000 0.86507  0.71353  0.37416  Biso   1.000  Mo
  Mo12     1.0000 0.36507  0.21353  0.37416  Biso   1.000  Mo
  Mo13     1.0000 0.13493  0.71353  0.12584  Biso   1.000  Mo
  Mo14     1.0000 0.63493  0.21353  0.12584  Biso   1.000  Mo
  Mo15     1.0000 0.13493  0.28647  0.62584  Biso   1.000  Mo
  Mo16     1.0000 0.63493  0.78647  0.62584  Biso   1.000  Mo
  Mo17     1.0000 0.90116  0.22426  0.02710  Biso   1.000  Mo
  Mo18     1.0000 0.40116  0.72426  0.02710  Biso   1.000  Mo
  Mo19     1.0000 0.90116  0.77574  0.52710  Biso   1.000  Mo
  Mo20     1.0000 0.40116  0.27574  0.52710  Biso   1.000  Mo
  Mo21     1.0000 0.09884  0.77574  0.97290  Biso   1.000  Mo
  Mo22     1.0000 0.59884  0.27574  0.97290  Biso   1.000  Mo
  Mo23     1.0000 0.09884  0.22426  0.47290  Biso   1.000  Mo
  Mo24     1.0000 0.59884  0.72426  0.47290  Biso   1.000  Mo
  Mo25     1.0000 0.73328  0.10485  0.04461  Biso   1.000  Mo
  Mo26     1.0000 0.23328  0.60485  0.04461  Biso   1.000  Mo
  Mo27     1.0000 0.73328  0.89515  0.54461  Biso   1.000  Mo
  Mo28     1.0000 0.23328  0.39515  0.54461  Biso   1.000  Mo
  Mo29     1.0000 0.26672  0.89515  0.95539  Biso   1.000  Mo
  Mo30     1.0000 0.76672  0.39515  0.95539  Biso   1.000  Mo
  Mo31     1.0000 0.26672  0.10485  0.45539  Biso   1.000  Mo
  Mo32     1.0000 0.76672  0.60485  0.45539  Biso   1.000  Mo
  Cu1      1.0000 0.17250  0.29558  0.15018  Biso   1.000  Cu
  Cu2      1.0000 0.67250  0.79558  0.15018  Biso   1.000  Cu
  Cu3      1.0000 0.17250  0.70442  0.65018  Biso   1.000  Cu
  Cu4      1.0000 0.67250  0.20442  0.65018  Biso   1.000  Cu
  Cu5      1.0000 0.82750  0.70442  0.84982  Biso   1.000  Cu
  Cu6      1.0000 0.32750  0.20442  0.84982  Biso   1.000  Cu
  Cu7      1.0000 0.82750  0.29558  0.34982  Biso   1.000  Cu
  Cu8      1.0000 0.32750  0.79558  0.34982  Biso   1.000  Cu
  Cu9      1.0000 0.08204  0.39904  0.89981  Biso   1.000  Cu
  Cu10     1.0000 0.58204  0.89904  0.89981  Biso   1.000  Cu
  Cu11     1.0000 0.08204  0.60096  0.39981  Biso   1.000  Cu
  Cu12     1.0000 0.58204  0.10096  0.39981  Biso   1.000  Cu
  Cu13     1.0000 0.91796  0.60096  0.10019  Biso   1.000  Cu
  Cu14     1.0000 0.41796  0.10096  0.10019  Biso   1.000  Cu
  Cu15     1.0000 0.91796  0.39904  0.60019  Biso   1.000  Cu
  Cu16     1.0000 0.41796  0.89904  0.60019  Biso   1.000  Cu
  O1       1.0000 0.88530  0.21330  0.92420  Biso   1.000  O
  O2       1.0000 0.38530  0.71330  0.92420  Biso   1.000  O
  O3       1.0000 0.88530  0.78670  0.42420  Biso   1.000  O
  O4       1.0000 0.38530  0.28670  0.42420  Biso   1.000  O
  O5       1.0000 0.11470  0.78670  0.07580  Biso   1.000  O
  O6       1.0000 0.61470  0.28670  0.07580  Biso   1.000  O
  O7       1.0000 0.11470  0.21330  0.57580  Biso   1.000  O
  O8       1.0000 0.61470  0.71330  0.57580  Biso   1.000  O
  O9       1.0000 0.66870  0.25090  0.88550  Biso   1.000  O
  O10      1.0000 0.16870  0.75090  0.88550  Biso   1.000  O
  O11      1.0000 0.66870  0.74910  0.38550  Biso   1.000  O
  O12      1.0000 0.16870  0.24910  0.38550  Biso   1.000  O
  O13      1.0000 0.33130  0.74910  0.11450  Biso   1.000  O
  O14      1.0000 0.83130  0.24910  0.11450  Biso   1.000  O
  O15      1.0000 0.33130  0.25090  0.61450  Biso   1.000  O
  O16      1.0000 0.83130  0.75090  0.61450  Biso   1.000  O
  O17      1.0000 0.05260  0.24640  0.04020  Biso   1.000  O
  O18      1.0000 0.55260  0.74640  0.04020  Biso   1.000  O
  O19      1.0000 0.05260  0.75360  0.54020  Biso   1.000  O
  O20      1.0000 0.55260  0.25360  0.54020  Biso   1.000  O
  O21      1.0000 0.94740  0.75360  0.95980  Biso   1.000  O
  O22      1.0000 0.44740  0.25360  0.95980  Biso   1.000  O
  O23      1.0000 0.94740  0.24640  0.45980  Biso   1.000  O
  O24      1.0000 0.44740  0.74640  0.45980  Biso   1.000  O
  O25      1.0000 0.85980  0.26710  0.78780  Biso   1.000  O
  O26      1.0000 0.35980  0.76710  0.78780  Biso   1.000  O
  O27      1.0000 0.85980  0.73290  0.28780  Biso   1.000  O
  O28      1.0000 0.35980  0.23290  0.28780  Biso   1.000  O
  O29      1.0000 0.14020  0.73290  0.21220  Biso   1.000  O
  O30      1.0000 0.64020  0.23290  0.21220  Biso   1.000  O
  O31      1.0000 0.14020  0.26710  0.71220  Biso   1.000  O
  O32      1.0000 0.64020  0.76710  0.71220  Biso   1.000  O
  O33      1.0000 0.01490  0.31160  0.89240  Biso   1.000  O
  O34      1.0000 0.51490  0.81160  0.89240  Biso   1.000  O
  O35      1.0000 0.01490  0.68840  0.39240  Biso   1.000  O
  O36      1.0000 0.51490  0.18840  0.39240  Biso   1.000  O
  O37      1.0000 0.98510  0.68840  0.10760  Biso   1.000  O
  O38      1.0000 0.48510  0.18840  0.10760  Biso   1.000  O
  O39      1.0000 0.98510  0.31160  0.60760  Biso   1.000  O
  O40      1.0000 0.48510  0.81160  0.60760  Biso   1.000  O
  O41      1.0000 0.74730  0.15570  0.81060  Biso   1.000  O
  O42      1.0000 0.24730  0.65570  0.81060  Biso   1.000  O
  O43      1.0000 0.74730  0.84430  0.31060  Biso   1.000  O
  O44      1.0000 0.24730  0.34430  0.31060  Biso   1.000  O
  O45      1.0000 0.25270  0.84430  0.18940  Biso   1.000  O
  O46      1.0000 0.75270  0.34430  0.18940  Biso   1.000  O
  O47      1.0000 0.25270  0.15570  0.68940  Biso   1.000  O
  O48      1.0000 0.75270  0.65570  0.68940  Biso   1.000  O
  O49      1.0000 0.53980  0.15200  0.88310  Biso   1.000  O
  O50      1.0000 0.03980  0.65200  0.88310  Biso   1.000  O
  O51      1.0000 0.53980  0.84800  0.38310  Biso   1.000  O
  O52      1.0000 0.03980  0.34800  0.38310  Biso   1.000  O
  O53      1.0000 0.46020  0.84800  0.11690  Biso   1.000  O
  O54      1.0000 0.96020  0.34800  0.11690  Biso   1.000  O
  O55      1.0000 0.46020  0.15200  0.61690  Biso   1.000  O
  O56      1.0000 0.96020  0.65200  0.61690  Biso   1.000  O
  O57      1.0000 0.90990  0.15440  0.04990  Biso   1.000  O
  O58      1.0000 0.40990  0.65440  0.04990  Biso   1.000  O
  O59      1.0000 0.90990  0.84560  0.54990  Biso   1.000  O
  O60      1.0000 0.40990  0.34560  0.54990  Biso   1.000  O
  O61      1.0000 0.09010  0.84560  0.95010  Biso   1.000  O
  O62      1.0000 0.59010  0.34560  0.95010  Biso   1.000  O
  O63      1.0000 0.09010  0.15440  0.45010  Biso   1.000  O
  O64      1.0000 0.59010  0.65440  0.45010  Biso   1.000  O
  O65      1.0000 0.77650  0.35410  0.86810  Biso   1.000  O
  O66      1.0000 0.27650  0.85410  0.86810  Biso   1.000  O
  O67      1.0000 0.77650  0.64590  0.36810  Biso   1.000  O
  O68      1.0000 0.27650  0.14590  0.36810  Biso   1.000  O
  O69      1.0000 0.22350  0.64590  0.13190  Biso   1.000  O
  O70      1.0000 0.72350  0.14590  0.13190  Biso   1.000  O
  O71      1.0000 0.22350  0.35410  0.63190  Biso   1.000  O
  O72      1.0000 0.72350  0.85410  0.63190  Biso   1.000  O
  O73      1.0000 0.76640  0.10880  0.94530  Biso   1.000  O
  O74      1.0000 0.26640  0.60880  0.94530  Biso   1.000  O
  O75      1.0000 0.76640  0.89120  0.44530  Biso   1.000  O
  O76      1.0000 0.26640  0.39120  0.44530  Biso   1.000  O
  O77      1.0000 0.23360  0.89120  0.05470  Biso   1.000  O
  O78      1.0000 0.73360  0.39120  0.05470  Biso   1.000  O
  O79      1.0000 0.23360  0.10880  0.55470  Biso   1.000  O
  O80      1.0000 0.73360  0.60880  0.55470  Biso   1.000  O
  O81      1.0000 0.68850  0.20080  0.00750  Biso   1.000  O
  O82      1.0000 0.18850  0.70080  0.00750  Biso   1.000  O
  O83      1.0000 0.68850  0.79920  0.50750  Biso   1.000  O
  O84      1.0000 0.18850  0.29920  0.50750  Biso   1.000  O
  O85      1.0000 0.31150  0.79920  0.99250  Biso   1.000  O
  O86      1.0000 0.81150  0.29920  0.99250  Biso   1.000  O
  O87      1.0000 0.31150  0.20080  0.49250  Biso   1.000  O
  O88      1.0000 0.81150  0.70080  0.49250  Biso   1.000  O
  O89      1.0000 0.57510  0.08840  0.03270  Biso   1.000  O
  O90      1.0000 0.07510  0.58840  0.03270  Biso   1.000  O
  O91      1.0000 0.57510  0.91160  0.53270  Biso   1.000  O
  O92      1.0000 0.07510  0.41160  0.53270  Biso   1.000  O
  O93      1.0000 0.42490  0.91160  0.96730  Biso   1.000  O
  O94      1.0000 0.92490  0.41160  0.96730  Biso   1.000  O
  O95      1.0000 0.42490  0.08840  0.46730  Biso   1.000  O
  O96      1.0000 0.92490  0.58840  0.46730  Biso   1.000  O
  O97      1.0000 0.80530  0.04540  0.07150  Biso   1.000  O
  O98      1.0000 0.30530  0.54540  0.07150  Biso   1.000  O
  O99      1.0000 0.80530  0.95460  0.57150  Biso   1.000  O
  O100     1.0000 0.30530  0.45460  0.57150  Biso   1.000  O
  O101     1.0000 0.19470  0.95460  0.92850  Biso   1.000  O
  O102     1.0000 0.69470  0.45460  0.92850  Biso   1.000  O
  O103     1.0000 0.19470  0.04540  0.42850  Biso   1.000  O
  O104     1.0000 0.69470  0.54540  0.42850  Biso   1.000  O
  N1       1.0000 0.08460  0.25100  0.21270  Biso   1.000  N
  N2       1.0000 0.58460  0.75100  0.21270  Biso   1.000  N
  N3       1.0000 0.08460  0.74900  0.71270  Biso   1.000  N
  N4       1.0000 0.58460  0.24900  0.71270  Biso   1.000  N
  N5       1.0000 0.91540  0.74900  0.78730  Biso   1.000  N
  N6       1.0000 0.41540  0.24900  0.78730  Biso   1.000  N
  N7       1.0000 0.91540  0.25100  0.28730  Biso   1.000  N
  N8       1.0000 0.41540  0.75100  0.28730  Biso   1.000  N
  N9       1.0000 0.25150  0.34350  0.08680  Biso   1.000  N
  N10      1.0000 0.75150  0.84350  0.08680  Biso   1.000  N
  N11      1.0000 0.25150  0.65650  0.58680  Biso   1.000  N
  N12      1.0000 0.75150  0.15650  0.58680  Biso   1.000  N
  N13      1.0000 0.74850  0.65650  0.91320  Biso   1.000  N
  N14      1.0000 0.24850  0.15650  0.91320  Biso   1.000  N
  N15      1.0000 0.74850  0.34350  0.41320  Biso   1.000  N
  N16      1.0000 0.24850  0.84350  0.41320  Biso   1.000  N
  N17      1.0000 0.21360  0.39110  0.97610  Biso   1.000  N
  N18      1.0000 0.71360  0.89110  0.97610  Biso   1.000  N
  N19      1.0000 0.21360  0.60890  0.47610  Biso   1.000  N
  N20      1.0000 0.71360  0.10890  0.47610  Biso   1.000  N
  N21      1.0000 0.78640  0.60890  0.02390  Biso   1.000  N
  N22      1.0000 0.28640  0.10890  0.02390  Biso   1.000  N
  N23      1.0000 0.78640  0.39110  0.52390  Biso   1.000  N
  N24      1.0000 0.28640  0.89110  0.52390  Biso   1.000  N
  N25      1.0000 0.02160  0.43580  0.81340  Biso   1.000  N
  N26      1.0000 0.52160  0.93580  0.81340  Biso   1.000  N
  N27      1.0000 0.02160  0.56420  0.31340  Biso   1.000  N
  N28      1.0000 0.52160  0.06420  0.31340  Biso   1.000  N
  N29      1.0000 0.97840  0.56420  0.18660  Biso   1.000  N
  N30      1.0000 0.47840  0.06420  0.18660  Biso   1.000  N
  N31      1.0000 0.97840  0.43580  0.68660  Biso   1.000  N
  N32      1.0000 0.47840  0.93580  0.68660  Biso   1.000  N
  C1       1.0000 0.00000  0.27560  0.25000  Biso   1.000  C
  C2       1.0000 0.50000  0.77560  0.25000  Biso   1.000  C
  C3       1.0000 0.00000  0.72440  0.75000  Biso   1.000  C
  C4       1.0000 0.50000  0.22440  0.75000  Biso   1.000  C
  H1       1.0000 0.00000  0.31400  0.25000  Biso   1.000  H
  H2       1.0000 0.50000  0.81400  0.25000  Biso   1.000  H
  H3       1.0000 0.00000  0.68600  0.75000  Biso   1.000  H
  H4       1.0000 0.50000  0.18600  0.75000  Biso   1.000  H
  C5       1.0000 0.08590  0.19490  0.21270  Biso   1.000  C
  C6       1.0000 0.58590  0.69490  0.21270  Biso   1.000  C
  C7       1.0000 0.08590  0.80510  0.71270  Biso   1.000  C
  C8       1.0000 0.58590  0.30510  0.71270  Biso   1.000  C
  C9       1.0000 0.91410  0.80510  0.78730  Biso   1.000  C
  C10      1.0000 0.41410  0.30510  0.78730  Biso   1.000  C
  C11      1.0000 0.91410  0.19490  0.28730  Biso   1.000  C
  C12      1.0000 0.41410  0.69490  0.28730  Biso   1.000  C
  C13      1.0000 0.00000  0.16660  0.25000  Biso   1.000  C
  C14      1.0000 0.50000  0.66660  0.25000  Biso   1.000  C
  C15      1.0000 0.00000  0.83340  0.75000  Biso   1.000  C
  C16      1.0000 0.50000  0.33340  0.75000  Biso   1.000  C
  H5       1.0000 0.00000  0.12820  0.25000  Biso   1.000  H
  H6       1.0000 0.50000  0.62820  0.25000  Biso   1.000  H
  H7       1.0000 0.00000  0.87180  0.75000  Biso   1.000  H
  H8       1.0000 0.50000  0.37180  0.75000  Biso   1.000  H
  C17      1.0000 0.18080  0.16680  0.17240  Biso   1.000  C
  C18      1.0000 0.68080  0.66680  0.17240  Biso   1.000  C
  C19      1.0000 0.18080  0.83320  0.67240  Biso   1.000  C
  C20      1.0000 0.68080  0.33320  0.67240  Biso   1.000  C
  C21      1.0000 0.81920  0.83320  0.82760  Biso   1.000  C
  C22      1.0000 0.31920  0.33320  0.82760  Biso   1.000  C
  C23      1.0000 0.81920  0.16680  0.32760  Biso   1.000  C
  C24      1.0000 0.31920  0.66680  0.32760  Biso   1.000  C
  H9       1.0000 0.23130  0.19390  0.15060  Biso   1.000  H
  H10      1.0000 0.73130  0.69390  0.15060  Biso   1.000  H
  H11      1.0000 0.23130  0.80610  0.65060  Biso   1.000  H
  H12      1.0000 0.73130  0.30610  0.65060  Biso   1.000  H
  H13      1.0000 0.76870  0.80610  0.84940  Biso   1.000  H
  H14      1.0000 0.26870  0.30610  0.84940  Biso   1.000  H
  H15      1.0000 0.76870  0.19390  0.34940  Biso   1.000  H
  H16      1.0000 0.26870  0.69390  0.34940  Biso   1.000  H
  H17      1.0000 0.13910  0.14390  0.13630  Biso   1.000  H
  H18      1.0000 0.63910  0.64390  0.13630  Biso   1.000  H
  H19      1.0000 0.13910  0.85610  0.63630  Biso   1.000  H
  H20      1.0000 0.63910  0.35610  0.63630  Biso   1.000  H
  H21      1.0000 0.86090  0.85610  0.86370  Biso   1.000  H
  H22      1.0000 0.36090  0.35610  0.86370  Biso   1.000  H
  H23      1.0000 0.86090  0.14390  0.36370  Biso   1.000  H
  H24      1.0000 0.36090  0.64390  0.36370  Biso   1.000  H
  H25      1.0000 0.23360  0.14430  0.20420  Biso   1.000  H
  H26      1.0000 0.73360  0.64430  0.20420  Biso   1.000  H
  H27      1.0000 0.23360  0.85570  0.70420  Biso   1.000  H
  H28      1.0000 0.73360  0.35570  0.70420  Biso   1.000  H
  H29      1.0000 0.76640  0.85570  0.79580  Biso   1.000  H
  H30      1.0000 0.26640  0.35570  0.79580  Biso   1.000  H
  H31      1.0000 0.76640  0.14430  0.29580  Biso   1.000  H
  H32      1.0000 0.26640  0.64430  0.29580  Biso   1.000  H
  C25      1.0000 0.36460  0.36990  0.10050  Biso   1.000  C
  C26      1.0000 0.86460  0.86990  0.10050  Biso   1.000  C
  C27      1.0000 0.36460  0.63010  0.60050  Biso   1.000  C
  C28      1.0000 0.86460  0.13010  0.60050  Biso   1.000  C
  C29      1.0000 0.63540  0.63010  0.89950  Biso   1.000  C
  C30      1.0000 0.13540  0.13010  0.89950  Biso   1.000  C
  C31      1.0000 0.63540  0.36990  0.39950  Biso   1.000  C
  C32      1.0000 0.13540  0.86990  0.39950  Biso   1.000  C
  C33      1.0000 0.40150  0.40650  0.05050  Biso   1.000  C
  C34      1.0000 0.90150  0.90650  0.05050  Biso   1.000  C
  C35      1.0000 0.40150  0.59350  0.55050  Biso   1.000  C
  C36      1.0000 0.90150  0.09350  0.55050  Biso   1.000  C
  C37      1.0000 0.59850  0.59350  0.94950  Biso   1.000  C
  C38      1.0000 0.09850  0.09350  0.94950  Biso   1.000  C
  C39      1.0000 0.59850  0.40650  0.44950  Biso   1.000  C
  C40      1.0000 0.09850  0.90650  0.44950  Biso   1.000  C
  H33      1.0000 0.47880  0.42420  0.05840  Biso   1.000  H
  H34      1.0000 0.97880  0.92420  0.05840  Biso   1.000  H
  H35      1.0000 0.47880  0.57580  0.55840  Biso   1.000  H
  H36      1.0000 0.97880  0.07580  0.55840  Biso   1.000  H
  H37      1.0000 0.52120  0.57580  0.94160  Biso   1.000  H
  H38      1.0000 0.02120  0.07580  0.94160  Biso   1.000  H
  H39      1.0000 0.52120  0.42420  0.44160  Biso   1.000  H
  H40      1.0000 0.02120  0.92420  0.44160  Biso   1.000  H
  C41      1.0000 0.33000  0.41760  0.99030  Biso   1.000  C
  C42      1.0000 0.83000  0.91760  0.99030  Biso   1.000  C
  C43      1.0000 0.33000  0.58240  0.49030  Biso   1.000  C
  C44      1.0000 0.83000  0.08240  0.49030  Biso   1.000  C
  C45      1.0000 0.67000  0.58240  0.00970  Biso   1.000  C
  C46      1.0000 0.17000  0.08240  0.00970  Biso   1.000  C
  C47      1.0000 0.67000  0.41760  0.50970  Biso   1.000  C
  C48      1.0000 0.17000  0.91760  0.50970  Biso   1.000  C
  C49      1.0000 0.18140  0.35550  0.02650  Biso   1.000  C
  C50      1.0000 0.68140  0.85550  0.02650  Biso   1.000  C
  C51      1.0000 0.18140  0.64450  0.52650  Biso   1.000  C
  C52      1.0000 0.68140  0.14450  0.52650  Biso   1.000  C
  C53      1.0000 0.81860  0.64450  0.97350  Biso   1.000  C
  C54      1.0000 0.31860  0.14450  0.97350  Biso   1.000  C
  C55      1.0000 0.81860  0.35550  0.47350  Biso   1.000  C
  C56      1.0000 0.31860  0.85550  0.47350  Biso   1.000  C
  H41      1.0000 0.10420  0.33770  0.01890  Biso   1.000  H
  H42      1.0000 0.60420  0.83770  0.01890  Biso   1.000  H
  H43      1.0000 0.10420  0.66230  0.51890  Biso   1.000  H
  H44      1.0000 0.60420  0.16230  0.51890  Biso   1.000  H
  H45      1.0000 0.89580  0.66230  0.98110  Biso   1.000  H
  H46      1.0000 0.39580  0.16230  0.98110  Biso   1.000  H
  H47      1.0000 0.89580  0.33770  0.48110  Biso   1.000  H
  H48      1.0000 0.39580  0.83770  0.48110  Biso   1.000  H
  C57      1.0000 0.43630  0.35990  0.16690  Biso   1.000  C
  C58      1.0000 0.93630  0.85990  0.16690  Biso   1.000  C
  C59      1.0000 0.43630  0.64010  0.66690  Biso   1.000  C
  C60      1.0000 0.93630  0.14010  0.66690  Biso   1.000  C
  C61      1.0000 0.56370  0.64010  0.83310  Biso   1.000  C
  C62      1.0000 0.06370  0.14010  0.83310  Biso   1.000  C
  C63      1.0000 0.56370  0.35990  0.33310  Biso   1.000  C
  C64      1.0000 0.06370  0.85990  0.33310  Biso   1.000  C
  H49      1.0000 0.39380  0.33310  0.19390  Biso   1.000  H
  H50      1.0000 0.89380  0.83310  0.19390  Biso   1.000  H
  H51      1.0000 0.39380  0.66690  0.69390  Biso   1.000  H
  H52      1.0000 0.89380  0.16690  0.69390  Biso   1.000  H
  H53      1.0000 0.60620  0.66690  0.80610  Biso   1.000  H
  H54      1.0000 0.10620  0.16690  0.80610  Biso   1.000  H
  H55      1.0000 0.60620  0.33310  0.30610  Biso   1.000  H
  H56      1.0000 0.10620  0.83310  0.30610  Biso   1.000  H
  H57      1.0000 0.44510  0.39380  0.19340  Biso   1.000  H
  H58      1.0000 0.94510  0.89380  0.19340  Biso   1.000  H
  H59      1.0000 0.44510  0.60620  0.69340  Biso   1.000  H
  H60      1.0000 0.94510  0.10620  0.69340  Biso   1.000  H
  H61      1.0000 0.55490  0.60620  0.80660  Biso   1.000  H
  H62      1.0000 0.05490  0.10620  0.80660  Biso   1.000  H
  H63      1.0000 0.55490  0.39380  0.30660  Biso   1.000  H
  H64      1.0000 0.05490  0.89380  0.30660  Biso   1.000  H
  H65      1.0000 0.51820  0.34630  0.15780  Biso   1.000  H
  H66      1.0000 0.01820  0.84630  0.15780  Biso   1.000  H
  H67      1.0000 0.51820  0.65370  0.65780  Biso   1.000  H
  H68      1.0000 0.01820  0.15370  0.65780  Biso   1.000  H
  H69      1.0000 0.48180  0.65370  0.84220  Biso   1.000  H
  H70      1.0000 0.98180  0.15370  0.84220  Biso   1.000  H
  H71      1.0000 0.48180  0.34630  0.34220  Biso   1.000  H
  H72      1.0000 0.98180  0.84630  0.34220  Biso   1.000  H
  C65      1.0000 0.36490  0.45870  0.93440  Biso   1.000  C
  C66      1.0000 0.86490  0.95870  0.93440  Biso   1.000  C
  C67      1.0000 0.36490  0.54130  0.43440  Biso   1.000  C
  C68      1.0000 0.86490  0.04130  0.43440  Biso   1.000  C
  C69      1.0000 0.63510  0.54130  0.06560  Biso   1.000  C
  C70      1.0000 0.13510  0.04130  0.06560  Biso   1.000  C
  C71      1.0000 0.63510  0.45870  0.56560  Biso   1.000  C
  C72      1.0000 0.13510  0.95870  0.56560  Biso   1.000  C
  H73      1.0000 0.30000  0.45950  0.89620  Biso   1.000  H
  H74      1.0000 0.80000  0.95950  0.89620  Biso   1.000  H
  H75      1.0000 0.30000  0.54050  0.39620  Biso   1.000  H
  H76      1.0000 0.80000  0.04050  0.39620  Biso   1.000  H
  H77      1.0000 0.70000  0.54050  0.10380  Biso   1.000  H
  H78      1.0000 0.20000  0.04050  0.10380  Biso   1.000  H
  H79      1.0000 0.70000  0.45950  0.60380  Biso   1.000  H
  H80      1.0000 0.20000  0.95950  0.60380  Biso   1.000  H
  H81      1.0000 0.44300  0.44780  0.91620  Biso   1.000  H
  H82      1.0000 0.94300  0.94780  0.91620  Biso   1.000  H
  H83      1.0000 0.44300  0.55220  0.41620  Biso   1.000  H
  H84      1.0000 0.94300  0.05220  0.41620  Biso   1.000  H
  H85      1.0000 0.55700  0.55220  0.08380  Biso   1.000  H
  H86      1.0000 0.05700  0.05220  0.08380  Biso   1.000  H
  H87      1.0000 0.55700  0.44780  0.58380  Biso   1.000  H
  H88      1.0000 0.05700  0.94780  0.58380  Biso   1.000  H
  H89      1.0000 0.37390  0.49480  0.95530  Biso   1.000  H
  H90      1.0000 0.87390  0.99480  0.95530  Biso   1.000  H
  H91      1.0000 0.37390  0.50520  0.45530  Biso   1.000  H
  H92      1.0000 0.87390  0.00520  0.45530  Biso   1.000  H
  H93      1.0000 0.62610  0.50520  0.04470  Biso   1.000  H
  H94      1.0000 0.12610  0.00520  0.04470  Biso   1.000  H
  H95      1.0000 0.62610  0.49480  0.54470  Biso   1.000  H
  H96      1.0000 0.12610  0.99480  0.54470  Biso   1.000  H
  C73      1.0000 0.00000  0.41150  0.75000  Biso   1.000  C
  C74      1.0000 0.50000  0.91150  0.75000  Biso   1.000  C
  C75      1.0000 0.00000  0.58850  0.25000  Biso   1.000  C
  C76      1.0000 0.50000  0.08850  0.25000  Biso   1.000  C
  H97      1.0000 0.00000  0.37310  0.75000  Biso   1.000  H
  H98      1.0000 0.50000  0.87310  0.75000  Biso   1.000  H
  H99      1.0000 0.00000  0.62690  0.25000  Biso   1.000  H
  H100     1.0000 0.50000  0.12690  0.25000  Biso   1.000  H
  C77      1.0000 0.01200  0.49340  0.81290  Biso   1.000  C
  C78      1.0000 0.51200  0.99340  0.81290  Biso   1.000  C
  C79      1.0000 0.01200  0.50660  0.31290  Biso   1.000  C
  C80      1.0000 0.51200  0.00660  0.31290  Biso   1.000  C
  C81      1.0000 0.98800  0.50660  0.18710  Biso   1.000  C
  C82      1.0000 0.48800  0.00660  0.18710  Biso   1.000  C
  C83      1.0000 0.98800  0.49340  0.68710  Biso   1.000  C
  C84      1.0000 0.48800  0.99340  0.68710  Biso   1.000  C
  C85      1.0000 0.00000  0.52050  0.75000  Biso   1.000  C
  C86      1.0000 0.50000  0.02050  0.75000  Biso   1.000  C
  C87      1.0000 0.00000  0.47950  0.25000  Biso   1.000  C
  C88      1.0000 0.50000  0.97950  0.25000  Biso   1.000  C
  H101     1.0000 0.00000  0.55900  0.75000  Biso   1.000  H
  H102     1.0000 0.50000  0.05900  0.75000  Biso   1.000  H
  H103     1.0000 0.00000  0.44100  0.25000  Biso   1.000  H
  H104     1.0000 0.50000  0.94100  0.25000  Biso   1.000  H
  C89      1.0000 0.02790  0.51960  0.88740  Biso   1.000  C
  C90      1.0000 0.52790  0.01960  0.88740  Biso   1.000  C
  C91      1.0000 0.02790  0.48040  0.38740  Biso   1.000  C
  C92      1.0000 0.52790  0.98040  0.38740  Biso   1.000  C
  C93      1.0000 0.97210  0.48040  0.11260  Biso   1.000  C
  C94      1.0000 0.47210  0.98040  0.11260  Biso   1.000  C
  C95      1.0000 0.97210  0.51960  0.61260  Biso   1.000  C
  C96      1.0000 0.47210  0.01960  0.61260  Biso   1.000  C
  H105     1.0000 0.03450  0.49100  0.92280  Biso   1.000  H
  H106     1.0000 0.53450  0.99100  0.92280  Biso   1.000  H
  H107     1.0000 0.03450  0.50900  0.42280  Biso   1.000  H
  H108     1.0000 0.53450  0.00900  0.42280  Biso   1.000  H
  H109     1.0000 0.96550  0.50900  0.07720  Biso   1.000  H
  H110     1.0000 0.46550  0.00900  0.07720  Biso   1.000  H
  H111     1.0000 0.96550  0.49100  0.57720  Biso   1.000  H
  H112     1.0000 0.46550  0.99100  0.57720  Biso   1.000  H
  H113     1.0000 0.95620  0.54240  0.89460  Biso   1.000  H
  H114     1.0000 0.45620  0.04240  0.89460  Biso   1.000  H
  H115     1.0000 0.95620  0.45760  0.39460  Biso   1.000  H
  H116     1.0000 0.45620  0.95760  0.39460  Biso   1.000  H
  H117     1.0000 0.04380  0.45760  0.10540  Biso   1.000  H
  H118     1.0000 0.54380  0.95760  0.10540  Biso   1.000  H
  H119     1.0000 0.04380  0.54240  0.60540  Biso   1.000  H
  H120     1.0000 0.54380  0.04240  0.60540  Biso   1.000  H
  H121     1.0000 0.10280  0.54180  0.89120  Biso   1.000  H
  H122     1.0000 0.60280  0.04180  0.89120  Biso   1.000  H
  H123     1.0000 0.10280  0.45820  0.39120  Biso   1.000  H
  H124     1.0000 0.60280  0.95820  0.39120  Biso   1.000  H
  H125     1.0000 0.89720  0.45820  0.10880  Biso   1.000  H
  H126     1.0000 0.39720  0.95820  0.10880  Biso   1.000  H
  H127     1.0000 0.89720  0.54180  0.60880  Biso   1.000  H
  H128     1.0000 0.39720  0.04180  0.60880  Biso   1.000  H
