data_image0
_cell_length_a       12.666
_cell_length_b       5.69
_cell_length_c       7.743
_cell_angle_alpha    90
_cell_angle_beta     90
_cell_angle_gamma    90

_symmetry_space_group_name_H-M    "P 1"
_symmetry_int_tables_number       1

loop_
  _symmetry_equiv_pos_as_xyz
  'x, y, z'

loop_
  _atom_site_label
  _atom_site_occupancy
  _atom_site_fract_x
  _atom_site_fract_y
  _atom_site_fract_z
  _atom_site_thermal_displace_type
  _atom_site_B_iso_or_equiv
  _atom_site_type_symbol
  Cu1      1.0000 0.00000  0.13774  0.47464  Biso   1.000  Cu
  Cu2      1.0000 0.50000  0.86226  0.97464  Biso   1.000  Cu
  S1       1.0000 0.00000  0.88390  0.71800  Biso   1.000  S
  S2       1.0000 0.50000  0.11610  0.21800  Biso   1.000  S
  C1       1.0000 0.00000  0.62800  0.61510  Biso   1.000  C
  C2       1.0000 0.50000  0.37200  0.11510  Biso   1.000  C
  N1       1.0000 0.00000  0.45650  0.53970  Biso   1.000  N
  N2       1.0000 0.50000  0.54350  0.03970  Biso   1.000  N
  N3       1.0000 0.11490  0.95850  0.30810  Biso   1.000  N
  N4       1.0000 0.38510  0.04150  0.80810  Biso   1.000  N
  N5       1.0000 0.61490  0.04150  0.80810  Biso   1.000  N
  N6       1.0000 0.88510  0.95850  0.30810  Biso   1.000  N
  C3       1.0000 0.21910  0.91920  0.30240  Biso   1.000  C
  C4       1.0000 0.28090  0.08080  0.80240  Biso   1.000  C
  C5       1.0000 0.71910  0.08080  0.80240  Biso   1.000  C
  C6       1.0000 0.78090  0.91920  0.30240  Biso   1.000  C
  H1       1.0000 0.26430  0.02700  0.35990  Biso   1.000  H
  H2       1.0000 0.23570  0.97300  0.85990  Biso   1.000  H
  H3       1.0000 0.76430  0.97300  0.85990  Biso   1.000  H
  H4       1.0000 0.73570  0.02700  0.35990  Biso   1.000  H
  C7       1.0000 0.26500  0.72980  0.21710  Biso   1.000  C
  C8       1.0000 0.23500  0.27020  0.71710  Biso   1.000  C
  C9       1.0000 0.76500  0.27020  0.71710  Biso   1.000  C
  C10      1.0000 0.73500  0.72980  0.21710  Biso   1.000  C
  H5       1.0000 0.33950  0.71100  0.21840  Biso   1.000  H
  H6       1.0000 0.16050  0.28900  0.71840  Biso   1.000  H
  H7       1.0000 0.83950  0.28900  0.71840  Biso   1.000  H
  H8       1.0000 0.66050  0.71100  0.21840  Biso   1.000  H
  C11      1.0000 0.20300  0.56950  0.13080  Biso   1.000  C
  C12      1.0000 0.29700  0.43050  0.63080  Biso   1.000  C
  C13      1.0000 0.70300  0.43050  0.63080  Biso   1.000  C
  C14      1.0000 0.79700  0.56950  0.13080  Biso   1.000  C
  H9       1.0000 0.23280  0.43830  0.07260  Biso   1.000  H
  H10      1.0000 0.26720  0.56170  0.57260  Biso   1.000  H
  H11      1.0000 0.73280  0.56170  0.57260  Biso   1.000  H
  H12      1.0000 0.76720  0.43830  0.07260  Biso   1.000  H
  C15      1.0000 0.09450  0.60880  0.13300  Biso   1.000  C
  C16      1.0000 0.40550  0.39120  0.63300  Biso   1.000  C
  C17      1.0000 0.59450  0.39120  0.63300  Biso   1.000  C
  C18      1.0000 0.90550  0.60880  0.13300  Biso   1.000  C
  C19      1.0000 0.05840  0.80330  0.22480  Biso   1.000  C
  C20      1.0000 0.44160  0.19670  0.72480  Biso   1.000  C
  C21      1.0000 0.55840  0.19670  0.72480  Biso   1.000  C
  C22      1.0000 0.94160  0.80330  0.22480  Biso   1.000  C
  C23      1.0000 0.00000  0.47930  0.06630  Biso   1.000  C
  C24      1.0000 0.50000  0.52070  0.56630  Biso   1.000  C
  O1       1.0000 0.00000  0.29990  0.97640  Biso   1.000  O
  O2       1.0000 0.50000  0.70010  0.47640  Biso   1.000  O
