data_image0
_cell_length_a       8.499
_cell_length_b       10.1773
_cell_length_c       11.2316
_cell_angle_alpha    84.226
_cell_angle_beta     86.287
_cell_angle_gamma    81.755

_symmetry_space_group_name_H-M    "P 1"
_symmetry_int_tables_number       1

loop_
  _symmetry_equiv_pos_as_xyz
  'x, y, z'

loop_
  _atom_site_label
  _atom_site_occupancy
  _atom_site_fract_x
  _atom_site_fract_y
  _atom_site_fract_z
  _atom_site_thermal_displace_type
  _atom_site_B_iso_or_equiv
  _atom_site_type_symbol
  Cu1      1.0000 0.50000  0.50000  0.50000  Biso   1.000  Cu
  Cu2      1.0000 0.00000  0.50000  0.50000  Biso   1.000  Cu
  P1       1.0000 0.75837  0.38304  0.67584  Biso   1.000  P
  P2       1.0000 0.24163  0.61696  0.32416  Biso   1.000  P
  O1       1.0000 0.69220  0.37500  0.90907  Biso   1.000  O
  O2       1.0000 0.30780  0.62500  0.09093  Biso   1.000  O
  O3       1.0000 0.79780  0.12970  0.75935  Biso   1.000  O
  O4       1.0000 0.20220  0.87030  0.24065  Biso   1.000  O
  O5       1.0000 0.61930  0.47910  0.63151  Biso   1.000  O
  O6       1.0000 0.38070  0.52090  0.36849  Biso   1.000  O
  O7       1.0000 0.91470  0.38020  0.60550  Biso   1.000  O
  O8       1.0000 0.08530  0.61980  0.39450  Biso   1.000  O
  C1       1.0000 0.56630  0.19230  0.51100  Biso   1.000  C
  C2       1.0000 0.43370  0.80770  0.48900  Biso   1.000  C
  C3       1.0000 0.76640  0.66950  0.85900  Biso   1.000  C
  C4       1.0000 0.23360  0.33050  0.14100  Biso   1.000  C
  C5       1.0000 0.85650  0.54480  0.84390  Biso   1.000  C
  C6       1.0000 0.14350  0.45520  0.15610  Biso   1.000  C
  C7       1.0000 0.09710  0.63790  0.85300  Biso   1.000  C
  C8       1.0000 0.90290  0.36210  0.14700  Biso   1.000  C
  H1       1.0000 0.21010  0.62750  0.85190  Biso   1.000  H
  H2       1.0000 0.78990  0.37250  0.14810  Biso   1.000  H
  C9       1.0000 0.01240  0.76240  0.86750  Biso   1.000  C
  C10      1.0000 0.98760  0.23760  0.13250  Biso   1.000  C
  C11      1.0000 0.02300  0.52830  0.84000  Biso   1.000  C
  C12      1.0000 0.97700  0.47170  0.16000  Biso   1.000  C
  C13      1.0000 0.57160  0.17700  0.63690  Biso   1.000  C
  C14      1.0000 0.42840  0.82300  0.36310  Biso   1.000  C
  C15      1.0000 0.42750  0.17380  0.46090  Biso   1.000  C
  C16      1.0000 0.57250  0.82620  0.53910  Biso   1.000  C
  H3       1.0000 0.42340  0.18150  0.37610  Biso   1.000  H
  H4       1.0000 0.57660  0.81850  0.62390  Biso   1.000  H
  C17      1.0000 0.76990  0.42870  0.83080  Biso   1.000  C
  C18      1.0000 0.23010  0.57130  0.16920  Biso   1.000  C
  C19      1.0000 0.44110  0.14210  0.70940  Biso   1.000  C
  C20      1.0000 0.55890  0.85790  0.29060  Biso   1.000  C
  C21      1.0000 0.70710  0.22040  0.42980  Biso   1.000  C
  C22      1.0000 0.29290  0.77960  0.57020  Biso   1.000  C
  H5       1.0000 0.78680  0.25030  0.47620  Biso   1.000  H
  H6       1.0000 0.21320  0.74970  0.52380  Biso   1.000  H
  H7       1.0000 0.67290  0.29020  0.36650  Biso   1.000  H
  H8       1.0000 0.32710  0.70980  0.63350  Biso   1.000  H
  H9       1.0000 0.75360  0.13900  0.39360  Biso   1.000  H
  H10      1.0000 0.24640  0.86100  0.60640  Biso   1.000  H
  C23      1.0000 0.29420  0.14450  0.53070  Biso   1.000  C
  C24      1.0000 0.70580  0.85550  0.46930  Biso   1.000  C
  C25      1.0000 0.84730  0.77660  0.86850  Biso   1.000  C
  C26      1.0000 0.15270  0.22340  0.13150  Biso   1.000  C
  H11      1.0000 0.78810  0.86220  0.87590  Biso   1.000  H
  H12      1.0000 0.21190  0.13780  0.12410  Biso   1.000  H
  C27      1.0000 0.71280  0.20770  0.69500  Biso   1.000  C
  C28      1.0000 0.28720  0.79230  0.30500  Biso   1.000  C
  C29      1.0000 0.30360  0.12810  0.65450  Biso   1.000  C
  C30      1.0000 0.69640  0.87190  0.34550  Biso   1.000  C
  H13      1.0000 0.21340  0.10660  0.70290  Biso   1.000  H
  H14      1.0000 0.78660  0.89340  0.29710  Biso   1.000  H
  C31      1.0000 0.09770  0.87850  0.88510  Biso   1.000  C
  C32      1.0000 0.90230  0.12150  0.11490  Biso   1.000  C
  H15      1.0000 0.11060  0.88170  0.97080  Biso   1.000  H
  H16      1.0000 0.88940  0.11830  0.02920  Biso   1.000  H
  H17      1.0000 0.03520  0.96170  0.85320  Biso   1.000  H
  H18      1.0000 0.96480  0.03830  0.14680  Biso   1.000  H
  H19      1.0000 0.20260  0.86780  0.84280  Biso   1.000  H
  H20      1.0000 0.79740  0.13220  0.15720  Biso   1.000  H
  C33      1.0000 0.58760  0.68670  0.86740  Biso   1.000  C
  C34      1.0000 0.41240  0.31330  0.13260  Biso   1.000  C
  H21      1.0000 0.54920  0.64360  0.80290  Biso   1.000  H
  H22      1.0000 0.45080  0.35640  0.19710  Biso   1.000  H
  H23      1.0000 0.54620  0.78200  0.85990  Biso   1.000  H
  H24      1.0000 0.45380  0.21800  0.14010  Biso   1.000  H
  H25      1.0000 0.55090  0.64570  0.94510  Biso   1.000  H
  H26      1.0000 0.44910  0.35430  0.05490  Biso   1.000  H
  C35      1.0000 0.12140  0.39480  0.82820  Biso   1.000  C
  C36      1.0000 0.87860  0.60520  0.17180  Biso   1.000  C
  H27      1.0000 0.05280  0.32460  0.84260  Biso   1.000  H
  H28      1.0000 0.94720  0.67540  0.15740  Biso   1.000  H
  H29      1.0000 0.20380  0.37990  0.88710  Biso   1.000  H
  H30      1.0000 0.79620  0.62010  0.11290  Biso   1.000  H
  H31      1.0000 0.17160  0.39280  0.74730  Biso   1.000  H
  H32      1.0000 0.82840  0.60720  0.25270  Biso   1.000  H
  C37      1.0000 0.44480  0.12300  0.84420  Biso   1.000  C
  C38      1.0000 0.55520  0.87700  0.15580  Biso   1.000  C
  H33      1.0000 0.51350  0.03990  0.86810  Biso   1.000  H
  H34      1.0000 0.48650  0.96010  0.13190  Biso   1.000  H
  H35      1.0000 0.33680  0.11840  0.87900  Biso   1.000  H
  H36      1.0000 0.66320  0.88160  0.12100  Biso   1.000  H
  H37      1.0000 0.48670  0.19810  0.87310  Biso   1.000  H
  H38      1.0000 0.51330  0.80190  0.12690  Biso   1.000  H
  C39      1.0000 0.14450  0.12950  0.47190  Biso   1.000  C
  C40      1.0000 0.85550  0.87050  0.52810  Biso   1.000  C
  H39      1.0000 0.10280  0.21480  0.42910  Biso   1.000  H
  H40      1.0000 0.89720  0.78520  0.57090  Biso   1.000  H
  H41      1.0000 0.06500  0.10270  0.53320  Biso   1.000  H
  H42      1.0000 0.93500  0.89730  0.46680  Biso   1.000  H
  H43      1.0000 0.16820  0.06140  0.41520  Biso   1.000  H
  H44      1.0000 0.83180  0.93860  0.58480  Biso   1.000  H
