data_image0
_cell_length_a       12.9801
_cell_length_b       20.7303
_cell_length_c       10.2473
_cell_angle_alpha    90
_cell_angle_beta     120.894
_cell_angle_gamma    90

_symmetry_space_group_name_H-M    "P 1"
_symmetry_int_tables_number       1

loop_
  _symmetry_equiv_pos_as_xyz
  'x, y, z'

loop_
  _atom_site_label
  _atom_site_occupancy
  _atom_site_fract_x
  _atom_site_fract_y
  _atom_site_fract_z
  _atom_site_thermal_displace_type
  _atom_site_B_iso_or_equiv
  _atom_site_type_symbol
  Cu1      1.0000 0.00000  0.23083  0.75000  Biso   1.000  Cu
  Cu2      1.0000 0.50000  0.73083  0.75000  Biso   1.000  Cu
  Cu3      1.0000 0.00000  0.76917  0.25000  Biso   1.000  Cu
  Cu4      1.0000 0.50000  0.26917  0.25000  Biso   1.000  Cu
  O1       1.0000 0.15075  0.98909  0.71832  Biso   1.000  O
  O2       1.0000 0.84925  0.98909  0.78168  Biso   1.000  O
  O3       1.0000 0.65075  0.48909  0.71832  Biso   1.000  O
  O4       1.0000 0.34925  0.48909  0.78168  Biso   1.000  O
  O5       1.0000 0.84925  0.01091  0.28168  Biso   1.000  O
  O6       1.0000 0.15075  0.01091  0.21832  Biso   1.000  O
  O7       1.0000 0.34925  0.51091  0.28168  Biso   1.000  O
  O8       1.0000 0.65075  0.51091  0.21832  Biso   1.000  O
  N1       1.0000 0.05817  0.18078  0.62962  Biso   1.000  N
  N2       1.0000 0.94183  0.18078  0.87038  Biso   1.000  N
  N3       1.0000 0.55817  0.68078  0.62962  Biso   1.000  N
  N4       1.0000 0.44183  0.68078  0.87038  Biso   1.000  N
  N5       1.0000 0.94183  0.81922  0.37038  Biso   1.000  N
  N6       1.0000 0.05817  0.81922  0.12962  Biso   1.000  N
  N7       1.0000 0.44183  0.31922  0.37038  Biso   1.000  N
  N8       1.0000 0.55817  0.31922  0.12962  Biso   1.000  N
  N9       1.0000 0.18299  0.97816  0.52076  Biso   1.000  N
  N10      1.0000 0.81701  0.97816  0.97924  Biso   1.000  N
  N11      1.0000 0.68299  0.47816  0.52076  Biso   1.000  N
  N12      1.0000 0.31701  0.47816  0.97924  Biso   1.000  N
  N13      1.0000 0.81701  0.02184  0.47924  Biso   1.000  N
  N14      1.0000 0.18299  0.02184  0.02076  Biso   1.000  N
  N15      1.0000 0.31701  0.52184  0.47924  Biso   1.000  N
  N16      1.0000 0.68299  0.52184  0.02076  Biso   1.000  N
  H1       1.0000 0.18760  0.99890  0.44900  Biso   1.000  H
  H2       1.0000 0.81240  0.99890  0.05100  Biso   1.000  H
  H3       1.0000 0.68760  0.49890  0.44900  Biso   1.000  H
  H4       1.0000 0.31240  0.49890  0.05100  Biso   1.000  H
  H5       1.0000 0.81240  0.00110  0.55100  Biso   1.000  H
  H6       1.0000 0.18760  0.00110  0.94900  Biso   1.000  H
  H7       1.0000 0.31240  0.50110  0.55100  Biso   1.000  H
  H8       1.0000 0.68760  0.50110  0.94900  Biso   1.000  H
  N17      1.0000 0.36604  0.80034  0.63376  Biso   1.000  N
  N18      1.0000 0.63396  0.80034  0.86624  Biso   1.000  N
  N19      1.0000 0.86604  0.30034  0.63376  Biso   1.000  N
  N20      1.0000 0.13396  0.30034  0.86624  Biso   1.000  N
  N21      1.0000 0.63396  0.19966  0.36624  Biso   1.000  N
  N22      1.0000 0.36604  0.19966  0.13376  Biso   1.000  N
  N23      1.0000 0.13396  0.69966  0.36624  Biso   1.000  N
  N24      1.0000 0.86604  0.69966  0.13376  Biso   1.000  N
  C1       1.0000 0.07318  0.21118  0.52430  Biso   1.000  C
  C2       1.0000 0.92682  0.21118  0.97570  Biso   1.000  C
  C3       1.0000 0.57318  0.71118  0.52430  Biso   1.000  C
  C4       1.0000 0.42682  0.71118  0.97570  Biso   1.000  C
  C5       1.0000 0.92682  0.78882  0.47570  Biso   1.000  C
  C6       1.0000 0.07318  0.78882  0.02430  Biso   1.000  C
  C7       1.0000 0.42682  0.28882  0.47570  Biso   1.000  C
  C8       1.0000 0.57318  0.28882  0.02430  Biso   1.000  C
  H9       1.0000 0.05600  0.25600  0.50860  Biso   1.000  H
  H10      1.0000 0.94400  0.25600  0.99140  Biso   1.000  H
  H11      1.0000 0.55600  0.75600  0.50860  Biso   1.000  H
  H12      1.0000 0.44400  0.75600  0.99140  Biso   1.000  H
  H13      1.0000 0.94400  0.74400  0.49140  Biso   1.000  H
  H14      1.0000 0.05600  0.74400  0.00860  Biso   1.000  H
  H15      1.0000 0.44400  0.24400  0.49140  Biso   1.000  H
  H16      1.0000 0.55600  0.24400  0.00860  Biso   1.000  H
  C9       1.0000 0.11245  0.18034  0.43788  Biso   1.000  C
  C10      1.0000 0.88755  0.18034  0.06212  Biso   1.000  C
  C11      1.0000 0.61245  0.68034  0.43788  Biso   1.000  C
  C12      1.0000 0.38755  0.68034  0.06212  Biso   1.000  C
  C13      1.0000 0.88755  0.81966  0.56212  Biso   1.000  C
  C14      1.0000 0.11245  0.81966  0.93788  Biso   1.000  C
  C15      1.0000 0.38755  0.31966  0.56212  Biso   1.000  C
  C16      1.0000 0.61245  0.31966  0.93788  Biso   1.000  C
  H17      1.0000 0.12210  0.20370  0.36520  Biso   1.000  H
  H18      1.0000 0.87790  0.20370  0.13480  Biso   1.000  H
  H19      1.0000 0.62210  0.70370  0.36520  Biso   1.000  H
  H20      1.0000 0.37790  0.70370  0.13480  Biso   1.000  H
  H21      1.0000 0.87790  0.79630  0.63480  Biso   1.000  H
  H22      1.0000 0.12210  0.79630  0.86520  Biso   1.000  H
  H23      1.0000 0.37790  0.29630  0.63480  Biso   1.000  H
  H24      1.0000 0.62210  0.29630  0.86520  Biso   1.000  H
  C17      1.0000 0.13755  0.11461  0.45890  Biso   1.000  C
  C18      1.0000 0.86245  0.11461  0.04110  Biso   1.000  C
  C19      1.0000 0.63755  0.61461  0.45890  Biso   1.000  C
  C20      1.0000 0.36245  0.61461  0.04110  Biso   1.000  C
  C21      1.0000 0.86245  0.88539  0.54110  Biso   1.000  C
  C22      1.0000 0.13755  0.88539  0.95890  Biso   1.000  C
  C23      1.0000 0.36245  0.38539  0.54110  Biso   1.000  C
  C24      1.0000 0.63755  0.38539  0.95890  Biso   1.000  C
  H25      1.0000 0.16410  0.09230  0.40050  Biso   1.000  H
  H26      1.0000 0.83590  0.09230  0.09950  Biso   1.000  H
  H27      1.0000 0.66410  0.59230  0.40050  Biso   1.000  H
  H28      1.0000 0.33590  0.59230  0.09950  Biso   1.000  H
  H29      1.0000 0.83590  0.90770  0.59950  Biso   1.000  H
  H30      1.0000 0.16410  0.90770  0.90050  Biso   1.000  H
  H31      1.0000 0.33590  0.40770  0.59950  Biso   1.000  H
  H32      1.0000 0.66410  0.40770  0.90050  Biso   1.000  H
  C25      1.0000 0.12283  0.08227  0.56740  Biso   1.000  C
  C26      1.0000 0.87717  0.08227  0.93260  Biso   1.000  C
  C27      1.0000 0.62283  0.58227  0.56740  Biso   1.000  C
  C28      1.0000 0.37717  0.58227  0.93260  Biso   1.000  C
  C29      1.0000 0.87717  0.91773  0.43260  Biso   1.000  C
  C30      1.0000 0.12283  0.91773  0.06740  Biso   1.000  C
  C31      1.0000 0.37717  0.41773  0.43260  Biso   1.000  C
  C32      1.0000 0.62283  0.41773  0.06740  Biso   1.000  C
  C33      1.0000 0.08430  0.11740  0.65051  Biso   1.000  C
  C34      1.0000 0.91570  0.11740  0.84949  Biso   1.000  C
  C35      1.0000 0.58430  0.61740  0.65051  Biso   1.000  C
  C36      1.0000 0.41570  0.61740  0.84949  Biso   1.000  C
  C37      1.0000 0.91570  0.88260  0.34949  Biso   1.000  C
  C38      1.0000 0.08430  0.88260  0.15051  Biso   1.000  C
  C39      1.0000 0.41570  0.38260  0.34949  Biso   1.000  C
  C40      1.0000 0.58430  0.38260  0.15051  Biso   1.000  C
  H33      1.0000 0.07600  0.09540  0.72600  Biso   1.000  H
  H34      1.0000 0.92400  0.09540  0.77400  Biso   1.000  H
  H35      1.0000 0.57600  0.59540  0.72600  Biso   1.000  H
  H36      1.0000 0.42400  0.59540  0.77400  Biso   1.000  H
  H37      1.0000 0.92400  0.90460  0.27400  Biso   1.000  H
  H38      1.0000 0.07600  0.90460  0.22600  Biso   1.000  H
  H39      1.0000 0.42400  0.40460  0.27400  Biso   1.000  H
  H40      1.0000 0.57600  0.40460  0.22600  Biso   1.000  H
  C41      1.0000 0.15280  0.01259  0.60974  Biso   1.000  C
  C42      1.0000 0.84720  0.01259  0.89026  Biso   1.000  C
  C43      1.0000 0.65280  0.51259  0.60974  Biso   1.000  C
  C44      1.0000 0.34720  0.51259  0.89026  Biso   1.000  C
  C45      1.0000 0.84720  0.98741  0.39026  Biso   1.000  C
  C46      1.0000 0.15280  0.98741  0.10974  Biso   1.000  C
  C47      1.0000 0.34720  0.48741  0.39026  Biso   1.000  C
  C48      1.0000 0.65280  0.48741  0.10974  Biso   1.000  C
  C49      1.0000 0.24097  0.91779  0.55982  Biso   1.000  C
  C50      1.0000 0.75903  0.91779  0.94018  Biso   1.000  C
  C51      1.0000 0.74097  0.41779  0.55982  Biso   1.000  C
  C52      1.0000 0.25903  0.41779  0.94018  Biso   1.000  C
  C53      1.0000 0.75903  0.08221  0.44018  Biso   1.000  C
  C54      1.0000 0.24097  0.08221  0.05982  Biso   1.000  C
  C55      1.0000 0.25903  0.58221  0.44018  Biso   1.000  C
  C56      1.0000 0.74097  0.58221  0.05982  Biso   1.000  C
  C57      1.0000 0.32881  0.90669  0.52254  Biso   1.000  C
  C58      1.0000 0.67119  0.90669  0.97746  Biso   1.000  C
  C59      1.0000 0.82881  0.40669  0.52254  Biso   1.000  C
  C60      1.0000 0.17119  0.40669  0.97746  Biso   1.000  C
  C61      1.0000 0.67119  0.09331  0.47746  Biso   1.000  C
  C62      1.0000 0.32881  0.09331  0.02254  Biso   1.000  C
  C63      1.0000 0.17119  0.59331  0.47746  Biso   1.000  C
  C64      1.0000 0.82881  0.59331  0.02254  Biso   1.000  C
  H41      1.0000 0.34690  0.93840  0.47040  Biso   1.000  H
  H42      1.0000 0.65310  0.93840  0.02960  Biso   1.000  H
  H43      1.0000 0.84690  0.43840  0.47040  Biso   1.000  H
  H44      1.0000 0.15310  0.43840  0.02960  Biso   1.000  H
  H45      1.0000 0.65310  0.06160  0.52960  Biso   1.000  H
  H46      1.0000 0.34690  0.06160  0.97040  Biso   1.000  H
  H47      1.0000 0.15310  0.56160  0.52960  Biso   1.000  H
  H48      1.0000 0.84690  0.56160  0.97040  Biso   1.000  H
  C65      1.0000 0.38894  0.84820  0.56346  Biso   1.000  C
  C66      1.0000 0.61106  0.84820  0.93654  Biso   1.000  C
  C67      1.0000 0.88894  0.34820  0.56346  Biso   1.000  C
  C68      1.0000 0.11106  0.34820  0.93654  Biso   1.000  C
  C69      1.0000 0.61106  0.15180  0.43654  Biso   1.000  C
  C70      1.0000 0.38894  0.15180  0.06346  Biso   1.000  C
  C71      1.0000 0.11106  0.65180  0.43654  Biso   1.000  C
  C72      1.0000 0.88894  0.65180  0.06346  Biso   1.000  C
  H49      1.0000 0.45030  0.84140  0.54040  Biso   1.000  H
  H50      1.0000 0.54970  0.84140  0.95960  Biso   1.000  H
  H51      1.0000 0.95030  0.34140  0.54040  Biso   1.000  H
  H52      1.0000 0.04970  0.34140  0.95960  Biso   1.000  H
  H53      1.0000 0.54970  0.15860  0.45960  Biso   1.000  H
  H54      1.0000 0.45030  0.15860  0.04040  Biso   1.000  H
  H55      1.0000 0.04970  0.65860  0.45960  Biso   1.000  H
  H56      1.0000 0.95030  0.65860  0.04040  Biso   1.000  H
  C73      1.0000 0.21346  0.86870  0.62997  Biso   1.000  C
  C74      1.0000 0.78654  0.86870  0.87003  Biso   1.000  C
  C75      1.0000 0.71346  0.36870  0.62997  Biso   1.000  C
  C76      1.0000 0.28654  0.36870  0.87003  Biso   1.000  C
  C77      1.0000 0.78654  0.13130  0.37003  Biso   1.000  C
  C78      1.0000 0.21346  0.13130  0.12997  Biso   1.000  C
  C79      1.0000 0.28654  0.63130  0.37003  Biso   1.000  C
  C80      1.0000 0.71346  0.63130  0.12997  Biso   1.000  C
  H57      1.0000 0.15290  0.87440  0.65490  Biso   1.000  H
  H58      1.0000 0.84710  0.87440  0.84510  Biso   1.000  H
  H59      1.0000 0.65290  0.37440  0.65490  Biso   1.000  H
  H60      1.0000 0.34710  0.37440  0.84510  Biso   1.000  H
  H61      1.0000 0.84710  0.12560  0.34510  Biso   1.000  H
  H62      1.0000 0.15290  0.12560  0.15490  Biso   1.000  H
  H63      1.0000 0.34710  0.62560  0.34510  Biso   1.000  H
  H64      1.0000 0.65290  0.62560  0.15490  Biso   1.000  H
  C81      1.0000 0.27737  0.81102  0.66249  Biso   1.000  C
  C82      1.0000 0.72263  0.81102  0.83751  Biso   1.000  C
  C83      1.0000 0.77737  0.31102  0.66249  Biso   1.000  C
  C84      1.0000 0.22263  0.31102  0.83751  Biso   1.000  C
  C85      1.0000 0.72263  0.18898  0.33751  Biso   1.000  C
  C86      1.0000 0.27737  0.18898  0.16249  Biso   1.000  C
  C87      1.0000 0.22263  0.68898  0.33751  Biso   1.000  C
  C88      1.0000 0.77737  0.68898  0.16249  Biso   1.000  C
  H65      1.0000 0.25700  0.77720  0.70770  Biso   1.000  H
  H66      1.0000 0.74300  0.77720  0.79230  Biso   1.000  H
  H67      1.0000 0.75700  0.27720  0.70770  Biso   1.000  H
  H68      1.0000 0.24300  0.27720  0.79230  Biso   1.000  H
  H69      1.0000 0.74300  0.22280  0.29230  Biso   1.000  H
  H70      1.0000 0.25700  0.22280  0.20770  Biso   1.000  H
  H71      1.0000 0.24300  0.72280  0.29230  Biso   1.000  H
  H72      1.0000 0.75700  0.72280  0.20770  Biso   1.000  H
  Sb1      1.0000 0.50000  0.11928  0.75000  Biso   1.000  Sb
  Sb2      1.0000 0.00000  0.61928  0.75000  Biso   1.000  Sb
  Sb3      1.0000 0.50000  0.88072  0.25000  Biso   1.000  Sb
  Sb4      1.0000 0.00000  0.38072  0.25000  Biso   1.000  Sb
  F1       1.0000 0.40076  0.05589  0.75871  Biso   1.000  F
  F2       1.0000 0.59924  0.05589  0.74129  Biso   1.000  F
  F3       1.0000 0.90076  0.55589  0.75871  Biso   1.000  F
  F4       1.0000 0.09924  0.55589  0.74129  Biso   1.000  F
  F5       1.0000 0.59924  0.94411  0.24129  Biso   1.000  F
  F6       1.0000 0.40076  0.94411  0.25871  Biso   1.000  F
  F7       1.0000 0.09924  0.44411  0.24129  Biso   1.000  F
  F8       1.0000 0.90076  0.44411  0.25871  Biso   1.000  F
  F9       1.0000 0.40576  0.12125  0.53613  Biso   1.000  F
  F10      1.0000 0.59424  0.12125  0.96387  Biso   1.000  F
  F11      1.0000 0.90576  0.62125  0.53613  Biso   1.000  F
  F12      1.0000 0.09424  0.62125  0.96387  Biso   1.000  F
  F13      1.0000 0.59424  0.87875  0.46387  Biso   1.000  F
  F14      1.0000 0.40576  0.87875  0.03613  Biso   1.000  F
  F15      1.0000 0.09424  0.37875  0.46387  Biso   1.000  F
  F16      1.0000 0.90576  0.37875  0.03613  Biso   1.000  F
  F17      1.0000 0.40133  0.18435  0.75777  Biso   1.000  F
  F18      1.0000 0.59867  0.18435  0.74223  Biso   1.000  F
  F19      1.0000 0.90133  0.68435  0.75777  Biso   1.000  F
  F20      1.0000 0.09867  0.68435  0.74223  Biso   1.000  F
  F21      1.0000 0.59867  0.81565  0.24223  Biso   1.000  F
  F22      1.0000 0.40133  0.81565  0.25777  Biso   1.000  F
  F23      1.0000 0.09867  0.31565  0.24223  Biso   1.000  F
  F24      1.0000 0.90133  0.31565  0.25777  Biso   1.000  F
