data_image0
_cell_length_a       13.361
_cell_length_b       8.3673
_cell_length_c       14.2686
_cell_angle_alpha    90
_cell_angle_beta     102.001
_cell_angle_gamma    90

_symmetry_space_group_name_H-M    "P 1"
_symmetry_int_tables_number       1

loop_
  _symmetry_equiv_pos_as_xyz
  'x, y, z'

loop_
  _atom_site_label
  _atom_site_occupancy
  _atom_site_fract_x
  _atom_site_fract_y
  _atom_site_fract_z
  _atom_site_thermal_displace_type
  _atom_site_B_iso_or_equiv
  _atom_site_type_symbol
  C1       1.0000 0.41370  0.66950  0.83170  Biso   1.000  C
  C2       1.0000 0.58630  0.16950  0.66830  Biso   1.000  C
  C3       1.0000 0.58630  0.33050  0.16830  Biso   1.000  C
  C4       1.0000 0.41370  0.83050  0.33170  Biso   1.000  C
  H1       1.0000 0.44690  0.77310  0.83680  Biso   1.000  H
  H2       1.0000 0.55310  0.27310  0.66320  Biso   1.000  H
  H3       1.0000 0.55310  0.22690  0.16320  Biso   1.000  H
  H4       1.0000 0.44690  0.72690  0.33680  Biso   1.000  H
  H5       1.0000 0.45810  0.59640  0.87390  Biso   1.000  H
  H6       1.0000 0.54190  0.09640  0.62610  Biso   1.000  H
  H7       1.0000 0.54190  0.40360  0.12610  Biso   1.000  H
  H8       1.0000 0.45810  0.90360  0.37390  Biso   1.000  H
  C5       1.0000 0.40060  0.61070  0.73010  Biso   1.000  C
  C6       1.0000 0.59940  0.11070  0.76990  Biso   1.000  C
  C7       1.0000 0.59940  0.38930  0.26990  Biso   1.000  C
  C8       1.0000 0.40060  0.88930  0.23010  Biso   1.000  C
  C9       1.0000 0.34910  0.46920  0.70120  Biso   1.000  C
  C10      1.0000 0.65090  0.96920  0.79880  Biso   1.000  C
  C11      1.0000 0.65090  0.53080  0.29880  Biso   1.000  C
  C12      1.0000 0.34910  0.03080  0.20120  Biso   1.000  C
  H9       1.0000 0.32200  0.41210  0.74600  Biso   1.000  H
  H10      1.0000 0.67800  0.91210  0.75400  Biso   1.000  H
  H11      1.0000 0.67800  0.58790  0.25400  Biso   1.000  H
  H12      1.0000 0.32200  0.08790  0.24600  Biso   1.000  H
  C13      1.0000 0.37680  0.49460  0.54890  Biso   1.000  C
  C14      1.0000 0.62320  0.99460  0.95110  Biso   1.000  C
  C15      1.0000 0.62320  0.50540  0.45110  Biso   1.000  C
  C16      1.0000 0.37680  0.00540  0.04890  Biso   1.000  C
  H13      1.0000 0.36850  0.45590  0.48660  Biso   1.000  H
  H14      1.0000 0.63150  0.95590  0.01340  Biso   1.000  H
  H15      1.0000 0.63150  0.54410  0.51340  Biso   1.000  H
  H16      1.0000 0.36850  0.04410  0.98660  Biso   1.000  H
  C17      1.0000 0.42920  0.63370  0.57180  Biso   1.000  C
  C18      1.0000 0.57080  0.13370  0.92820  Biso   1.000  C
  C19      1.0000 0.57080  0.36630  0.42820  Biso   1.000  C
  C20      1.0000 0.42920  0.86630  0.07180  Biso   1.000  C
  H17      1.0000 0.45650  0.68780  0.52600  Biso   1.000  H
  H18      1.0000 0.54350  0.18780  0.97400  Biso   1.000  H
  H19      1.0000 0.54350  0.31220  0.47400  Biso   1.000  H
  H20      1.0000 0.45650  0.81220  0.02600  Biso   1.000  H
  C21      1.0000 0.44150  0.69350  0.66300  Biso   1.000  C
  C22      1.0000 0.55850  0.19350  0.83700  Biso   1.000  C
  C23      1.0000 0.55850  0.30650  0.33700  Biso   1.000  C
  C24      1.0000 0.44150  0.80650  0.16300  Biso   1.000  C
  H21      1.0000 0.47700  0.78850  0.67950  Biso   1.000  H
  H22      1.0000 0.52300  0.28850  0.82050  Biso   1.000  H
  H23      1.0000 0.52300  0.21150  0.32050  Biso   1.000  H
  H24      1.0000 0.47700  0.71150  0.17950  Biso   1.000  H
  C25      1.0000 0.96400  0.74040  0.95000  Biso   1.000  C
  C26      1.0000 0.03600  0.24040  0.55000  Biso   1.000  C
  C27      1.0000 0.03600  0.25960  0.05000  Biso   1.000  C
  C28      1.0000 0.96400  0.75960  0.45000  Biso   1.000  C
  H25      1.0000 0.95100  0.70790  0.88630  Biso   1.000  H
  H26      1.0000 0.04900  0.20790  0.61370  Biso   1.000  H
  H27      1.0000 0.04900  0.29210  0.11370  Biso   1.000  H
  H28      1.0000 0.95100  0.79210  0.38630  Biso   1.000  H
  C29      1.0000 0.06210  0.78490  0.99160  Biso   1.000  C
  C30      1.0000 0.93790  0.28490  0.50840  Biso   1.000  C
  C31      1.0000 0.93790  0.21510  0.00840  Biso   1.000  C
  C32      1.0000 0.06210  0.71510  0.49160  Biso   1.000  C
  C33      1.0000 0.08130  0.83300  0.08580  Biso   1.000  C
  C34      1.0000 0.91870  0.33300  0.41420  Biso   1.000  C
  C35      1.0000 0.91870  0.16700  0.91420  Biso   1.000  C
  C36      1.0000 0.08130  0.66700  0.58580  Biso   1.000  C
  H29      1.0000 0.14690  0.86350  0.11660  Biso   1.000  H
  H30      1.0000 0.85310  0.36350  0.38340  Biso   1.000  H
  H31      1.0000 0.85310  0.13650  0.88340  Biso   1.000  H
  H32      1.0000 0.14690  0.63650  0.61660  Biso   1.000  H
  C37      1.0000 0.00200  0.83520  0.13370  Biso   1.000  C
  C38      1.0000 0.99800  0.33520  0.36630  Biso   1.000  C
  C39      1.0000 0.99800  0.16480  0.86630  Biso   1.000  C
  C40      1.0000 0.00200  0.66480  0.63370  Biso   1.000  C
  H33      1.0000 0.01300  0.86930  0.19700  Biso   1.000  H
  H34      1.0000 0.98700  0.36930  0.30300  Biso   1.000  H
  H35      1.0000 0.98700  0.13070  0.80300  Biso   1.000  H
  H36      1.0000 0.01300  0.63070  0.69700  Biso   1.000  H
  C41      1.0000 0.90660  0.78660  0.08740  Biso   1.000  C
  C42      1.0000 0.09340  0.28660  0.41260  Biso   1.000  C
  C43      1.0000 0.09340  0.21340  0.91260  Biso   1.000  C
  C44      1.0000 0.90660  0.71340  0.58740  Biso   1.000  C
  H37      1.0000 0.85400  0.78530  0.12100  Biso   1.000  H
  H38      1.0000 0.14600  0.28530  0.37900  Biso   1.000  H
  H39      1.0000 0.14600  0.21470  0.87900  Biso   1.000  H
  H40      1.0000 0.85400  0.71470  0.62100  Biso   1.000  H
  C45      1.0000 0.14560  0.77750  0.93470  Biso   1.000  C
  C46      1.0000 0.85440  0.27750  0.56530  Biso   1.000  C
  C47      1.0000 0.85440  0.22250  0.06530  Biso   1.000  C
  C48      1.0000 0.14560  0.72250  0.43470  Biso   1.000  C
  H41      1.0000 0.19090  0.86860  0.95020  Biso   1.000  H
  H42      1.0000 0.80910  0.36860  0.54980  Biso   1.000  H
  H43      1.0000 0.80910  0.13140  0.04980  Biso   1.000  H
  H44      1.0000 0.19090  0.63140  0.45020  Biso   1.000  H
  H45      1.0000 0.11570  0.78060  0.86670  Biso   1.000  H
  H46      1.0000 0.88430  0.28060  0.63330  Biso   1.000  H
  H47      1.0000 0.88430  0.21940  0.13330  Biso   1.000  H
  H48      1.0000 0.11570  0.71940  0.36670  Biso   1.000  H
  C49      1.0000 0.28750  0.58880  0.92740  Biso   1.000  C
  C50      1.0000 0.71250  0.08880  0.57260  Biso   1.000  C
  C51      1.0000 0.71250  0.41120  0.07260  Biso   1.000  C
  C52      1.0000 0.28750  0.91120  0.42740  Biso   1.000  C
  Cu1      1.0000 0.26574  0.19634  0.57370  Biso   1.000  Cu
  Cu2      1.0000 0.73426  0.69634  0.92630  Biso   1.000  Cu
  Cu3      1.0000 0.73426  0.80366  0.42630  Biso   1.000  Cu
  Cu4      1.0000 0.26574  0.30366  0.07370  Biso   1.000  Cu
  N1       1.0000 0.20322  0.62900  0.95837  Biso   1.000  N
  N2       1.0000 0.79678  0.12900  0.54163  Biso   1.000  N
  N3       1.0000 0.79678  0.37100  0.04163  Biso   1.000  N
  N4       1.0000 0.20322  0.87100  0.45837  Biso   1.000  N
  H49      1.0000 0.18100  0.56230  0.99520  Biso   1.000  H
  H50      1.0000 0.81900  0.06230  0.50480  Biso   1.000  H
  H51      1.0000 0.81900  0.43770  0.00480  Biso   1.000  H
  H52      1.0000 0.18100  0.93770  0.49520  Biso   1.000  H
  N5       1.0000 0.31731  0.68360  0.86364  Biso   1.000  N
  N6       1.0000 0.68269  0.18360  0.63636  Biso   1.000  N
  N7       1.0000 0.68269  0.31640  0.13636  Biso   1.000  N
  N8       1.0000 0.31731  0.81640  0.36364  Biso   1.000  N
  H53      1.0000 0.27650  0.75930  0.83930  Biso   1.000  H
  H54      1.0000 0.72350  0.25930  0.66070  Biso   1.000  H
  H55      1.0000 0.72350  0.24070  0.16070  Biso   1.000  H
  H56      1.0000 0.27650  0.74070  0.33930  Biso   1.000  H
  N9       1.0000 0.33636  0.41070  0.61266  Biso   1.000  N
  N10      1.0000 0.66364  0.91070  0.88734  Biso   1.000  N
  N11      1.0000 0.66364  0.58930  0.38734  Biso   1.000  N
  N12      1.0000 0.33636  0.08930  0.11266  Biso   1.000  N
  N13      1.0000 0.88627  0.74090  0.99560  Biso   1.000  N
  N14      1.0000 0.11373  0.24090  0.50440  Biso   1.000  N
  N15      1.0000 0.11373  0.25910  0.00440  Biso   1.000  N
  N16      1.0000 0.88627  0.75910  0.49560  Biso   1.000  N
  S1       1.0000 0.35264  0.42007  0.96956  Biso   1.000  S
  S2       1.0000 0.64736  0.92007  0.53044  Biso   1.000  S
  S3       1.0000 0.64736  0.57993  0.03044  Biso   1.000  S
  S4       1.0000 0.35264  0.07993  0.46956  Biso   1.000  S
  I1       1.0000 0.24731  0.03780  0.72871  Biso   1.000  I
  I2       1.0000 0.75269  0.53780  0.77129  Biso   1.000  I
  I3       1.0000 0.75269  0.96220  0.27129  Biso   1.000  I
  I4       1.0000 0.24731  0.46220  0.22871  Biso   1.000  I
