data_image0
_cell_length_a       14.292
_cell_length_b       14.292
_cell_length_c       14.769
_cell_angle_alpha    90
_cell_angle_beta     90
_cell_angle_gamma    120

_symmetry_space_group_name_H-M    "P 1"
_symmetry_int_tables_number       1

loop_
  _symmetry_equiv_pos_as_xyz
  'x, y, z'

loop_
  _atom_site_label
  _atom_site_occupancy
  _atom_site_fract_x
  _atom_site_fract_y
  _atom_site_fract_z
  _atom_site_thermal_displace_type
  _atom_site_B_iso_or_equiv
  _atom_site_type_symbol
  Cu1      1.0000 0.66670  0.33330  0.96001  Biso   1.000  Cu
  Cu2      1.0000 0.33330  0.66670  0.46001  Biso   1.000  Cu
  Cu3      1.0000 0.00000  0.00000  0.26875  Biso   1.000  Cu
  Cu4      1.0000 0.00000  0.00000  0.76875  Biso   1.000  Cu
  Cl1      1.0000 0.00000  0.00000  0.42406  Biso   1.000  Cl
  Cl2      1.0000 0.00000  0.00000  0.92406  Biso   1.000  Cl
  Cl3      1.0000 0.66670  0.33330  0.67325  Biso   1.000  Cl
  Cl4      1.0000 0.33330  0.66670  0.17325  Biso   1.000  Cl
  S1       1.0000 0.84408  0.47563  0.10234  Biso   1.000  S
  S2       1.0000 0.52437  0.36845  0.10234  Biso   1.000  S
  S3       1.0000 0.63155  0.15592  0.10234  Biso   1.000  S
  S4       1.0000 0.15592  0.52437  0.60234  Biso   1.000  S
  S5       1.0000 0.47563  0.63155  0.60234  Biso   1.000  S
  S6       1.0000 0.36845  0.84408  0.60234  Biso   1.000  S
  S7       1.0000 0.86406  0.73489  0.30344  Biso   1.000  S
  S8       1.0000 0.26511  0.12917  0.30344  Biso   1.000  S
  S9       1.0000 0.87083  0.13594  0.30344  Biso   1.000  S
  S10      1.0000 0.13594  0.26511  0.80344  Biso   1.000  S
  S11      1.0000 0.73489  0.87083  0.80344  Biso   1.000  S
  S12      1.0000 0.12917  0.86406  0.80344  Biso   1.000  S
  O1       1.0000 0.66670  0.33330  0.76840  Biso   1.000  O
  O2       1.0000 0.33330  0.66670  0.26840  Biso   1.000  O
  O3       1.0000 0.66780  0.42310  0.63840  Biso   1.000  O
  O4       1.0000 0.57690  0.24470  0.63840  Biso   1.000  O
  O5       1.0000 0.75530  0.33220  0.63840  Biso   1.000  O
  O6       1.0000 0.33220  0.57690  0.13840  Biso   1.000  O
  O7       1.0000 0.42310  0.75530  0.13840  Biso   1.000  O
  O8       1.0000 0.24470  0.66780  0.13840  Biso   1.000  O
  N1       1.0000 0.75470  0.49340  0.95550  Biso   1.000  N
  N2       1.0000 0.50660  0.26130  0.95550  Biso   1.000  N
  N3       1.0000 0.73870  0.24530  0.95550  Biso   1.000  N
  N4       1.0000 0.24530  0.50660  0.45550  Biso   1.000  N
  N5       1.0000 0.49340  0.73870  0.45550  Biso   1.000  N
  N6       1.0000 0.26130  0.75470  0.45550  Biso   1.000  N
  N7       1.0000 0.88710  0.66080  0.02160  Biso   1.000  N
  N8       1.0000 0.33920  0.22630  0.02160  Biso   1.000  N
  N9       1.0000 0.77370  0.11290  0.02160  Biso   1.000  N
  N10      1.0000 0.11290  0.33920  0.52160  Biso   1.000  N
  N11      1.0000 0.66080  0.77370  0.52160  Biso   1.000  N
  N12      1.0000 0.22630  0.88710  0.52160  Biso   1.000  N
  N13      1.0000 0.71420  0.69980  0.18160  Biso   1.000  N
  N14      1.0000 0.30020  0.01440  0.18160  Biso   1.000  N
  N15      1.0000 0.98560  0.28580  0.18160  Biso   1.000  N
  N16      1.0000 0.28580  0.30020  0.68160  Biso   1.000  N
  N17      1.0000 0.69980  0.98560  0.68160  Biso   1.000  N
  N18      1.0000 0.01440  0.71420  0.68160  Biso   1.000  N
  N19      1.0000 0.85540  0.88120  0.20190  Biso   1.000  N
  N20      1.0000 0.11880  0.97420  0.20190  Biso   1.000  N
  N21      1.0000 0.02580  0.14460  0.20190  Biso   1.000  N
  N22      1.0000 0.14460  0.11880  0.70190  Biso   1.000  N
  N23      1.0000 0.88120  0.02580  0.70190  Biso   1.000  N
  N24      1.0000 0.97420  0.85540  0.70190  Biso   1.000  N
  C1       1.0000 0.74260  0.54820  0.88770  Biso   1.000  C
  C2       1.0000 0.45180  0.19440  0.88770  Biso   1.000  C
  C3       1.0000 0.80560  0.25740  0.88770  Biso   1.000  C
  C4       1.0000 0.25740  0.45180  0.38770  Biso   1.000  C
  C5       1.0000 0.54820  0.80560  0.38770  Biso   1.000  C
  C6       1.0000 0.19440  0.74260  0.38770  Biso   1.000  C
  H1       1.0000 0.69410  0.51000  0.84150  Biso   1.000  H
  H2       1.0000 0.49000  0.18410  0.84150  Biso   1.000  H
  H3       1.0000 0.81590  0.30590  0.84150  Biso   1.000  H
  H4       1.0000 0.30590  0.49000  0.34150  Biso   1.000  H
  H5       1.0000 0.51000  0.81590  0.34150  Biso   1.000  H
  H6       1.0000 0.18410  0.69410  0.34150  Biso   1.000  H
  C7       1.0000 0.79880  0.65830  0.88380  Biso   1.000  C
  C8       1.0000 0.34170  0.14050  0.88380  Biso   1.000  C
  C9       1.0000 0.85950  0.20120  0.88380  Biso   1.000  C
  C10      1.0000 0.20120  0.34170  0.38380  Biso   1.000  C
  C11      1.0000 0.65830  0.85950  0.38380  Biso   1.000  C
  C12      1.0000 0.14050  0.79880  0.38380  Biso   1.000  C
  H7       1.0000 0.78920  0.69560  0.83640  Biso   1.000  H
  H8       1.0000 0.30440  0.09360  0.83640  Biso   1.000  H
  H9       1.0000 0.90640  0.21080  0.83640  Biso   1.000  H
  H10      1.0000 0.21080  0.30440  0.33640  Biso   1.000  H
  H11      1.0000 0.69560  0.90640  0.33640  Biso   1.000  H
  H12      1.0000 0.09360  0.78920  0.33640  Biso   1.000  H
  C13      1.0000 0.87010  0.71170  0.95290  Biso   1.000  C
  C14      1.0000 0.28830  0.15840  0.95290  Biso   1.000  C
  C15      1.0000 0.84160  0.12990  0.95290  Biso   1.000  C
  C16      1.0000 0.12990  0.28830  0.45290  Biso   1.000  C
  C17      1.0000 0.71170  0.84160  0.45290  Biso   1.000  C
  C18      1.0000 0.15840  0.87010  0.45290  Biso   1.000  C
  H13      1.0000 0.90850  0.78680  0.95200  Biso   1.000  H
  H14      1.0000 0.21320  0.12170  0.95200  Biso   1.000  H
  H15      1.0000 0.87830  0.09150  0.95200  Biso   1.000  H
  H16      1.0000 0.09150  0.21320  0.45200  Biso   1.000  H
  H17      1.0000 0.78680  0.87830  0.45200  Biso   1.000  H
  H18      1.0000 0.12170  0.90850  0.45200  Biso   1.000  H
  C19      1.0000 0.82730  0.55280  0.01890  Biso   1.000  C
  C20      1.0000 0.44720  0.27450  0.01890  Biso   1.000  C
  C21      1.0000 0.72550  0.17270  0.01890  Biso   1.000  C
  C22      1.0000 0.17270  0.44720  0.51890  Biso   1.000  C
  C23      1.0000 0.55280  0.72550  0.51890  Biso   1.000  C
  C24      1.0000 0.27450  0.82730  0.51890  Biso   1.000  C
  C25      1.0000 0.95130  0.57850  0.17310  Biso   1.000  C
  C26      1.0000 0.42150  0.37280  0.17310  Biso   1.000  C
  C27      1.0000 0.62720  0.04870  0.17310  Biso   1.000  C
  C28      1.0000 0.04870  0.42150  0.67310  Biso   1.000  C
  C29      1.0000 0.57850  0.62720  0.67310  Biso   1.000  C
  C30      1.0000 0.37280  0.95130  0.67310  Biso   1.000  C
  H19      1.0000 0.02110  0.59210  0.15170  Biso   1.000  H
  H20      1.0000 0.40790  0.42900  0.15170  Biso   1.000  H
  H21      1.0000 0.57100  0.97890  0.15170  Biso   1.000  H
  H22      1.0000 0.97890  0.40790  0.65170  Biso   1.000  H
  H23      1.0000 0.59210  0.57100  0.65170  Biso   1.000  H
  H24      1.0000 0.42900  0.02110  0.65170  Biso   1.000  H
  H25      1.0000 0.94980  0.64560  0.16940  Biso   1.000  H
  H26      1.0000 0.35440  0.30420  0.16940  Biso   1.000  H
  H27      1.0000 0.69580  0.05020  0.16940  Biso   1.000  H
  H28      1.0000 0.05020  0.35440  0.66940  Biso   1.000  H
  H29      1.0000 0.64560  0.69580  0.66940  Biso   1.000  H
  H30      1.0000 0.30420  0.94980  0.66940  Biso   1.000  H
  C31      1.0000 0.93490  0.54020  0.26870  Biso   1.000  C
  C32      1.0000 0.45980  0.39470  0.26870  Biso   1.000  C
  C33      1.0000 0.60530  0.06510  0.26870  Biso   1.000  C
  C34      1.0000 0.06510  0.45980  0.76870  Biso   1.000  C
  C35      1.0000 0.54020  0.60530  0.76870  Biso   1.000  C
  C36      1.0000 0.39470  0.93490  0.76870  Biso   1.000  C
  C37      1.0000 0.99520  0.49660  0.30360  Biso   1.000  C
  C38      1.0000 0.50340  0.49860  0.30360  Biso   1.000  C
  C39      1.0000 0.50140  0.00480  0.30360  Biso   1.000  C
  C40      1.0000 0.00480  0.50340  0.80360  Biso   1.000  C
  C41      1.0000 0.49660  0.50140  0.80360  Biso   1.000  C
  C42      1.0000 0.49860  0.99520  0.80360  Biso   1.000  C
  H31      1.0000 0.04660  0.49380  0.26680  Biso   1.000  H
  H32      1.0000 0.50620  0.55280  0.26680  Biso   1.000  H
  H33      1.0000 0.44720  0.95340  0.26680  Biso   1.000  H
  H34      1.0000 0.95340  0.50620  0.76680  Biso   1.000  H
  H35      1.0000 0.49380  0.44720  0.76680  Biso   1.000  H
  H36      1.0000 0.55280  0.04660  0.76680  Biso   1.000  H
  C43      1.0000 0.98160  0.45810  0.38920  Biso   1.000  C
  C44      1.0000 0.54190  0.52350  0.38920  Biso   1.000  C
  C45      1.0000 0.47650  0.01840  0.38920  Biso   1.000  C
  C46      1.0000 0.01840  0.54190  0.88920  Biso   1.000  C
  C47      1.0000 0.45810  0.47650  0.88920  Biso   1.000  C
  C48      1.0000 0.52350  0.98160  0.88920  Biso   1.000  C
  H37      1.0000 0.02410  0.43070  0.41100  Biso   1.000  H
  H38      1.0000 0.56930  0.59340  0.41100  Biso   1.000  H
  H39      1.0000 0.40660  0.97590  0.41100  Biso   1.000  H
  H40      1.0000 0.97590  0.56930  0.91100  Biso   1.000  H
  H41      1.0000 0.43070  0.40660  0.91100  Biso   1.000  H
  H42      1.0000 0.59340  0.02410  0.91100  Biso   1.000  H
  C49      1.0000 0.90530  0.45980  0.44310  Biso   1.000  C
  C50      1.0000 0.54020  0.44550  0.44310  Biso   1.000  C
  C51      1.0000 0.55450  0.09470  0.44310  Biso   1.000  C
  C52      1.0000 0.09470  0.54020  0.94310  Biso   1.000  C
  C53      1.0000 0.45980  0.55450  0.94310  Biso   1.000  C
  C54      1.0000 0.44550  0.90530  0.94310  Biso   1.000  C
  H43      1.0000 0.89480  0.43190  0.50150  Biso   1.000  H
  H44      1.0000 0.56810  0.46290  0.50150  Biso   1.000  H
  H45      1.0000 0.53710  0.10520  0.50150  Biso   1.000  H
  H46      1.0000 0.10520  0.56810  0.00150  Biso   1.000  H
  H47      1.0000 0.43190  0.53710  0.00150  Biso   1.000  H
  H48      1.0000 0.46290  0.89480  0.00150  Biso   1.000  H
  C55      1.0000 0.84340  0.50250  0.41210  Biso   1.000  C
  C56      1.0000 0.49750  0.34090  0.41210  Biso   1.000  C
  C57      1.0000 0.65910  0.15660  0.41210  Biso   1.000  C
  C58      1.0000 0.15660  0.49750  0.91210  Biso   1.000  C
  C59      1.0000 0.50250  0.65910  0.91210  Biso   1.000  C
  C60      1.0000 0.34090  0.84340  0.91210  Biso   1.000  C
  H49      1.0000 0.79240  0.50460  0.44980  Biso   1.000  H
  H50      1.0000 0.49540  0.28780  0.44980  Biso   1.000  H
  H51      1.0000 0.71220  0.20760  0.44980  Biso   1.000  H
  H52      1.0000 0.20760  0.49540  0.94980  Biso   1.000  H
  H53      1.0000 0.50460  0.71220  0.94980  Biso   1.000  H
  H54      1.0000 0.28780  0.79240  0.94980  Biso   1.000  H
  C61      1.0000 0.85780  0.54250  0.32380  Biso   1.000  C
  C62      1.0000 0.45750  0.31530  0.32380  Biso   1.000  C
  C63      1.0000 0.68470  0.14220  0.32380  Biso   1.000  C
  C64      1.0000 0.14220  0.45750  0.82380  Biso   1.000  C
  C65      1.0000 0.54250  0.68470  0.82380  Biso   1.000  C
  C66      1.0000 0.31530  0.85780  0.82380  Biso   1.000  C
  C67      1.0000 0.78830  0.58770  0.29050  Biso   1.000  C
  C68      1.0000 0.41230  0.20060  0.29050  Biso   1.000  C
  C69      1.0000 0.79940  0.21170  0.29050  Biso   1.000  C
  C70      1.0000 0.21170  0.41230  0.79050  Biso   1.000  C
  C71      1.0000 0.58770  0.79940  0.79050  Biso   1.000  C
  C72      1.0000 0.20060  0.78830  0.79050  Biso   1.000  C
  H55      1.0000 0.72190  0.55750  0.32530  Biso   1.000  H
  H56      1.0000 0.44250  0.16440  0.32530  Biso   1.000  H
  H57      1.0000 0.83560  0.27810  0.32530  Biso   1.000  H
  H58      1.0000 0.27810  0.44250  0.82530  Biso   1.000  H
  H59      1.0000 0.55750  0.83560  0.82530  Biso   1.000  H
  H60      1.0000 0.16440  0.72190  0.82530  Biso   1.000  H
  H61      1.0000 0.76970  0.56890  0.22730  Biso   1.000  H
  H62      1.0000 0.43110  0.20080  0.22730  Biso   1.000  H
  H63      1.0000 0.79920  0.23030  0.22730  Biso   1.000  H
  H64      1.0000 0.23030  0.43110  0.72730  Biso   1.000  H
  H65      1.0000 0.56890  0.79920  0.72730  Biso   1.000  H
  H66      1.0000 0.20080  0.76970  0.72730  Biso   1.000  H
  C73      1.0000 0.80340  0.77430  0.22060  Biso   1.000  C
  C74      1.0000 0.22570  0.02910  0.22060  Biso   1.000  C
  C75      1.0000 0.97090  0.19660  0.22060  Biso   1.000  C
  C76      1.0000 0.19660  0.22570  0.72060  Biso   1.000  C
  C77      1.0000 0.77430  0.97090  0.72060  Biso   1.000  C
  C78      1.0000 0.02910  0.80340  0.72060  Biso   1.000  C
  C79      1.0000 0.67380  0.73650  0.11650  Biso   1.000  C
  C80      1.0000 0.26350  0.93730  0.11650  Biso   1.000  C
  C81      1.0000 0.06270  0.32620  0.11650  Biso   1.000  C
  C82      1.0000 0.32620  0.26350  0.61650  Biso   1.000  C
  C83      1.0000 0.73650  0.06270  0.61650  Biso   1.000  C
  C84      1.0000 0.93730  0.67380  0.61650  Biso   1.000  C
  H67      1.0000 0.61140  0.68690  0.08630  Biso   1.000  H
  H68      1.0000 0.31310  0.92450  0.08630  Biso   1.000  H
  H69      1.0000 0.07550  0.38860  0.08630  Biso   1.000  H
  H70      1.0000 0.38860  0.31310  0.58630  Biso   1.000  H
  H71      1.0000 0.68690  0.07550  0.58630  Biso   1.000  H
  H72      1.0000 0.92450  0.61140  0.58630  Biso   1.000  H
  C85      1.0000 0.72060  0.84340  0.09340  Biso   1.000  C
  C86      1.0000 0.15660  0.87720  0.09340  Biso   1.000  C
  C87      1.0000 0.12280  0.27940  0.09340  Biso   1.000  C
  C88      1.0000 0.27940  0.15660  0.59340  Biso   1.000  C
  C89      1.0000 0.84340  0.12280  0.59340  Biso   1.000  C
  C90      1.0000 0.87720  0.72060  0.59340  Biso   1.000  C
  H73      1.0000 0.69040  0.86720  0.04970  Biso   1.000  H
  H74      1.0000 0.13280  0.82320  0.04970  Biso   1.000  H
  H75      1.0000 0.17680  0.30960  0.04970  Biso   1.000  H
  H76      1.0000 0.30960  0.13280  0.54970  Biso   1.000  H
  H77      1.0000 0.86720  0.17680  0.54970  Biso   1.000  H
  H78      1.0000 0.82320  0.69040  0.54970  Biso   1.000  H
  C91      1.0000 0.81300  0.91280  0.13700  Biso   1.000  C
  C92      1.0000 0.08720  0.90020  0.13700  Biso   1.000  C
  C93      1.0000 0.09980  0.18700  0.13700  Biso   1.000  C
  C94      1.0000 0.18700  0.08720  0.63700  Biso   1.000  C
  C95      1.0000 0.91280  0.09980  0.63700  Biso   1.000  C
  C96      1.0000 0.90020  0.81300  0.63700  Biso   1.000  C
  H79      1.0000 0.84800  0.98550  0.12090  Biso   1.000  H
  H80      1.0000 0.01450  0.86250  0.12090  Biso   1.000  H
  H81      1.0000 0.13750  0.15200  0.12090  Biso   1.000  H
  H82      1.0000 0.15200  0.01450  0.62090  Biso   1.000  H
  H83      1.0000 0.98550  0.13750  0.62090  Biso   1.000  H
  H84      1.0000 0.86250  0.84800  0.62090  Biso   1.000  H
