data_image0
_cell_length_a       14.31
_cell_length_b       14.31
_cell_length_c       15.56
_cell_angle_alpha    90
_cell_angle_beta     90
_cell_angle_gamma    120

_symmetry_space_group_name_H-M    "P 1"
_symmetry_int_tables_number       1

loop_
  _symmetry_equiv_pos_as_xyz
  'x, y, z'

loop_
  _atom_site_label
  _atom_site_occupancy
  _atom_site_fract_x
  _atom_site_fract_y
  _atom_site_fract_z
  _atom_site_thermal_displace_type
  _atom_site_B_iso_or_equiv
  _atom_site_type_symbol
  Cu1      1.0000 0.66670  0.33330  0.25325  Biso   1.000  Cu
  Cu2      1.0000 0.33330  0.66670  0.75325  Biso   1.000  Cu
  Cu3      1.0000 0.00000  0.00000  0.98900  Biso   1.000  Cu
  Cu4      1.0000 0.00000  0.00000  0.48900  Biso   1.000  Cu
  Cl1      1.0000 0.66670  0.33330  0.54830  Biso   1.000  Cl
  Cl2      1.0000 0.33330  0.66670  0.04830  Biso   1.000  Cl
  Cl3      1.0000 0.00000  0.00000  0.78370  Biso   1.000  Cl
  Cl4      1.0000 0.00000  0.00000  0.28370  Biso   1.000  Cl
  S1       1.0000 0.85630  0.39160  0.11685  Biso   1.000  S
  S2       1.0000 0.60840  0.46470  0.11685  Biso   1.000  S
  S3       1.0000 0.53530  0.14370  0.11685  Biso   1.000  S
  S4       1.0000 0.39160  0.85630  0.61685  Biso   1.000  S
  S5       1.0000 0.46470  0.60840  0.61685  Biso   1.000  S
  S6       1.0000 0.14370  0.53530  0.61685  Biso   1.000  S
  S7       1.0000 0.86780  0.13600  0.94384  Biso   1.000  S
  S8       1.0000 0.86400  0.73180  0.94384  Biso   1.000  S
  S9       1.0000 0.26820  0.13220  0.94384  Biso   1.000  S
  S10      1.0000 0.13600  0.86780  0.44384  Biso   1.000  S
  S11      1.0000 0.73180  0.86400  0.44384  Biso   1.000  S
  S12      1.0000 0.13220  0.26820  0.44384  Biso   1.000  S
  N1       1.0000 0.77880  0.28920  0.26480  Biso   1.000  N
  N2       1.0000 0.71080  0.48960  0.26480  Biso   1.000  N
  N3       1.0000 0.51040  0.22120  0.26480  Biso   1.000  N
  N4       1.0000 0.28920  0.77880  0.76480  Biso   1.000  N
  N5       1.0000 0.48960  0.71080  0.76480  Biso   1.000  N
  N6       1.0000 0.22120  0.51040  0.76480  Biso   1.000  N
  N7       1.0000 0.92340  0.27110  0.20330  Biso   1.000  N
  N8       1.0000 0.72890  0.65230  0.20330  Biso   1.000  N
  N9       1.0000 0.34770  0.07660  0.20330  Biso   1.000  N
  N10      1.0000 0.27110  0.92340  0.70330  Biso   1.000  N
  N11      1.0000 0.65230  0.72890  0.70330  Biso   1.000  N
  N12      1.0000 0.07660  0.34770  0.70330  Biso   1.000  N
  N13      1.0000 0.70350  0.00980  0.04800  Biso   1.000  N
  N14      1.0000 0.99020  0.69370  0.04800  Biso   1.000  N
  N15      1.0000 0.30630  0.29650  0.04800  Biso   1.000  N
  N16      1.0000 0.00980  0.70350  0.54800  Biso   1.000  N
  N17      1.0000 0.69370  0.99020  0.54800  Biso   1.000  N
  N18      1.0000 0.29650  0.30630  0.54800  Biso   1.000  N
  N19      1.0000 0.84850  0.97270  0.03670  Biso   1.000  N
  N20      1.0000 0.02730  0.87580  0.03670  Biso   1.000  N
  N21      1.0000 0.12420  0.15150  0.03670  Biso   1.000  N
  N22      1.0000 0.97270  0.84850  0.53670  Biso   1.000  N
  N23      1.0000 0.87580  0.02730  0.53670  Biso   1.000  N
  N24      1.0000 0.15150  0.12420  0.53670  Biso   1.000  N
  O1       1.0000 0.75650  0.34800  0.56940  Biso   1.000  O
  O2       1.0000 0.65200  0.40850  0.56940  Biso   1.000  O
  O3       1.0000 0.59150  0.24350  0.56940  Biso   1.000  O
  O4       1.0000 0.34800  0.75650  0.06940  Biso   1.000  O
  O5       1.0000 0.40850  0.65200  0.06940  Biso   1.000  O
  O6       1.0000 0.24350  0.59150  0.06940  Biso   1.000  O
  O7       1.0000 0.66670  0.33330  0.46130  Biso   1.000  O
  O8       1.0000 0.33330  0.66670  0.96130  Biso   1.000  O
  O9       1.0000 0.00000  0.00000  0.86610  Biso   1.000  O
  O10      1.0000 0.00000  0.00000  0.36610  Biso   1.000  O
  O11      1.0000 0.99100  0.89700  0.75500  Biso   1.000  O
  O12      1.0000 0.10300  0.09400  0.75500  Biso   1.000  O
  O13      1.0000 0.90600  0.00900  0.75500  Biso   1.000  O
  O14      1.0000 0.89700  0.99100  0.25500  Biso   1.000  O
  O15      1.0000 0.09400  0.10300  0.25500  Biso   1.000  O
  O16      1.0000 0.00900  0.90600  0.25500  Biso   1.000  O
  C1       1.0000 0.78160  0.23240  0.33340  Biso   1.000  C
  C2       1.0000 0.76760  0.54920  0.33340  Biso   1.000  C
  C3       1.0000 0.45080  0.21840  0.33340  Biso   1.000  C
  C4       1.0000 0.23240  0.78160  0.83340  Biso   1.000  C
  C5       1.0000 0.54920  0.76760  0.83340  Biso   1.000  C
  C6       1.0000 0.21840  0.45080  0.83340  Biso   1.000  C
  H1       1.0000 0.73330  0.21970  0.37790  Biso   1.000  H
  H2       1.0000 0.78030  0.51360  0.37790  Biso   1.000  H
  H3       1.0000 0.48640  0.26670  0.37790  Biso   1.000  H
  H4       1.0000 0.21970  0.73330  0.87790  Biso   1.000  H
  H5       1.0000 0.51360  0.78030  0.87790  Biso   1.000  H
  H6       1.0000 0.26670  0.48640  0.87790  Biso   1.000  H
  C7       1.0000 0.85020  0.19210  0.34250  Biso   1.000  C
  C8       1.0000 0.80790  0.65810  0.34250  Biso   1.000  C
  C9       1.0000 0.34190  0.14980  0.34250  Biso   1.000  C
  C10      1.0000 0.19210  0.85020  0.84250  Biso   1.000  C
  C11      1.0000 0.65810  0.80790  0.84250  Biso   1.000  C
  C12      1.0000 0.14980  0.34190  0.84250  Biso   1.000  C
  H7       1.0000 0.85000  0.15340  0.39050  Biso   1.000  H
  H8       1.0000 0.84660  0.69660  0.39050  Biso   1.000  H
  H9       1.0000 0.30340  0.15000  0.39050  Biso   1.000  H
  H10      1.0000 0.15340  0.85000  0.89050  Biso   1.000  H
  H11      1.0000 0.69660  0.84660  0.89050  Biso   1.000  H
  H12      1.0000 0.15000  0.30340  0.89050  Biso   1.000  H
  C13      1.0000 0.92200  0.21490  0.27150  Biso   1.000  C
  C14      1.0000 0.78510  0.70710  0.27150  Biso   1.000  C
  C15      1.0000 0.29290  0.07800  0.27150  Biso   1.000  C
  C16      1.0000 0.21490  0.92200  0.77150  Biso   1.000  C
  C17      1.0000 0.70710  0.78510  0.77150  Biso   1.000  C
  C18      1.0000 0.07800  0.29290  0.77150  Biso   1.000  C
  H13      1.0000 0.96990  0.18890  0.27320  Biso   1.000  H
  H14      1.0000 0.81110  0.78100  0.27320  Biso   1.000  H
  H15      1.0000 0.21900  0.03010  0.27320  Biso   1.000  H
  H16      1.0000 0.18890  0.96990  0.77320  Biso   1.000  H
  H17      1.0000 0.78100  0.81110  0.77320  Biso   1.000  H
  H18      1.0000 0.03010  0.21900  0.77320  Biso   1.000  H
  C19      1.0000 0.85340  0.30850  0.20140  Biso   1.000  C
  C20      1.0000 0.69150  0.54490  0.20140  Biso   1.000  C
  C21      1.0000 0.45510  0.14660  0.20140  Biso   1.000  C
  C22      1.0000 0.30850  0.85340  0.70140  Biso   1.000  C
  C23      1.0000 0.54490  0.69150  0.70140  Biso   1.000  C
  C24      1.0000 0.14660  0.45510  0.70140  Biso   1.000  C
  C25      1.0000 0.96100  0.39290  0.04460  Biso   1.000  C
  C26      1.0000 0.60710  0.56810  0.04460  Biso   1.000  C
  C27      1.0000 0.43190  0.03900  0.04460  Biso   1.000  C
  C28      1.0000 0.39290  0.96100  0.54460  Biso   1.000  C
  C29      1.0000 0.56810  0.60710  0.54460  Biso   1.000  C
  C30      1.0000 0.03900  0.43190  0.54460  Biso   1.000  C
  H19      1.0000 0.03110  0.45390  0.05890  Biso   1.000  H
  H20      1.0000 0.54610  0.57720  0.05890  Biso   1.000  H
  H21      1.0000 0.42280  0.96890  0.05890  Biso   1.000  H
  H22      1.0000 0.45390  0.03110  0.55890  Biso   1.000  H
  H23      1.0000 0.57720  0.54610  0.55890  Biso   1.000  H
  H24      1.0000 0.96890  0.42280  0.55890  Biso   1.000  H
  H25      1.0000 0.96420  0.32740  0.05300  Biso   1.000  H
  H26      1.0000 0.67260  0.63680  0.05300  Biso   1.000  H
  H27      1.0000 0.36320  0.03580  0.05300  Biso   1.000  H
  H28      1.0000 0.32740  0.96420  0.55300  Biso   1.000  H
  H29      1.0000 0.63680  0.67260  0.55300  Biso   1.000  H
  H30      1.0000 0.03580  0.36320  0.55300  Biso   1.000  H
  C31      1.0000 0.93450  0.40110  0.95080  Biso   1.000  C
  C32      1.0000 0.59890  0.53340  0.95080  Biso   1.000  C
  C33      1.0000 0.46660  0.06550  0.95080  Biso   1.000  C
  C34      1.0000 0.40110  0.93450  0.45080  Biso   1.000  C
  C35      1.0000 0.53340  0.59890  0.45080  Biso   1.000  C
  C36      1.0000 0.06550  0.46660  0.45080  Biso   1.000  C
  C37      1.0000 0.99490  0.49800  0.90690  Biso   1.000  C
  C38      1.0000 0.50200  0.49690  0.90690  Biso   1.000  C
  C39      1.0000 0.50310  0.00510  0.90690  Biso   1.000  C
  C40      1.0000 0.49800  0.99490  0.40690  Biso   1.000  C
  C41      1.0000 0.49690  0.50200  0.40690  Biso   1.000  C
  C42      1.0000 0.00510  0.50310  0.40690  Biso   1.000  C
  H31      1.0000 0.04960  0.55690  0.93580  Biso   1.000  H
  H32      1.0000 0.44310  0.49270  0.93580  Biso   1.000  H
  H33      1.0000 0.50730  0.95040  0.93580  Biso   1.000  H
  H34      1.0000 0.55690  0.04960  0.43580  Biso   1.000  H
  H35      1.0000 0.49270  0.44310  0.43580  Biso   1.000  H
  H36      1.0000 0.95040  0.50730  0.43580  Biso   1.000  H
  C43      1.0000 0.97500  0.50900  0.81890  Biso   1.000  C
  C44      1.0000 0.49100  0.46600  0.81890  Biso   1.000  C
  C45      1.0000 0.53400  0.02500  0.81890  Biso   1.000  C
  C46      1.0000 0.50900  0.97500  0.31890  Biso   1.000  C
  C47      1.0000 0.46600  0.49100  0.31890  Biso   1.000  C
  C48      1.0000 0.02500  0.53400  0.31890  Biso   1.000  C
  H37      1.0000 0.01810  0.57340  0.79000  Biso   1.000  H
  H38      1.0000 0.42660  0.44470  0.79000  Biso   1.000  H
  H39      1.0000 0.55530  0.98190  0.79000  Biso   1.000  H
  H40      1.0000 0.57340  0.01810  0.29000  Biso   1.000  H
  H41      1.0000 0.44470  0.42660  0.29000  Biso   1.000  H
  H42      1.0000 0.98190  0.55530  0.29000  Biso   1.000  H
  C49      1.0000 0.89410  0.42640  0.77860  Biso   1.000  C
  C50      1.0000 0.57360  0.46770  0.77860  Biso   1.000  C
  C51      1.0000 0.53230  0.10590  0.77860  Biso   1.000  C
  C52      1.0000 0.42640  0.89410  0.27860  Biso   1.000  C
  C53      1.0000 0.46770  0.57360  0.27860  Biso   1.000  C
  C54      1.0000 0.10590  0.53230  0.27860  Biso   1.000  C
  H43      1.0000 0.87860  0.43360  0.72180  Biso   1.000  H
  H44      1.0000 0.56640  0.44500  0.72180  Biso   1.000  H
  H45      1.0000 0.55500  0.12140  0.72180  Biso   1.000  H
  H46      1.0000 0.43360  0.87860  0.22180  Biso   1.000  H
  H47      1.0000 0.44500  0.56640  0.22180  Biso   1.000  H
  H48      1.0000 0.12140  0.55500  0.22180  Biso   1.000  H
  C55      1.0000 0.83040  0.32560  0.82290  Biso   1.000  C
  C56      1.0000 0.67440  0.50480  0.82290  Biso   1.000  C
  C57      1.0000 0.49520  0.16960  0.82290  Biso   1.000  C
  C58      1.0000 0.32560  0.83040  0.32290  Biso   1.000  C
  C59      1.0000 0.50480  0.67440  0.32290  Biso   1.000  C
  C60      1.0000 0.16960  0.49520  0.32290  Biso   1.000  C
  H49      1.0000 0.77400  0.26790  0.79420  Biso   1.000  H
  H50      1.0000 0.73210  0.50610  0.79420  Biso   1.000  H
  H51      1.0000 0.49390  0.22600  0.79420  Biso   1.000  H
  H52      1.0000 0.26790  0.77400  0.29420  Biso   1.000  H
  H53      1.0000 0.50610  0.73210  0.29420  Biso   1.000  H
  H54      1.0000 0.22600  0.49390  0.29420  Biso   1.000  H
  C61      1.0000 0.85170  0.31340  0.90690  Biso   1.000  C
  C62      1.0000 0.68660  0.53830  0.90690  Biso   1.000  C
  C63      1.0000 0.46170  0.14830  0.90690  Biso   1.000  C
  C64      1.0000 0.31340  0.85170  0.40690  Biso   1.000  C
  C65      1.0000 0.53830  0.68660  0.40690  Biso   1.000  C
  C66      1.0000 0.14830  0.46170  0.40690  Biso   1.000  C
  C67      1.0000 0.78670  0.20300  0.95090  Biso   1.000  C
  C68      1.0000 0.79700  0.58370  0.95090  Biso   1.000  C
  C69      1.0000 0.41630  0.21330  0.95090  Biso   1.000  C
  C70      1.0000 0.20300  0.78670  0.45090  Biso   1.000  C
  C71      1.0000 0.58370  0.79700  0.45090  Biso   1.000  C
  C72      1.0000 0.21330  0.41630  0.45090  Biso   1.000  C
  H55      1.0000 0.71790  0.16000  0.92220  Biso   1.000  H
  H56      1.0000 0.84000  0.55790  0.92220  Biso   1.000  H
  H57      1.0000 0.44210  0.28210  0.92220  Biso   1.000  H
  H58      1.0000 0.16000  0.71790  0.42220  Biso   1.000  H
  H59      1.0000 0.55790  0.84000  0.42220  Biso   1.000  H
  H60      1.0000 0.28210  0.44210  0.42220  Biso   1.000  H
  H61      1.0000 0.77320  0.21200  0.01050  Biso   1.000  H
  H62      1.0000 0.78800  0.56120  0.01050  Biso   1.000  H
  H63      1.0000 0.43880  0.22680  0.01050  Biso   1.000  H
  H64      1.0000 0.21200  0.77320  0.51050  Biso   1.000  H
  H65      1.0000 0.56120  0.78800  0.51050  Biso   1.000  H
  H66      1.0000 0.22680  0.43880  0.51050  Biso   1.000  H
  C73      1.0000 0.79920  0.02720  0.01950  Biso   1.000  C
  C74      1.0000 0.97280  0.77200  0.01950  Biso   1.000  C
  C75      1.0000 0.22800  0.20080  0.01950  Biso   1.000  C
  C76      1.0000 0.02720  0.79920  0.51950  Biso   1.000  C
  C77      1.0000 0.77200  0.97280  0.51950  Biso   1.000  C
  C78      1.0000 0.20080  0.22800  0.51950  Biso   1.000  C
  C79      1.0000 0.65440  0.92360  0.10260  Biso   1.000  C
  C80      1.0000 0.07640  0.73080  0.10260  Biso   1.000  C
  C81      1.0000 0.26920  0.34560  0.10260  Biso   1.000  C
  C82      1.0000 0.92360  0.65440  0.60260  Biso   1.000  C
  C83      1.0000 0.73080  0.07640  0.60260  Biso   1.000  C
  C84      1.0000 0.34560  0.26920  0.60260  Biso   1.000  C
  H67      1.0000 0.58930  0.90890  0.12740  Biso   1.000  H
  H68      1.0000 0.09110  0.68040  0.12740  Biso   1.000  H
  H69      1.0000 0.31960  0.41070  0.12740  Biso   1.000  H
  H70      1.0000 0.90890  0.58930  0.62740  Biso   1.000  H
  H71      1.0000 0.68040  0.09110  0.62740  Biso   1.000  H
  H72      1.0000 0.41070  0.31960  0.62740  Biso   1.000  H
  C85      1.0000 0.69320  0.86000  0.12260  Biso   1.000  C
  C86      1.0000 0.14000  0.83320  0.12260  Biso   1.000  C
  C87      1.0000 0.16680  0.30680  0.12260  Biso   1.000  C
  C88      1.0000 0.86000  0.69320  0.62260  Biso   1.000  C
  C89      1.0000 0.83320  0.14000  0.62260  Biso   1.000  C
  C90      1.0000 0.30680  0.16680  0.62260  Biso   1.000  C
  H73      1.0000 0.65400  0.79830  0.15570  Biso   1.000  H
  H74      1.0000 0.20170  0.85570  0.15570  Biso   1.000  H
  H75      1.0000 0.14430  0.34600  0.15570  Biso   1.000  H
  H76      1.0000 0.79830  0.65400  0.65570  Biso   1.000  H
  H77      1.0000 0.85570  0.20170  0.65570  Biso   1.000  H
  H78      1.0000 0.34600  0.14430  0.65570  Biso   1.000  H
  C91      1.0000 0.79460  0.88920  0.09190  Biso   1.000  C
  C92      1.0000 0.11080  0.90540  0.09190  Biso   1.000  C
  C93      1.0000 0.09460  0.20540  0.09190  Biso   1.000  C
  C94      1.0000 0.88920  0.79460  0.59190  Biso   1.000  C
  C95      1.0000 0.90540  0.11080  0.59190  Biso   1.000  C
  C96      1.0000 0.20540  0.09460  0.59190  Biso   1.000  C
  H79      1.0000 0.82720  0.85030  0.10980  Biso   1.000  H
  H80      1.0000 0.14970  0.97690  0.10980  Biso   1.000  H
  H81      1.0000 0.02310  0.17280  0.10980  Biso   1.000  H
  H82      1.0000 0.85030  0.82720  0.60980  Biso   1.000  H
  H83      1.0000 0.97690  0.14970  0.60980  Biso   1.000  H
  H84      1.0000 0.17280  0.02310  0.60980  Biso   1.000  H
