data_image0
_cell_length_a       27.086
_cell_length_b       14.6756
_cell_length_c       17.0389
_cell_angle_alpha    90
_cell_angle_beta     117.585
_cell_angle_gamma    90

_symmetry_space_group_name_H-M    "P 1"
_symmetry_int_tables_number       1

loop_
  _symmetry_equiv_pos_as_xyz
  'x, y, z'

loop_
  _atom_site_label
  _atom_site_occupancy
  _atom_site_fract_x
  _atom_site_fract_y
  _atom_site_fract_z
  _atom_site_thermal_displace_type
  _atom_site_B_iso_or_equiv
  _atom_site_type_symbol
  B1       1.0000 0.40774  0.42371  0.36324  Biso   1.000  B
  B2       1.0000 0.90774  0.92371  0.36324  Biso   1.000  B
  B3       1.0000 0.59226  0.42371  0.13676  Biso   1.000  B
  B4       1.0000 0.09226  0.92371  0.13676  Biso   1.000  B
  B5       1.0000 0.59226  0.57629  0.63676  Biso   1.000  B
  B6       1.0000 0.09226  0.07629  0.63676  Biso   1.000  B
  B7       1.0000 0.40774  0.57629  0.86324  Biso   1.000  B
  B8       1.0000 0.90774  0.07629  0.86324  Biso   1.000  B
  H1       1.0000 0.42750  0.48220  0.37870  Biso   1.000  H
  H2       1.0000 0.92750  0.98220  0.37870  Biso   1.000  H
  H3       1.0000 0.57250  0.48220  0.12130  Biso   1.000  H
  H4       1.0000 0.07250  0.98220  0.12130  Biso   1.000  H
  H5       1.0000 0.57250  0.51780  0.62130  Biso   1.000  H
  H6       1.0000 0.07250  0.01780  0.62130  Biso   1.000  H
  H7       1.0000 0.42750  0.51780  0.87870  Biso   1.000  H
  H8       1.0000 0.92750  0.01780  0.87870  Biso   1.000  H
  C1       1.0000 0.42775  0.42263  0.23021  Biso   1.000  C
  C2       1.0000 0.92775  0.92263  0.23021  Biso   1.000  C
  C3       1.0000 0.57225  0.42263  0.26979  Biso   1.000  C
  C4       1.0000 0.07225  0.92263  0.26979  Biso   1.000  C
  C5       1.0000 0.57225  0.57737  0.76979  Biso   1.000  C
  C6       1.0000 0.07225  0.07737  0.76979  Biso   1.000  C
  C7       1.0000 0.42775  0.57737  0.73021  Biso   1.000  C
  C8       1.0000 0.92775  0.07737  0.73021  Biso   1.000  C
  H9       1.0000 0.44020  0.48250  0.23520  Biso   1.000  H
  H10      1.0000 0.94020  0.98250  0.23520  Biso   1.000  H
  H11      1.0000 0.55980  0.48250  0.26480  Biso   1.000  H
  H12      1.0000 0.05980  0.98250  0.26480  Biso   1.000  H
  H13      1.0000 0.55980  0.51750  0.76480  Biso   1.000  H
  H14      1.0000 0.05980  0.01750  0.76480  Biso   1.000  H
  H15      1.0000 0.44020  0.51750  0.73520  Biso   1.000  H
  H16      1.0000 0.94020  0.01750  0.73520  Biso   1.000  H
  C9       1.0000 0.42112  0.36230  0.16394  Biso   1.000  C
  C10      1.0000 0.92112  0.86230  0.16394  Biso   1.000  C
  C11      1.0000 0.57888  0.36230  0.33606  Biso   1.000  C
  C12      1.0000 0.07888  0.86230  0.33606  Biso   1.000  C
  C13      1.0000 0.57888  0.63770  0.83606  Biso   1.000  C
  C14      1.0000 0.07888  0.13770  0.83606  Biso   1.000  C
  C15      1.0000 0.42112  0.63770  0.66394  Biso   1.000  C
  C16      1.0000 0.92112  0.13770  0.66394  Biso   1.000  C
  C17      1.0000 0.42855  0.38510  0.08900  Biso   1.000  C
  C18      1.0000 0.92855  0.88510  0.08900  Biso   1.000  C
  C19      1.0000 0.57145  0.38510  0.41100  Biso   1.000  C
  C20      1.0000 0.07145  0.88510  0.41100  Biso   1.000  C
  C21      1.0000 0.57145  0.61490  0.91100  Biso   1.000  C
  C22      1.0000 0.07145  0.11490  0.91100  Biso   1.000  C
  C23      1.0000 0.42855  0.61490  0.58900  Biso   1.000  C
  C24      1.0000 0.92855  0.11490  0.58900  Biso   1.000  C
  C25      1.0000 0.40189  0.28056  0.18418  Biso   1.000  C
  C26      1.0000 0.90189  0.78056  0.18418  Biso   1.000  C
  C27      1.0000 0.59811  0.28056  0.31582  Biso   1.000  C
  C28      1.0000 0.09811  0.78056  0.31582  Biso   1.000  C
  C29      1.0000 0.59811  0.71944  0.81582  Biso   1.000  C
  C30      1.0000 0.09811  0.21944  0.81582  Biso   1.000  C
  C31      1.0000 0.40189  0.71944  0.68418  Biso   1.000  C
  C32      1.0000 0.90189  0.21944  0.68418  Biso   1.000  C
  C33      1.0000 0.38782  0.18925  0.13654  Biso   1.000  C
  C34      1.0000 0.88782  0.68925  0.13654  Biso   1.000  C
  C35      1.0000 0.61218  0.18925  0.36346  Biso   1.000  C
  C36      1.0000 0.11218  0.68925  0.36346  Biso   1.000  C
  C37      1.0000 0.61218  0.81075  0.86346  Biso   1.000  C
  C38      1.0000 0.11218  0.31075  0.86346  Biso   1.000  C
  C39      1.0000 0.38782  0.81075  0.63654  Biso   1.000  C
  C40      1.0000 0.88782  0.31075  0.63654  Biso   1.000  C
  C41      1.0000 0.41599  0.18010  0.07710  Biso   1.000  C
  C42      1.0000 0.91599  0.68010  0.07710  Biso   1.000  C
  C43      1.0000 0.58401  0.18010  0.42290  Biso   1.000  C
  C44      1.0000 0.08401  0.68010  0.42290  Biso   1.000  C
  C45      1.0000 0.58401  0.81990  0.92290  Biso   1.000  C
  C46      1.0000 0.08401  0.31990  0.92290  Biso   1.000  C
  C47      1.0000 0.41599  0.81990  0.57710  Biso   1.000  C
  C48      1.0000 0.91599  0.31990  0.57710  Biso   1.000  C
  H17      1.0000 0.40160  0.22570  0.03160  Biso   1.000  H
  H18      1.0000 0.90160  0.72570  0.03160  Biso   1.000  H
  H19      1.0000 0.59840  0.22570  0.46840  Biso   1.000  H
  H20      1.0000 0.09840  0.72570  0.46840  Biso   1.000  H
  H21      1.0000 0.59840  0.77430  0.96840  Biso   1.000  H
  H22      1.0000 0.09840  0.27430  0.96840  Biso   1.000  H
  H23      1.0000 0.40160  0.77430  0.53160  Biso   1.000  H
  H24      1.0000 0.90160  0.27430  0.53160  Biso   1.000  H
  H25      1.0000 0.40860  0.12070  0.05050  Biso   1.000  H
  H26      1.0000 0.90860  0.62070  0.05050  Biso   1.000  H
  H27      1.0000 0.59140  0.12070  0.44950  Biso   1.000  H
  H28      1.0000 0.09140  0.62070  0.44950  Biso   1.000  H
  H29      1.0000 0.59140  0.87930  0.94950  Biso   1.000  H
  H30      1.0000 0.09140  0.37930  0.94950  Biso   1.000  H
  H31      1.0000 0.40860  0.87930  0.55050  Biso   1.000  H
  H32      1.0000 0.90860  0.37930  0.55050  Biso   1.000  H
  H33      1.0000 0.45550  0.18820  0.11200  Biso   1.000  H
  H34      1.0000 0.95550  0.68820  0.11200  Biso   1.000  H
  H35      1.0000 0.54450  0.18820  0.38800  Biso   1.000  H
  H36      1.0000 0.04450  0.68820  0.38800  Biso   1.000  H
  H37      1.0000 0.54450  0.81180  0.88800  Biso   1.000  H
  H38      1.0000 0.04450  0.31180  0.88800  Biso   1.000  H
  H39      1.0000 0.45550  0.81180  0.61200  Biso   1.000  H
  H40      1.0000 0.95550  0.31180  0.61200  Biso   1.000  H
  C49      1.0000 0.32430  0.18370  0.07970  Biso   1.000  C
  C50      1.0000 0.82430  0.68370  0.07970  Biso   1.000  C
  C51      1.0000 0.67570  0.18370  0.42030  Biso   1.000  C
  C52      1.0000 0.17570  0.68370  0.42030  Biso   1.000  C
  C53      1.0000 0.67570  0.81630  0.92030  Biso   1.000  C
  C54      1.0000 0.17570  0.31630  0.92030  Biso   1.000  C
  C55      1.0000 0.32430  0.81630  0.57970  Biso   1.000  C
  C56      1.0000 0.82430  0.31630  0.57970  Biso   1.000  C
  H41      1.0000 0.30670  0.18750  0.11720  Biso   1.000  H
  H42      1.0000 0.80670  0.68750  0.11720  Biso   1.000  H
  H43      1.0000 0.69330  0.18750  0.38280  Biso   1.000  H
  H44      1.0000 0.19330  0.68750  0.38280  Biso   1.000  H
  H45      1.0000 0.69330  0.81250  0.88280  Biso   1.000  H
  H46      1.0000 0.19330  0.31250  0.88280  Biso   1.000  H
  H47      1.0000 0.30670  0.81250  0.61720  Biso   1.000  H
  H48      1.0000 0.80670  0.31250  0.61720  Biso   1.000  H
  H49      1.0000 0.31470  0.12690  0.04810  Biso   1.000  H
  H50      1.0000 0.81470  0.62690  0.04810  Biso   1.000  H
  H51      1.0000 0.68530  0.12690  0.45190  Biso   1.000  H
  H52      1.0000 0.18530  0.62690  0.45190  Biso   1.000  H
  H53      1.0000 0.68530  0.87310  0.95190  Biso   1.000  H
  H54      1.0000 0.18530  0.37310  0.95190  Biso   1.000  H
  H55      1.0000 0.31470  0.87310  0.54810  Biso   1.000  H
  H56      1.0000 0.81470  0.37310  0.54810  Biso   1.000  H
  H57      1.0000 0.31180  0.23320  0.03810  Biso   1.000  H
  H58      1.0000 0.81180  0.73320  0.03810  Biso   1.000  H
  H59      1.0000 0.68820  0.23320  0.46190  Biso   1.000  H
  H60      1.0000 0.18820  0.73320  0.46190  Biso   1.000  H
  H61      1.0000 0.68820  0.76680  0.96190  Biso   1.000  H
  H62      1.0000 0.18820  0.26680  0.96190  Biso   1.000  H
  H63      1.0000 0.31180  0.76680  0.53810  Biso   1.000  H
  H64      1.0000 0.81180  0.26680  0.53810  Biso   1.000  H
  C57      1.0000 0.40830  0.11188  0.20420  Biso   1.000  C
  C58      1.0000 0.90830  0.61188  0.20420  Biso   1.000  C
  C59      1.0000 0.59170  0.11188  0.29580  Biso   1.000  C
  C60      1.0000 0.09170  0.61188  0.29580  Biso   1.000  C
  C61      1.0000 0.59170  0.88812  0.79580  Biso   1.000  C
  C62      1.0000 0.09170  0.38812  0.79580  Biso   1.000  C
  C63      1.0000 0.40830  0.88812  0.70420  Biso   1.000  C
  C64      1.0000 0.90830  0.38812  0.70420  Biso   1.000  C
  H65      1.0000 0.44800  0.11620  0.23950  Biso   1.000  H
  H66      1.0000 0.94800  0.61620  0.23950  Biso   1.000  H
  H67      1.0000 0.55200  0.11620  0.26050  Biso   1.000  H
  H68      1.0000 0.05200  0.61620  0.26050  Biso   1.000  H
  H69      1.0000 0.55200  0.88380  0.76050  Biso   1.000  H
  H70      1.0000 0.05200  0.38380  0.76050  Biso   1.000  H
  H71      1.0000 0.44800  0.88380  0.73950  Biso   1.000  H
  H72      1.0000 0.94800  0.38380  0.73950  Biso   1.000  H
  H73      1.0000 0.39900  0.05440  0.17390  Biso   1.000  H
  H74      1.0000 0.89900  0.55440  0.17390  Biso   1.000  H
  H75      1.0000 0.60100  0.05440  0.32610  Biso   1.000  H
  H76      1.0000 0.10100  0.55440  0.32610  Biso   1.000  H
  H77      1.0000 0.60100  0.94560  0.82610  Biso   1.000  H
  H78      1.0000 0.10100  0.44560  0.82610  Biso   1.000  H
  H79      1.0000 0.39900  0.94560  0.67390  Biso   1.000  H
  H80      1.0000 0.89900  0.44560  0.67390  Biso   1.000  H
  H81      1.0000 0.39080  0.11640  0.24180  Biso   1.000  H
  H82      1.0000 0.89080  0.61640  0.24180  Biso   1.000  H
  H83      1.0000 0.60920  0.11640  0.25820  Biso   1.000  H
  H84      1.0000 0.10920  0.61640  0.25820  Biso   1.000  H
  H85      1.0000 0.60920  0.88360  0.75820  Biso   1.000  H
  H86      1.0000 0.10920  0.38360  0.75820  Biso   1.000  H
  H87      1.0000 0.39080  0.88360  0.74180  Biso   1.000  H
  H88      1.0000 0.89080  0.38360  0.74180  Biso   1.000  H
  C65      1.0000 0.31883  0.51893  0.31453  Biso   1.000  C
  C66      1.0000 0.81883  0.01893  0.31453  Biso   1.000  C
  C67      1.0000 0.68117  0.51893  0.18547  Biso   1.000  C
  C68      1.0000 0.18117  0.01893  0.18547  Biso   1.000  C
  C69      1.0000 0.68117  0.48107  0.68547  Biso   1.000  C
  C70      1.0000 0.18117  0.98107  0.68547  Biso   1.000  C
  C71      1.0000 0.31883  0.48107  0.81453  Biso   1.000  C
  C72      1.0000 0.81883  0.98107  0.81453  Biso   1.000  C
  H89      1.0000 0.33530  0.57620  0.32280  Biso   1.000  H
  H90      1.0000 0.83530  0.07620  0.32280  Biso   1.000  H
  H91      1.0000 0.66470  0.57620  0.17720  Biso   1.000  H
  H92      1.0000 0.16470  0.07620  0.17720  Biso   1.000  H
  H93      1.0000 0.66470  0.42380  0.67720  Biso   1.000  H
  H94      1.0000 0.16470  0.92380  0.67720  Biso   1.000  H
  H95      1.0000 0.33530  0.42380  0.82280  Biso   1.000  H
  H96      1.0000 0.83530  0.92380  0.82280  Biso   1.000  H
  C73      1.0000 0.26260  0.50171  0.28106  Biso   1.000  C
  C74      1.0000 0.76260  0.00171  0.28106  Biso   1.000  C
  C75      1.0000 0.73740  0.50171  0.21894  Biso   1.000  C
  C76      1.0000 0.23740  0.00171  0.21894  Biso   1.000  C
  C77      1.0000 0.73740  0.49829  0.71894  Biso   1.000  C
  C78      1.0000 0.23740  0.99829  0.71894  Biso   1.000  C
  C79      1.0000 0.26260  0.49829  0.78106  Biso   1.000  C
  C80      1.0000 0.76260  0.99829  0.78106  Biso   1.000  C
  C81      1.0000 0.22225  0.57246  0.24848  Biso   1.000  C
  C82      1.0000 0.72225  0.07246  0.24848  Biso   1.000  C
  C83      1.0000 0.77775  0.57246  0.25152  Biso   1.000  C
  C84      1.0000 0.27775  0.07246  0.25152  Biso   1.000  C
  C85      1.0000 0.77775  0.42754  0.75152  Biso   1.000  C
  C86      1.0000 0.27775  0.92754  0.75152  Biso   1.000  C
  C87      1.0000 0.22225  0.42754  0.74848  Biso   1.000  C
  C88      1.0000 0.72225  0.92754  0.74848  Biso   1.000  C
  C89      1.0000 0.25748  0.40550  0.28108  Biso   1.000  C
  C90      1.0000 0.75748  0.90550  0.28108  Biso   1.000  C
  C91      1.0000 0.74252  0.40550  0.21892  Biso   1.000  C
  C92      1.0000 0.24252  0.90550  0.21892  Biso   1.000  C
  C93      1.0000 0.74252  0.59450  0.71892  Biso   1.000  C
  C94      1.0000 0.24252  0.09450  0.71892  Biso   1.000  C
  C95      1.0000 0.25748  0.59450  0.78108  Biso   1.000  C
  C96      1.0000 0.75748  0.09450  0.78108  Biso   1.000  C
  C97      1.0000 0.20632  0.34608  0.25325  Biso   1.000  C
  C98      1.0000 0.70632  0.84608  0.25325  Biso   1.000  C
  C99      1.0000 0.79368  0.34608  0.24675  Biso   1.000  C
  C100     1.0000 0.29368  0.84608  0.24675  Biso   1.000  C
  C101     1.0000 0.79368  0.65392  0.74675  Biso   1.000  C
  C102     1.0000 0.29368  0.15392  0.74675  Biso   1.000  C
  C103     1.0000 0.20632  0.65392  0.75325  Biso   1.000  C
  C104     1.0000 0.70632  0.15392  0.75325  Biso   1.000  C
  C105     1.0000 0.15583  0.40480  0.23860  Biso   1.000  C
  C106     1.0000 0.65583  0.90480  0.23860  Biso   1.000  C
  C107     1.0000 0.84417  0.40480  0.26140  Biso   1.000  C
  C108     1.0000 0.34417  0.90480  0.26140  Biso   1.000  C
  C109     1.0000 0.84417  0.59520  0.76140  Biso   1.000  C
  C110     1.0000 0.34417  0.09520  0.76140  Biso   1.000  C
  C111     1.0000 0.15583  0.59520  0.73860  Biso   1.000  C
  C112     1.0000 0.65583  0.09520  0.73860  Biso   1.000  C
  H97      1.0000 0.16480  0.44080  0.29050  Biso   1.000  H
  H98      1.0000 0.66480  0.94080  0.29050  Biso   1.000  H
  H99      1.0000 0.83520  0.44080  0.20950  Biso   1.000  H
  H100     1.0000 0.33520  0.94080  0.20950  Biso   1.000  H
  H101     1.0000 0.83520  0.55920  0.70950  Biso   1.000  H
  H102     1.0000 0.33520  0.05920  0.70950  Biso   1.000  H
  H103     1.0000 0.16480  0.55920  0.79050  Biso   1.000  H
  H104     1.0000 0.66480  0.05920  0.79050  Biso   1.000  H
  H105     1.0000 0.12470  0.36600  0.22740  Biso   1.000  H
  H106     1.0000 0.62470  0.86600  0.22740  Biso   1.000  H
  H107     1.0000 0.87530  0.36600  0.27260  Biso   1.000  H
  H108     1.0000 0.37530  0.86600  0.27260  Biso   1.000  H
  H109     1.0000 0.87530  0.63400  0.77260  Biso   1.000  H
  H110     1.0000 0.37530  0.13400  0.77260  Biso   1.000  H
  H111     1.0000 0.12470  0.63400  0.72740  Biso   1.000  H
  H112     1.0000 0.62470  0.13400  0.72740  Biso   1.000  H
  H113     1.0000 0.14640  0.44430  0.18880  Biso   1.000  H
  H114     1.0000 0.64640  0.94430  0.18880  Biso   1.000  H
  H115     1.0000 0.85360  0.44430  0.31120  Biso   1.000  H
  H116     1.0000 0.35360  0.94430  0.31120  Biso   1.000  H
  H117     1.0000 0.85360  0.55570  0.81120  Biso   1.000  H
  H118     1.0000 0.35360  0.05570  0.81120  Biso   1.000  H
  H119     1.0000 0.14640  0.55570  0.68880  Biso   1.000  H
  H120     1.0000 0.64640  0.05570  0.68880  Biso   1.000  H
  C113     1.0000 0.21574  0.27669  0.32580  Biso   1.000  C
  C114     1.0000 0.71574  0.77669  0.32580  Biso   1.000  C
  C115     1.0000 0.78426  0.27669  0.17420  Biso   1.000  C
  C116     1.0000 0.28426  0.77669  0.17420  Biso   1.000  C
  C117     1.0000 0.78426  0.72331  0.67420  Biso   1.000  C
  C118     1.0000 0.28426  0.22331  0.67420  Biso   1.000  C
  C119     1.0000 0.21574  0.72331  0.82580  Biso   1.000  C
  C120     1.0000 0.71574  0.22331  0.82580  Biso   1.000  C
  H121     1.0000 0.24830  0.24110  0.33830  Biso   1.000  H
  H122     1.0000 0.74830  0.74110  0.33830  Biso   1.000  H
  H123     1.0000 0.75170  0.24110  0.16170  Biso   1.000  H
  H124     1.0000 0.25170  0.74110  0.16170  Biso   1.000  H
  H125     1.0000 0.75170  0.75890  0.66170  Biso   1.000  H
  H126     1.0000 0.25170  0.25890  0.66170  Biso   1.000  H
  H127     1.0000 0.24830  0.75890  0.83830  Biso   1.000  H
  H128     1.0000 0.74830  0.25890  0.83830  Biso   1.000  H
  H129     1.0000 0.18390  0.23720  0.30620  Biso   1.000  H
  H130     1.0000 0.68390  0.73720  0.30620  Biso   1.000  H
  H131     1.0000 0.81610  0.23720  0.19380  Biso   1.000  H
  H132     1.0000 0.31610  0.73720  0.19380  Biso   1.000  H
  H133     1.0000 0.81610  0.76280  0.69380  Biso   1.000  H
  H134     1.0000 0.31610  0.26280  0.69380  Biso   1.000  H
  H135     1.0000 0.18390  0.76280  0.80620  Biso   1.000  H
  H136     1.0000 0.68390  0.26280  0.80620  Biso   1.000  H
  H137     1.0000 0.22090  0.30810  0.37850  Biso   1.000  H
  H138     1.0000 0.72090  0.80810  0.37850  Biso   1.000  H
  H139     1.0000 0.77910  0.30810  0.12150  Biso   1.000  H
  H140     1.0000 0.27910  0.80810  0.12150  Biso   1.000  H
  H141     1.0000 0.77910  0.69190  0.62150  Biso   1.000  H
  H142     1.0000 0.27910  0.19190  0.62150  Biso   1.000  H
  H143     1.0000 0.22090  0.69190  0.87850  Biso   1.000  H
  H144     1.0000 0.72090  0.19190  0.87850  Biso   1.000  H
  C121     1.0000 0.19511  0.29720  0.16720  Biso   1.000  C
  C122     1.0000 0.69511  0.79720  0.16720  Biso   1.000  C
  C123     1.0000 0.80489  0.29720  0.33280  Biso   1.000  C
  C124     1.0000 0.30489  0.79720  0.33280  Biso   1.000  C
  C125     1.0000 0.80489  0.70280  0.83280  Biso   1.000  C
  C126     1.0000 0.30489  0.20280  0.83280  Biso   1.000  C
  C127     1.0000 0.19511  0.70280  0.66720  Biso   1.000  C
  C128     1.0000 0.69511  0.20280  0.66720  Biso   1.000  C
  H145     1.0000 0.18920  0.34150  0.12220  Biso   1.000  H
  H146     1.0000 0.68920  0.84150  0.12220  Biso   1.000  H
  H147     1.0000 0.81080  0.34150  0.37780  Biso   1.000  H
  H148     1.0000 0.31080  0.84150  0.37780  Biso   1.000  H
  H149     1.0000 0.81080  0.65850  0.87780  Biso   1.000  H
  H150     1.0000 0.31080  0.15850  0.87780  Biso   1.000  H
  H151     1.0000 0.18920  0.65850  0.62220  Biso   1.000  H
  H152     1.0000 0.68920  0.15850  0.62220  Biso   1.000  H
  H153     1.0000 0.16250  0.25980  0.14830  Biso   1.000  H
  H154     1.0000 0.66250  0.75980  0.14830  Biso   1.000  H
  H155     1.0000 0.83750  0.25980  0.35170  Biso   1.000  H
  H156     1.0000 0.33750  0.75980  0.35170  Biso   1.000  H
  H157     1.0000 0.83750  0.74020  0.85170  Biso   1.000  H
  H158     1.0000 0.33750  0.24020  0.85170  Biso   1.000  H
  H159     1.0000 0.16250  0.74020  0.64830  Biso   1.000  H
  H160     1.0000 0.66250  0.24020  0.64830  Biso   1.000  H
  H161     1.0000 0.22650  0.25980  0.17710  Biso   1.000  H
  H162     1.0000 0.72650  0.75980  0.17710  Biso   1.000  H
  H163     1.0000 0.77350  0.25980  0.32290  Biso   1.000  H
  H164     1.0000 0.27350  0.75980  0.32290  Biso   1.000  H
  H165     1.0000 0.77350  0.74020  0.82290  Biso   1.000  H
  H166     1.0000 0.27350  0.24020  0.82290  Biso   1.000  H
  H167     1.0000 0.22650  0.74020  0.67710  Biso   1.000  H
  H168     1.0000 0.72650  0.24020  0.67710  Biso   1.000  H
  C129     1.0000 0.47316  0.37897  0.52435  Biso   1.000  C
  C130     1.0000 0.97316  0.87897  0.52435  Biso   1.000  C
  C131     1.0000 0.52684  0.37897  0.97565  Biso   1.000  C
  C132     1.0000 0.02684  0.87897  0.97565  Biso   1.000  C
  C133     1.0000 0.52684  0.62103  0.47565  Biso   1.000  C
  C134     1.0000 0.02684  0.12103  0.47565  Biso   1.000  C
  C135     1.0000 0.47316  0.62103  0.02435  Biso   1.000  C
  C136     1.0000 0.97316  0.12103  0.02435  Biso   1.000  C
  H169     1.0000 0.49210  0.43410  0.54220  Biso   1.000  H
  H170     1.0000 0.99210  0.93410  0.54220  Biso   1.000  H
  H171     1.0000 0.50790  0.43410  0.95780  Biso   1.000  H
  H172     1.0000 0.00790  0.93410  0.95780  Biso   1.000  H
  H173     1.0000 0.50790  0.56590  0.45780  Biso   1.000  H
  H174     1.0000 0.00790  0.06590  0.45780  Biso   1.000  H
  H175     1.0000 0.49210  0.56590  0.04220  Biso   1.000  H
  H176     1.0000 0.99210  0.06590  0.04220  Biso   1.000  H
  C137     1.0000 0.48324  0.30215  0.57659  Biso   1.000  C
  C138     1.0000 0.98324  0.80215  0.57659  Biso   1.000  C
  C139     1.0000 0.51676  0.30215  0.92341  Biso   1.000  C
  C140     1.0000 0.01676  0.80215  0.92341  Biso   1.000  C
  C141     1.0000 0.51676  0.69785  0.42341  Biso   1.000  C
  C142     1.0000 0.01676  0.19785  0.42341  Biso   1.000  C
  C143     1.0000 0.48324  0.69785  0.07659  Biso   1.000  C
  C144     1.0000 0.98324  0.19785  0.07659  Biso   1.000  C
  C145     1.0000 0.52633  0.29896  0.66551  Biso   1.000  C
  C146     1.0000 0.02633  0.79896  0.66551  Biso   1.000  C
  C147     1.0000 0.47367  0.29896  0.83449  Biso   1.000  C
  C148     1.0000 0.97367  0.79896  0.83449  Biso   1.000  C
  C149     1.0000 0.47367  0.70104  0.33449  Biso   1.000  C
  C150     1.0000 0.97367  0.20104  0.33449  Biso   1.000  C
  C151     1.0000 0.52633  0.70104  0.16551  Biso   1.000  C
  C152     1.0000 0.02633  0.20104  0.16551  Biso   1.000  C
  C153     1.0000 0.44446  0.23608  0.52152  Biso   1.000  C
  C154     1.0000 0.94446  0.73608  0.52152  Biso   1.000  C
  C155     1.0000 0.55554  0.23608  0.97848  Biso   1.000  C
  C156     1.0000 0.05554  0.73608  0.97848  Biso   1.000  C
  C157     1.0000 0.55554  0.76392  0.47848  Biso   1.000  C
  C158     1.0000 0.05554  0.26392  0.47848  Biso   1.000  C
  C159     1.0000 0.44446  0.76392  0.02152  Biso   1.000  C
  C160     1.0000 0.94446  0.26392  0.02152  Biso   1.000  C
  C161     1.0000 0.43442  0.13831  0.53901  Biso   1.000  C
  C162     1.0000 0.93442  0.63831  0.53901  Biso   1.000  C
  C163     1.0000 0.56558  0.13831  0.96099  Biso   1.000  C
  C164     1.0000 0.06558  0.63831  0.96099  Biso   1.000  C
  C165     1.0000 0.56558  0.86169  0.46099  Biso   1.000  C
  C166     1.0000 0.06558  0.36169  0.46099  Biso   1.000  C
  C167     1.0000 0.43442  0.86169  0.03901  Biso   1.000  C
  C168     1.0000 0.93442  0.36169  0.03901  Biso   1.000  C
  C169     1.0000 0.47764  0.10830  0.63070  Biso   1.000  C
  C170     1.0000 0.97764  0.60830  0.63070  Biso   1.000  C
  C171     1.0000 0.52236  0.10830  0.86930  Biso   1.000  C
  C172     1.0000 0.02236  0.60830  0.86930  Biso   1.000  C
  C173     1.0000 0.52236  0.89170  0.36930  Biso   1.000  C
  C174     1.0000 0.02236  0.39170  0.36930  Biso   1.000  C
  C175     1.0000 0.47764  0.89170  0.13070  Biso   1.000  C
  C176     1.0000 0.97764  0.39170  0.13070  Biso   1.000  C
  H177     1.0000 0.51410  0.11200  0.63460  Biso   1.000  H
  H178     1.0000 0.01410  0.61200  0.63460  Biso   1.000  H
  H179     1.0000 0.48590  0.11200  0.86540  Biso   1.000  H
  H180     1.0000 0.98590  0.61200  0.86540  Biso   1.000  H
  H181     1.0000 0.48590  0.88800  0.36540  Biso   1.000  H
  H182     1.0000 0.98590  0.38800  0.36540  Biso   1.000  H
  H183     1.0000 0.51410  0.88800  0.13460  Biso   1.000  H
  H184     1.0000 0.01410  0.38800  0.13460  Biso   1.000  H
  H185     1.0000 0.47030  0.04670  0.64090  Biso   1.000  H
  H186     1.0000 0.97030  0.54670  0.64090  Biso   1.000  H
  H187     1.0000 0.52970  0.04670  0.85910  Biso   1.000  H
  H188     1.0000 0.02970  0.54670  0.85910  Biso   1.000  H
  H189     1.0000 0.52970  0.95330  0.35910  Biso   1.000  H
  H190     1.0000 0.02970  0.45330  0.35910  Biso   1.000  H
  H191     1.0000 0.47030  0.95330  0.14090  Biso   1.000  H
  H192     1.0000 0.97030  0.45330  0.14090  Biso   1.000  H
  H193     1.0000 0.47580  0.14740  0.67450  Biso   1.000  H
  H194     1.0000 0.97580  0.64740  0.67450  Biso   1.000  H
  H195     1.0000 0.52420  0.14740  0.82550  Biso   1.000  H
  H196     1.0000 0.02420  0.64740  0.82550  Biso   1.000  H
  H197     1.0000 0.52420  0.85260  0.32550  Biso   1.000  H
  H198     1.0000 0.02420  0.35260  0.32550  Biso   1.000  H
  H199     1.0000 0.47580  0.85260  0.17450  Biso   1.000  H
  H200     1.0000 0.97580  0.35260  0.17450  Biso   1.000  H
  C177     1.0000 0.43835  0.07684  0.46950  Biso   1.000  C
  C178     1.0000 0.93835  0.57684  0.46950  Biso   1.000  C
  C179     1.0000 0.56165  0.07684  0.03050  Biso   1.000  C
  C180     1.0000 0.06165  0.57684  0.03050  Biso   1.000  C
  C181     1.0000 0.56165  0.92316  0.53050  Biso   1.000  C
  C182     1.0000 0.06165  0.42316  0.53050  Biso   1.000  C
  C183     1.0000 0.43835  0.92316  0.96950  Biso   1.000  C
  C184     1.0000 0.93835  0.42316  0.96950  Biso   1.000  C
  H201     1.0000 0.41030  0.09420  0.41160  Biso   1.000  H
  H202     1.0000 0.91030  0.59420  0.41160  Biso   1.000  H
  H203     1.0000 0.58970  0.09420  0.08840  Biso   1.000  H
  H204     1.0000 0.08970  0.59420  0.08840  Biso   1.000  H
  H205     1.0000 0.58970  0.90580  0.58840  Biso   1.000  H
  H206     1.0000 0.08970  0.40580  0.58840  Biso   1.000  H
  H207     1.0000 0.41030  0.90580  0.91160  Biso   1.000  H
  H208     1.0000 0.91030  0.40580  0.91160  Biso   1.000  H
  H209     1.0000 0.43270  0.01460  0.48070  Biso   1.000  H
  H210     1.0000 0.93270  0.51460  0.48070  Biso   1.000  H
  H211     1.0000 0.56730  0.01460  0.01930  Biso   1.000  H
  H212     1.0000 0.06730  0.51460  0.01930  Biso   1.000  H
  H213     1.0000 0.56730  0.98540  0.51930  Biso   1.000  H
  H214     1.0000 0.06730  0.48540  0.51930  Biso   1.000  H
  H215     1.0000 0.43270  0.98540  0.98070  Biso   1.000  H
  H216     1.0000 0.93270  0.48540  0.98070  Biso   1.000  H
  H217     1.0000 0.47450  0.08330  0.47270  Biso   1.000  H
  H218     1.0000 0.97450  0.58330  0.47270  Biso   1.000  H
  H219     1.0000 0.52550  0.08330  0.02730  Biso   1.000  H
  H220     1.0000 0.02550  0.58330  0.02730  Biso   1.000  H
  H221     1.0000 0.52550  0.91670  0.52730  Biso   1.000  H
  H222     1.0000 0.02550  0.41670  0.52730  Biso   1.000  H
  H223     1.0000 0.47450  0.91670  0.97270  Biso   1.000  H
  H224     1.0000 0.97450  0.41670  0.97270  Biso   1.000  H
  C185     1.0000 0.37605  0.13060  0.53170  Biso   1.000  C
  C186     1.0000 0.87605  0.63060  0.53170  Biso   1.000  C
  C187     1.0000 0.62395  0.13060  0.96830  Biso   1.000  C
  C188     1.0000 0.12395  0.63060  0.96830  Biso   1.000  C
  C189     1.0000 0.62395  0.86940  0.46830  Biso   1.000  C
  C190     1.0000 0.12395  0.36940  0.46830  Biso   1.000  C
  C191     1.0000 0.37605  0.86940  0.03170  Biso   1.000  C
  C192     1.0000 0.87605  0.36940  0.03170  Biso   1.000  C
  H225     1.0000 0.37420  0.16630  0.57740  Biso   1.000  H
  H226     1.0000 0.87420  0.66630  0.57740  Biso   1.000  H
  H227     1.0000 0.62580  0.16630  0.92260  Biso   1.000  H
  H228     1.0000 0.12580  0.66630  0.92260  Biso   1.000  H
  H229     1.0000 0.62580  0.83370  0.42260  Biso   1.000  H
  H230     1.0000 0.12580  0.33370  0.42260  Biso   1.000  H
  H231     1.0000 0.37420  0.83370  0.07740  Biso   1.000  H
  H232     1.0000 0.87420  0.33370  0.07740  Biso   1.000  H
  H233     1.0000 0.36830  0.06800  0.53810  Biso   1.000  H
  H234     1.0000 0.86830  0.56800  0.53810  Biso   1.000  H
  H235     1.0000 0.63170  0.06800  0.96190  Biso   1.000  H
  H236     1.0000 0.13170  0.56800  0.96190  Biso   1.000  H
  H237     1.0000 0.63170  0.93200  0.46190  Biso   1.000  H
  H238     1.0000 0.13170  0.43200  0.46190  Biso   1.000  H
  H239     1.0000 0.36830  0.93200  0.03810  Biso   1.000  H
  H240     1.0000 0.86830  0.43200  0.03810  Biso   1.000  H
  H241     1.0000 0.34900  0.15270  0.47480  Biso   1.000  H
  H242     1.0000 0.84900  0.65270  0.47480  Biso   1.000  H
  H243     1.0000 0.65100  0.15270  0.02520  Biso   1.000  H
  H244     1.0000 0.15100  0.65270  0.02520  Biso   1.000  H
  H245     1.0000 0.65100  0.84730  0.52520  Biso   1.000  H
  H246     1.0000 0.15100  0.34730  0.52520  Biso   1.000  H
  H247     1.0000 0.34900  0.84730  0.97480  Biso   1.000  H
  H248     1.0000 0.84900  0.34730  0.97480  Biso   1.000  H
  C193     1.0000 0.34205  0.39740  0.54840  Biso   1.000  C
  C194     1.0000 0.84205  0.89740  0.54840  Biso   1.000  C
  C195     1.0000 0.65795  0.39740  0.95160  Biso   1.000  C
  C196     1.0000 0.15795  0.89740  0.95160  Biso   1.000  C
  C197     1.0000 0.65795  0.60260  0.45160  Biso   1.000  C
  C198     1.0000 0.15795  0.10260  0.45160  Biso   1.000  C
  C199     1.0000 0.34205  0.60260  0.04840  Biso   1.000  C
  C200     1.0000 0.84205  0.10260  0.04840  Biso   1.000  C
  H249     1.0000 0.36170  0.44000  0.53020  Biso   1.000  H
  H250     1.0000 0.86170  0.94000  0.53020  Biso   1.000  H
  H251     1.0000 0.63830  0.44000  0.96980  Biso   1.000  H
  H252     1.0000 0.13830  0.94000  0.96980  Biso   1.000  H
  H253     1.0000 0.63830  0.56000  0.46980  Biso   1.000  H
  H254     1.0000 0.13830  0.06000  0.46980  Biso   1.000  H
  H255     1.0000 0.36170  0.56000  0.03020  Biso   1.000  H
  H256     1.0000 0.86170  0.06000  0.03020  Biso   1.000  H
  H257     1.0000 0.32720  0.34930  0.50550  Biso   1.000  H
  H258     1.0000 0.82720  0.84930  0.50550  Biso   1.000  H
  H259     1.0000 0.67280  0.34930  0.99450  Biso   1.000  H
  H260     1.0000 0.17280  0.84930  0.99450  Biso   1.000  H
  H261     1.0000 0.67280  0.65070  0.49450  Biso   1.000  H
  H262     1.0000 0.17280  0.15070  0.49450  Biso   1.000  H
  H263     1.0000 0.32720  0.65070  0.00550  Biso   1.000  H
  H264     1.0000 0.82720  0.15070  0.00550  Biso   1.000  H
  H265     1.0000 0.36720  0.37220  0.60490  Biso   1.000  H
  H266     1.0000 0.86720  0.87220  0.60490  Biso   1.000  H
  H267     1.0000 0.63280  0.37220  0.89510  Biso   1.000  H
  H268     1.0000 0.13280  0.87220  0.89510  Biso   1.000  H
  H269     1.0000 0.63280  0.62780  0.39510  Biso   1.000  H
  H270     1.0000 0.13280  0.12780  0.39510  Biso   1.000  H
  H271     1.0000 0.36720  0.62780  0.10490  Biso   1.000  H
  H272     1.0000 0.86720  0.12780  0.10490  Biso   1.000  H
  C201     1.0000 0.29770  0.44310  0.55500  Biso   1.000  C
  C202     1.0000 0.79770  0.94310  0.55500  Biso   1.000  C
  C203     1.0000 0.70230  0.44310  0.94500  Biso   1.000  C
  C204     1.0000 0.20230  0.94310  0.94500  Biso   1.000  C
  C205     1.0000 0.70230  0.55690  0.44500  Biso   1.000  C
  C206     1.0000 0.20230  0.05690  0.44500  Biso   1.000  C
  C207     1.0000 0.29770  0.55690  0.05500  Biso   1.000  C
  C208     1.0000 0.79770  0.05690  0.05500  Biso   1.000  C
  Cu1      1.0000 0.34944  0.24144  0.31952  Biso   1.000  Cu
  Cu2      1.0000 0.84944  0.74144  0.31952  Biso   1.000  Cu
  Cu3      1.0000 0.65056  0.24144  0.18048  Biso   1.000  Cu
  Cu4      1.0000 0.15056  0.74144  0.18048  Biso   1.000  Cu
  Cu5      1.0000 0.65056  0.75856  0.68048  Biso   1.000  Cu
  Cu6      1.0000 0.15056  0.25856  0.68048  Biso   1.000  Cu
  Cu7      1.0000 0.34944  0.75856  0.81952  Biso   1.000  Cu
  Cu8      1.0000 0.84944  0.25856  0.81952  Biso   1.000  Cu
  N1       1.0000 0.41340  0.38065  0.28559  Biso   1.000  N
  N2       1.0000 0.91340  0.88065  0.28559  Biso   1.000  N
  N3       1.0000 0.58660  0.38065  0.21441  Biso   1.000  N
  N4       1.0000 0.08660  0.88065  0.21441  Biso   1.000  N
  N5       1.0000 0.58660  0.61935  0.71441  Biso   1.000  N
  N6       1.0000 0.08660  0.11935  0.71441  Biso   1.000  N
  N7       1.0000 0.41340  0.61935  0.78559  Biso   1.000  N
  N8       1.0000 0.91340  0.11935  0.78559  Biso   1.000  N
  N9       1.0000 0.39637  0.29332  0.25751  Biso   1.000  N
  N10      1.0000 0.89637  0.79332  0.25751  Biso   1.000  N
  N11      1.0000 0.60363  0.29332  0.24249  Biso   1.000  N
  N12      1.0000 0.10363  0.79332  0.24249  Biso   1.000  N
  N13      1.0000 0.60363  0.70668  0.74249  Biso   1.000  N
  N14      1.0000 0.10363  0.20668  0.74249  Biso   1.000  N
  N15      1.0000 0.39637  0.70668  0.75751  Biso   1.000  N
  N16      1.0000 0.89637  0.20668  0.75751  Biso   1.000  N
  N17      1.0000 0.43271  0.40760  0.02820  Biso   1.000  N
  N18      1.0000 0.93271  0.90760  0.02820  Biso   1.000  N
  N19      1.0000 0.56729  0.40760  0.47180  Biso   1.000  N
  N20      1.0000 0.06729  0.90760  0.47180  Biso   1.000  N
  N21      1.0000 0.56729  0.59240  0.97180  Biso   1.000  N
  N22      1.0000 0.06729  0.09240  0.97180  Biso   1.000  N
  N23      1.0000 0.43271  0.59240  0.52820  Biso   1.000  N
  N24      1.0000 0.93271  0.09240  0.52820  Biso   1.000  N
  N25      1.0000 0.34530  0.43985  0.33278  Biso   1.000  N
  N26      1.0000 0.84530  0.93985  0.33278  Biso   1.000  N
  N27      1.0000 0.65470  0.43985  0.16722  Biso   1.000  N
  N28      1.0000 0.15470  0.93985  0.16722  Biso   1.000  N
  N29      1.0000 0.65470  0.56015  0.66722  Biso   1.000  N
  N30      1.0000 0.15470  0.06015  0.66722  Biso   1.000  N
  N31      1.0000 0.34530  0.56015  0.83278  Biso   1.000  N
  N32      1.0000 0.84530  0.06015  0.83278  Biso   1.000  N
  N33      1.0000 0.30819  0.36872  0.31152  Biso   1.000  N
  N34      1.0000 0.80819  0.86872  0.31152  Biso   1.000  N
  N35      1.0000 0.69181  0.36872  0.18848  Biso   1.000  N
  N36      1.0000 0.19181  0.86872  0.18848  Biso   1.000  N
  N37      1.0000 0.69181  0.63128  0.68848  Biso   1.000  N
  N38      1.0000 0.19181  0.13128  0.68848  Biso   1.000  N
  N39      1.0000 0.30819  0.63128  0.81152  Biso   1.000  N
  N40      1.0000 0.80819  0.13128  0.81152  Biso   1.000  N
  N41      1.0000 0.19350  0.63430  0.22250  Biso   1.000  N
  N42      1.0000 0.69350  0.13430  0.22250  Biso   1.000  N
  N43      1.0000 0.80650  0.63430  0.27750  Biso   1.000  N
  N44      1.0000 0.30650  0.13430  0.27750  Biso   1.000  N
  N45      1.0000 0.80650  0.36570  0.77750  Biso   1.000  N
  N46      1.0000 0.30650  0.86570  0.77750  Biso   1.000  N
  N47      1.0000 0.19350  0.36570  0.72250  Biso   1.000  N
  N48      1.0000 0.69350  0.86570  0.72250  Biso   1.000  N
  N49      1.0000 0.43186  0.36081  0.44431  Biso   1.000  N
  N50      1.0000 0.93186  0.86081  0.44431  Biso   1.000  N
  N51      1.0000 0.56814  0.36081  0.05569  Biso   1.000  N
  N52      1.0000 0.06814  0.86081  0.05569  Biso   1.000  N
  N53      1.0000 0.56814  0.63919  0.55569  Biso   1.000  N
  N54      1.0000 0.06814  0.13919  0.55569  Biso   1.000  N
  N55      1.0000 0.43186  0.63919  0.94431  Biso   1.000  N
  N56      1.0000 0.93186  0.13919  0.94431  Biso   1.000  N
  N57      1.0000 0.41349  0.27295  0.44175  Biso   1.000  N
  N58      1.0000 0.91349  0.77295  0.44175  Biso   1.000  N
  N59      1.0000 0.58651  0.27295  0.05825  Biso   1.000  N
  N60      1.0000 0.08651  0.77295  0.05825  Biso   1.000  N
  N61      1.0000 0.58651  0.72705  0.55825  Biso   1.000  N
  N62      1.0000 0.08651  0.22705  0.55825  Biso   1.000  N
  N63      1.0000 0.41349  0.72705  0.94175  Biso   1.000  N
  N64      1.0000 0.91349  0.22705  0.94175  Biso   1.000  N
  N65      1.0000 0.56219  0.30190  0.73620  Biso   1.000  N
  N66      1.0000 0.06219  0.80190  0.73620  Biso   1.000  N
  N67      1.0000 0.43781  0.30190  0.76380  Biso   1.000  N
  N68      1.0000 0.93781  0.80190  0.76380  Biso   1.000  N
  N69      1.0000 0.43781  0.69810  0.26380  Biso   1.000  N
  N70      1.0000 0.93781  0.19810  0.26380  Biso   1.000  N
  N71      1.0000 0.56219  0.69810  0.23620  Biso   1.000  N
  N72      1.0000 0.06219  0.19810  0.23620  Biso   1.000  N
  N73      1.0000 0.26310  0.48030  0.56160  Biso   1.000  N
  N74      1.0000 0.76310  0.98030  0.56160  Biso   1.000  N
  N75      1.0000 0.73690  0.48030  0.93840  Biso   1.000  N
  N76      1.0000 0.23690  0.98030  0.93840  Biso   1.000  N
  N77      1.0000 0.73690  0.51970  0.43840  Biso   1.000  N
  N78      1.0000 0.23690  0.01970  0.43840  Biso   1.000  N
  N79      1.0000 0.26310  0.51970  0.06160  Biso   1.000  N
  N80      1.0000 0.76310  0.01970  0.06160  Biso   1.000  N
