data_image0
_cell_length_a       27.3636
_cell_length_b       14.7274
_cell_length_c       17.3252
_cell_angle_alpha    90
_cell_angle_beta     118.276
_cell_angle_gamma    90

_symmetry_space_group_name_H-M    "P 1"
_symmetry_int_tables_number       1

loop_
  _symmetry_equiv_pos_as_xyz
  'x, y, z'

loop_
  _atom_site_label
  _atom_site_occupancy
  _atom_site_fract_x
  _atom_site_fract_y
  _atom_site_fract_z
  _atom_site_thermal_displace_type
  _atom_site_B_iso_or_equiv
  _atom_site_type_symbol
  B1       1.0000 0.48040  0.07570  0.13020  Biso   1.000  B
  B2       1.0000 0.48040  0.92430  0.63020  Biso   1.000  B
  B3       1.0000 0.98040  0.57570  0.13020  Biso   1.000  B
  B4       1.0000 0.98040  0.42430  0.63020  Biso   1.000  B
  H1       1.0000 0.49970  0.01710  0.14490  Biso   1.000  H
  H2       1.0000 0.49970  0.98290  0.64490  Biso   1.000  H
  H3       1.0000 0.99970  0.51710  0.14490  Biso   1.000  H
  H4       1.0000 0.99970  0.48290  0.64490  Biso   1.000  H
  B5       1.0000 0.16870  0.57860  0.90560  Biso   1.000  B
  B6       1.0000 0.16870  0.42140  0.40560  Biso   1.000  B
  B7       1.0000 0.66870  0.07860  0.90560  Biso   1.000  B
  B8       1.0000 0.66870  0.92140  0.40560  Biso   1.000  B
  H5       1.0000 0.14890  0.52040  0.88930  Biso   1.000  H
  H6       1.0000 0.14890  0.47960  0.38930  Biso   1.000  H
  H7       1.0000 0.64890  0.02040  0.88930  Biso   1.000  H
  H8       1.0000 0.64890  0.97960  0.38930  Biso   1.000  H
  C1       1.0000 0.49750  0.08110  0.99850  Biso   1.000  C
  C2       1.0000 0.49750  0.91890  0.49850  Biso   1.000  C
  C3       1.0000 0.99750  0.58110  0.99850  Biso   1.000  C
  C4       1.0000 0.99750  0.41890  0.49850  Biso   1.000  C
  H9       1.0000 0.51150  0.02230  0.00680  Biso   1.000  H
  H10      1.0000 0.51150  0.97770  0.50680  Biso   1.000  H
  H11      1.0000 0.01150  0.52230  0.00680  Biso   1.000  H
  H12      1.0000 0.01150  0.47770  0.50680  Biso   1.000  H
  C5       1.0000 0.49030  0.13320  0.93390  Biso   1.000  C
  C6       1.0000 0.49030  0.86680  0.43390  Biso   1.000  C
  C7       1.0000 0.99030  0.63320  0.93390  Biso   1.000  C
  C8       1.0000 0.99030  0.36680  0.43390  Biso   1.000  C
  C9       1.0000 0.49860  0.11070  0.86590  Biso   1.000  C
  C10      1.0000 0.49860  0.88930  0.36590  Biso   1.000  C
  C11      1.0000 0.99860  0.61070  0.86590  Biso   1.000  C
  C12      1.0000 0.99860  0.38930  0.36590  Biso   1.000  C
  C13      1.0000 0.47310  0.22190  0.95270  Biso   1.000  C
  C14      1.0000 0.47310  0.77810  0.45270  Biso   1.000  C
  C15      1.0000 0.97310  0.72190  0.95270  Biso   1.000  C
  C16      1.0000 0.97310  0.27810  0.45270  Biso   1.000  C
  C17      1.0000 0.46210  0.31140  0.90660  Biso   1.000  C
  C18      1.0000 0.46210  0.68860  0.40660  Biso   1.000  C
  C19      1.0000 0.96210  0.81140  0.90660  Biso   1.000  C
  C20      1.0000 0.96210  0.18860  0.40660  Biso   1.000  C
  C21      1.0000 0.49720  0.31670  0.85290  Biso   1.000  C
  C22      1.0000 0.49720  0.68330  0.35290  Biso   1.000  C
  C23      1.0000 0.99720  0.81670  0.85290  Biso   1.000  C
  C24      1.0000 0.99720  0.18330  0.35290  Biso   1.000  C
  H13      1.0000 0.49650  0.37780  0.83300  Biso   1.000  H
  H14      1.0000 0.49650  0.62220  0.33300  Biso   1.000  H
  H15      1.0000 0.99650  0.87780  0.83300  Biso   1.000  H
  H16      1.0000 0.99650  0.12220  0.33300  Biso   1.000  H
  H17      1.0000 0.48100  0.27660  0.80340  Biso   1.000  H
  H18      1.0000 0.48100  0.72340  0.30340  Biso   1.000  H
  H19      1.0000 0.98100  0.77660  0.80340  Biso   1.000  H
  H20      1.0000 0.98100  0.22340  0.30340  Biso   1.000  H
  H21      1.0000 0.53500  0.29900  0.89070  Biso   1.000  H
  H22      1.0000 0.53500  0.70100  0.39070  Biso   1.000  H
  H23      1.0000 0.03500  0.79900  0.89070  Biso   1.000  H
  H24      1.0000 0.03500  0.20100  0.39070  Biso   1.000  H
  C25      1.0000 0.39850  0.31530  0.84890  Biso   1.000  C
  C26      1.0000 0.39850  0.68470  0.34890  Biso   1.000  C
  C27      1.0000 0.89850  0.81530  0.84890  Biso   1.000  C
  C28      1.0000 0.89850  0.18470  0.34890  Biso   1.000  C
  H25      1.0000 0.38100  0.30940  0.88530  Biso   1.000  H
  H26      1.0000 0.38100  0.69060  0.38530  Biso   1.000  H
  H27      1.0000 0.88100  0.80940  0.88530  Biso   1.000  H
  H28      1.0000 0.88100  0.19060  0.38530  Biso   1.000  H
  H29      1.0000 0.38680  0.26660  0.80710  Biso   1.000  H
  H30      1.0000 0.38680  0.73340  0.30710  Biso   1.000  H
  H31      1.0000 0.88680  0.76660  0.80710  Biso   1.000  H
  H32      1.0000 0.88680  0.23340  0.30710  Biso   1.000  H
  H33      1.0000 0.38840  0.37230  0.81860  Biso   1.000  H
  H34      1.0000 0.38840  0.62770  0.31860  Biso   1.000  H
  H35      1.0000 0.88840  0.87230  0.81860  Biso   1.000  H
  H36      1.0000 0.88840  0.12770  0.31860  Biso   1.000  H
  C29      1.0000 0.48410  0.38320  0.97950  Biso   1.000  C
  C30      1.0000 0.48410  0.61680  0.47950  Biso   1.000  C
  C31      1.0000 0.98410  0.88320  0.97950  Biso   1.000  C
  C32      1.0000 0.98410  0.11680  0.47950  Biso   1.000  C
  H37      1.0000 0.46570  0.37680  0.01450  Biso   1.000  H
  H38      1.0000 0.46570  0.62320  0.51450  Biso   1.000  H
  H39      1.0000 0.96570  0.87680  0.01450  Biso   1.000  H
  H40      1.0000 0.96570  0.12320  0.51450  Biso   1.000  H
  H41      1.0000 0.47710  0.44270  0.95380  Biso   1.000  H
  H42      1.0000 0.47710  0.55730  0.45380  Biso   1.000  H
  H43      1.0000 0.97710  0.94270  0.95380  Biso   1.000  H
  H44      1.0000 0.97710  0.05730  0.45380  Biso   1.000  H
  H45      1.0000 0.52330  0.37500  0.01580  Biso   1.000  H
  H46      1.0000 0.52330  0.62500  0.51580  Biso   1.000  H
  H47      1.0000 0.02330  0.87500  0.01580  Biso   1.000  H
  H48      1.0000 0.02330  0.12500  0.51580  Biso   1.000  H
  C33      1.0000 0.54270  0.12050  0.28050  Biso   1.000  C
  C34      1.0000 0.54270  0.87950  0.78050  Biso   1.000  C
  C35      1.0000 0.04270  0.62050  0.28050  Biso   1.000  C
  C36      1.0000 0.04270  0.37950  0.78050  Biso   1.000  C
  H49      1.0000 0.56260  0.06650  0.29650  Biso   1.000  H
  H50      1.0000 0.56260  0.93350  0.79650  Biso   1.000  H
  H51      1.0000 0.06260  0.56650  0.29650  Biso   1.000  H
  H52      1.0000 0.06260  0.43350  0.79650  Biso   1.000  H
  C37      1.0000 0.55360  0.19920  0.33680  Biso   1.000  C
  C38      1.0000 0.55360  0.80080  0.83680  Biso   1.000  C
  C39      1.0000 0.05360  0.69920  0.33680  Biso   1.000  C
  C40      1.0000 0.05360  0.30080  0.83680  Biso   1.000  C
  C41      1.0000 0.59440  0.19130  0.42790  Biso   1.000  C
  C42      1.0000 0.59440  0.80870  0.92790  Biso   1.000  C
  C43      1.0000 0.09440  0.69130  0.42790  Biso   1.000  C
  C44      1.0000 0.09440  0.30870  0.92790  Biso   1.000  C
  C45      1.0000 0.51730  0.26040  0.28940  Biso   1.000  C
  C46      1.0000 0.51730  0.73960  0.78940  Biso   1.000  C
  C47      1.0000 0.01730  0.76040  0.28940  Biso   1.000  C
  C48      1.0000 0.01730  0.23960  0.78940  Biso   1.000  C
  C49      1.0000 0.50830  0.35870  0.30880  Biso   1.000  C
  C50      1.0000 0.50830  0.64130  0.80880  Biso   1.000  C
  C51      1.0000 0.00830  0.85870  0.30880  Biso   1.000  C
  C52      1.0000 0.00830  0.14130  0.80880  Biso   1.000  C
  C53      1.0000 0.55520  0.39410  0.38550  Biso   1.000  C
  C54      1.0000 0.55520  0.60590  0.88550  Biso   1.000  C
  C55      1.0000 0.05520  0.89410  0.38550  Biso   1.000  C
  C56      1.0000 0.05520  0.10590  0.88550  Biso   1.000  C
  H53      1.0000 0.58890  0.37350  0.38690  Biso   1.000  H
  H54      1.0000 0.58890  0.62650  0.88690  Biso   1.000  H
  H55      1.0000 0.08890  0.87350  0.38690  Biso   1.000  H
  H56      1.0000 0.08890  0.12650  0.88690  Biso   1.000  H
  H57      1.0000 0.55400  0.37320  0.43700  Biso   1.000  H
  H58      1.0000 0.55400  0.62680  0.93700  Biso   1.000  H
  H59      1.0000 0.05400  0.87320  0.43700  Biso   1.000  H
  H60      1.0000 0.05400  0.12680  0.93700  Biso   1.000  H
  H61      1.0000 0.55410  0.45920  0.38390  Biso   1.000  H
  H62      1.0000 0.55410  0.54080  0.88390  Biso   1.000  H
  H63      1.0000 0.05410  0.95920  0.38390  Biso   1.000  H
  H64      1.0000 0.05410  0.04080  0.88390  Biso   1.000  H
  C57      1.0000 0.44900  0.36970  0.29220  Biso   1.000  C
  C58      1.0000 0.44900  0.63030  0.79220  Biso   1.000  C
  C59      1.0000 0.94900  0.86970  0.29220  Biso   1.000  C
  C60      1.0000 0.94900  0.13030  0.79220  Biso   1.000  C
  H65      1.0000 0.44500  0.42760  0.31410  Biso   1.000  H
  H66      1.0000 0.44500  0.57240  0.81410  Biso   1.000  H
  H67      1.0000 0.94500  0.92760  0.31410  Biso   1.000  H
  H68      1.0000 0.94500  0.07240  0.81410  Biso   1.000  H
  H69      1.0000 0.44030  0.32220  0.32160  Biso   1.000  H
  H70      1.0000 0.44030  0.67780  0.82160  Biso   1.000  H
  H71      1.0000 0.94030  0.82220  0.32160  Biso   1.000  H
  H72      1.0000 0.94030  0.17780  0.82160  Biso   1.000  H
  H73      1.0000 0.42420  0.36650  0.23040  Biso   1.000  H
  H74      1.0000 0.42420  0.63350  0.73040  Biso   1.000  H
  H75      1.0000 0.92420  0.86650  0.23040  Biso   1.000  H
  H76      1.0000 0.92420  0.13350  0.73040  Biso   1.000  H
  C61      1.0000 0.50740  0.41800  0.24630  Biso   1.000  C
  C62      1.0000 0.50740  0.58200  0.74630  Biso   1.000  C
  C63      1.0000 0.00740  0.91800  0.24630  Biso   1.000  C
  C64      1.0000 0.00740  0.08200  0.74630  Biso   1.000  C
  H77      1.0000 0.48940  0.47330  0.24800  Biso   1.000  H
  H78      1.0000 0.48940  0.52670  0.74800  Biso   1.000  H
  H79      1.0000 0.98940  0.97330  0.24800  Biso   1.000  H
  H80      1.0000 0.98940  0.02670  0.74800  Biso   1.000  H
  H81      1.0000 0.48740  0.39090  0.18930  Biso   1.000  H
  H82      1.0000 0.48740  0.60910  0.68930  Biso   1.000  H
  H83      1.0000 0.98740  0.89090  0.18930  Biso   1.000  H
  H84      1.0000 0.98740  0.10910  0.68930  Biso   1.000  H
  H85      1.0000 0.54470  0.43090  0.25830  Biso   1.000  H
  H86      1.0000 0.54470  0.56910  0.75830  Biso   1.000  H
  H87      1.0000 0.04470  0.93090  0.25830  Biso   1.000  H
  H88      1.0000 0.04470  0.06910  0.75830  Biso   1.000  H
  C65      1.0000 0.38980  0.98110  0.07710  Biso   1.000  C
  C66      1.0000 0.38980  0.01890  0.57710  Biso   1.000  C
  C67      1.0000 0.88980  0.48110  0.07710  Biso   1.000  C
  C68      1.0000 0.88980  0.51890  0.57710  Biso   1.000  C
  H89      1.0000 0.40650  0.92440  0.08450  Biso   1.000  H
  H90      1.0000 0.40650  0.07560  0.58450  Biso   1.000  H
  H91      1.0000 0.90650  0.42440  0.08450  Biso   1.000  H
  H92      1.0000 0.90650  0.57560  0.58450  Biso   1.000  H
  C69      1.0000 0.33150  0.00060  0.04430  Biso   1.000  C
  C70      1.0000 0.33150  0.99940  0.54430  Biso   1.000  C
  C71      1.0000 0.83150  0.50060  0.04430  Biso   1.000  C
  C72      1.0000 0.83150  0.49940  0.54430  Biso   1.000  C
  C73      1.0000 0.29420  0.92740  0.01500  Biso   1.000  C
  C74      1.0000 0.29420  0.07260  0.51500  Biso   1.000  C
  C75      1.0000 0.79420  0.42740  0.01500  Biso   1.000  C
  C76      1.0000 0.79420  0.57260  0.51500  Biso   1.000  C
  C77      1.0000 0.32540  0.09330  0.04440  Biso   1.000  C
  C78      1.0000 0.32540  0.90670  0.54440  Biso   1.000  C
  C79      1.0000 0.82540  0.59330  0.04440  Biso   1.000  C
  C80      1.0000 0.82540  0.40670  0.54440  Biso   1.000  C
  C81      1.0000 0.27640  0.14600  0.01650  Biso   1.000  C
  C82      1.0000 0.27640  0.85400  0.51650  Biso   1.000  C
  C83      1.0000 0.77640  0.64600  0.01650  Biso   1.000  C
  C84      1.0000 0.77640  0.35400  0.51650  Biso   1.000  C
  C85      1.0000 0.22830  0.08870  0.01470  Biso   1.000  C
  C86      1.0000 0.22830  0.91130  0.51470  Biso   1.000  C
  C87      1.0000 0.72830  0.58870  0.01470  Biso   1.000  C
  C88      1.0000 0.72830  0.41130  0.51470  Biso   1.000  C
  H93      1.0000 0.19660  0.12690  0.99940  Biso   1.000  H
  H94      1.0000 0.19660  0.87310  0.49940  Biso   1.000  H
  H95      1.0000 0.69660  0.62690  0.99940  Biso   1.000  H
  H96      1.0000 0.69660  0.37310  0.49940  Biso   1.000  H
  H97      1.0000 0.23980  0.06260  0.07150  Biso   1.000  H
  H98      1.0000 0.23980  0.93740  0.57150  Biso   1.000  H
  H99      1.0000 0.73980  0.56260  0.07150  Biso   1.000  H
  H100     1.0000 0.73980  0.43740  0.57150  Biso   1.000  H
  H101     1.0000 0.21870  0.04110  0.97210  Biso   1.000  H
  H102     1.0000 0.21870  0.95890  0.47210  Biso   1.000  H
  H103     1.0000 0.71870  0.54110  0.97210  Biso   1.000  H
  H104     1.0000 0.71870  0.45890  0.47210  Biso   1.000  H
  C89      1.0000 0.28740  0.21970  0.08690  Biso   1.000  C
  C90      1.0000 0.28740  0.78030  0.58690  Biso   1.000  C
  C91      1.0000 0.78740  0.71970  0.08690  Biso   1.000  C
  C92      1.0000 0.78740  0.28030  0.58690  Biso   1.000  C
  H105     1.0000 0.32090  0.25180  0.09970  Biso   1.000  H
  H106     1.0000 0.32090  0.74820  0.59970  Biso   1.000  H
  H107     1.0000 0.82090  0.75180  0.09970  Biso   1.000  H
  H108     1.0000 0.82090  0.24820  0.59970  Biso   1.000  H
  H109     1.0000 0.29120  0.19140  0.13940  Biso   1.000  H
  H110     1.0000 0.29120  0.80860  0.63940  Biso   1.000  H
  H111     1.0000 0.79120  0.69140  0.13940  Biso   1.000  H
  H112     1.0000 0.79120  0.30860  0.63940  Biso   1.000  H
  H113     1.0000 0.25690  0.26160  0.06530  Biso   1.000  H
  H114     1.0000 0.25690  0.73840  0.56530  Biso   1.000  H
  H115     1.0000 0.75690  0.76160  0.06530  Biso   1.000  H
  H116     1.0000 0.75690  0.23840  0.56530  Biso   1.000  H
  C93      1.0000 0.26530  0.19570  0.93780  Biso   1.000  C
  C94      1.0000 0.26530  0.80430  0.43780  Biso   1.000  C
  C95      1.0000 0.76530  0.69570  0.93780  Biso   1.000  C
  C96      1.0000 0.76530  0.30430  0.43780  Biso   1.000  C
  H117     1.0000 0.24320  0.15890  0.88740  Biso   1.000  H
  H118     1.0000 0.24320  0.84110  0.38740  Biso   1.000  H
  H119     1.0000 0.74320  0.65890  0.88740  Biso   1.000  H
  H120     1.0000 0.74320  0.34110  0.38740  Biso   1.000  H
  H121     1.0000 0.29970  0.21060  0.93870  Biso   1.000  H
  H122     1.0000 0.29970  0.78940  0.43870  Biso   1.000  H
  H123     1.0000 0.79970  0.71060  0.93870  Biso   1.000  H
  H124     1.0000 0.79970  0.28940  0.43870  Biso   1.000  H
  H125     1.0000 0.24560  0.25050  0.93510  Biso   1.000  H
  H126     1.0000 0.24560  0.74950  0.43510  Biso   1.000  H
  H127     1.0000 0.74560  0.75050  0.93510  Biso   1.000  H
  H128     1.0000 0.74560  0.24950  0.43510  Biso   1.000  H
  C97      1.0000 0.25280  0.48310  0.95090  Biso   1.000  C
  C98      1.0000 0.25280  0.51690  0.45090  Biso   1.000  C
  C99      1.0000 0.75280  0.98310  0.95090  Biso   1.000  C
  C100     1.0000 0.75280  0.01690  0.45090  Biso   1.000  C
  H129     1.0000 0.23590  0.42640  0.94100  Biso   1.000  H
  H130     1.0000 0.23590  0.57360  0.44100  Biso   1.000  H
  H131     1.0000 0.73590  0.92640  0.94100  Biso   1.000  H
  H132     1.0000 0.73590  0.07360  0.44100  Biso   1.000  H
  C101     1.0000 0.30640  0.49550  0.98570  Biso   1.000  C
  C102     1.0000 0.30640  0.50450  0.48570  Biso   1.000  C
  C103     1.0000 0.80640  0.99550  0.98570  Biso   1.000  C
  C104     1.0000 0.80640  0.00450  0.48570  Biso   1.000  C
  C105     1.0000 0.35050  0.42530  0.02050  Biso   1.000  C
  C106     1.0000 0.35050  0.57470  0.52050  Biso   1.000  C
  C107     1.0000 0.85050  0.92530  0.02050  Biso   1.000  C
  C108     1.0000 0.85050  0.07470  0.52050  Biso   1.000  C
  C109     1.0000 0.31120  0.59380  0.98590  Biso   1.000  C
  C110     1.0000 0.31120  0.40620  0.48590  Biso   1.000  C
  C111     1.0000 0.81120  0.09380  0.98590  Biso   1.000  C
  C112     1.0000 0.81120  0.90620  0.48590  Biso   1.000  C
  C113     1.0000 0.36450  0.65910  0.00640  Biso   1.000  C
  C114     1.0000 0.36450  0.34090  0.50640  Biso   1.000  C
  C115     1.0000 0.86450  0.15910  0.00640  Biso   1.000  C
  C116     1.0000 0.86450  0.84090  0.50640  Biso   1.000  C
  C117     1.0000 0.41560  0.59720  0.04100  Biso   1.000  C
  C118     1.0000 0.41560  0.40280  0.54100  Biso   1.000  C
  C119     1.0000 0.91560  0.09720  0.04100  Biso   1.000  C
  C120     1.0000 0.91560  0.90280  0.54100  Biso   1.000  C
  H133     1.0000 0.40850  0.54740  0.00180  Biso   1.000  H
  H134     1.0000 0.40850  0.45260  0.50180  Biso   1.000  H
  H135     1.0000 0.90850  0.04740  0.00180  Biso   1.000  H
  H136     1.0000 0.90850  0.95260  0.50180  Biso   1.000  H
  H137     1.0000 0.42350  0.57440  0.09800  Biso   1.000  H
  H138     1.0000 0.42350  0.42560  0.59800  Biso   1.000  H
  H139     1.0000 0.92350  0.07440  0.09800  Biso   1.000  H
  H140     1.0000 0.92350  0.92560  0.59800  Biso   1.000  H
  H141     1.0000 0.44690  0.63120  0.04640  Biso   1.000  H
  H142     1.0000 0.44690  0.36880  0.54640  Biso   1.000  H
  H143     1.0000 0.94690  0.13120  0.04640  Biso   1.000  H
  H144     1.0000 0.94690  0.86880  0.54640  Biso   1.000  H
  C121     1.0000 0.37670  0.70550  0.09770  Biso   1.000  C
  C122     1.0000 0.37670  0.29450  0.59770  Biso   1.000  C
  C123     1.0000 0.87670  0.20550  0.09770  Biso   1.000  C
  C124     1.0000 0.87670  0.79450  0.59770  Biso   1.000  C
  H145     1.0000 0.41150  0.73710  0.12170  Biso   1.000  H
  H146     1.0000 0.41150  0.26290  0.62170  Biso   1.000  H
  H147     1.0000 0.91150  0.23710  0.12170  Biso   1.000  H
  H148     1.0000 0.91150  0.76290  0.62170  Biso   1.000  H
  H149     1.0000 0.37830  0.65950  0.13800  Biso   1.000  H
  H150     1.0000 0.37830  0.34050  0.63800  Biso   1.000  H
  H151     1.0000 0.87830  0.15950  0.13800  Biso   1.000  H
  H152     1.0000 0.87830  0.84050  0.63800  Biso   1.000  H
  H153     1.0000 0.34760  0.74770  0.08780  Biso   1.000  H
  H154     1.0000 0.34760  0.25230  0.58780  Biso   1.000  H
  H155     1.0000 0.84760  0.24770  0.08780  Biso   1.000  H
  H156     1.0000 0.84760  0.75230  0.58780  Biso   1.000  H
  C125     1.0000 0.35590  0.72620  0.94140  Biso   1.000  C
  C126     1.0000 0.35590  0.27380  0.44140  Biso   1.000  C
  C127     1.0000 0.85590  0.22620  0.94140  Biso   1.000  C
  C128     1.0000 0.85590  0.77380  0.44140  Biso   1.000  C
  H157     1.0000 0.34690  0.69690  0.88680  Biso   1.000  H
  H158     1.0000 0.34690  0.30310  0.38680  Biso   1.000  H
  H159     1.0000 0.84690  0.19690  0.88680  Biso   1.000  H
  H160     1.0000 0.84690  0.80310  0.38680  Biso   1.000  H
  H161     1.0000 0.38910  0.76150  0.95990  Biso   1.000  H
  H162     1.0000 0.38910  0.23850  0.45990  Biso   1.000  H
  H163     1.0000 0.88910  0.26150  0.95990  Biso   1.000  H
  H164     1.0000 0.88910  0.73850  0.45990  Biso   1.000  H
  H165     1.0000 0.32590  0.76540  0.93390  Biso   1.000  H
  H166     1.0000 0.32590  0.23460  0.43390  Biso   1.000  H
  H167     1.0000 0.82590  0.26540  0.93390  Biso   1.000  H
  H168     1.0000 0.82590  0.73460  0.43390  Biso   1.000  H
  C129     1.0000 0.09840  0.62020  0.73690  Biso   1.000  C
  C130     1.0000 0.09840  0.37980  0.23690  Biso   1.000  C
  C131     1.0000 0.59840  0.12020  0.73690  Biso   1.000  C
  C132     1.0000 0.59840  0.87980  0.23690  Biso   1.000  C
  H169     1.0000 0.08130  0.56410  0.71770  Biso   1.000  H
  H170     1.0000 0.08130  0.43590  0.21770  Biso   1.000  H
  H171     1.0000 0.58130  0.06410  0.71770  Biso   1.000  H
  H172     1.0000 0.58130  0.93590  0.21770  Biso   1.000  H
  C133     1.0000 0.08790  0.69390  0.68890  Biso   1.000  C
  C134     1.0000 0.08790  0.30610  0.18890  Biso   1.000  C
  C135     1.0000 0.58790  0.19390  0.68890  Biso   1.000  C
  C136     1.0000 0.58790  0.80610  0.18890  Biso   1.000  C
  C137     1.0000 0.04290  0.70040  0.60340  Biso   1.000  C
  C138     1.0000 0.04290  0.29960  0.10340  Biso   1.000  C
  C139     1.0000 0.54290  0.20040  0.60340  Biso   1.000  C
  C140     1.0000 0.54290  0.79960  0.10340  Biso   1.000  C
  C141     1.0000 0.12690  0.76220  0.74690  Biso   1.000  C
  C142     1.0000 0.12690  0.23780  0.24690  Biso   1.000  C
  C143     1.0000 0.62690  0.26220  0.74690  Biso   1.000  C
  C144     1.0000 0.62690  0.73780  0.24690  Biso   1.000  C
  C145     1.0000 0.13630  0.85530  0.72570  Biso   1.000  C
  C146     1.0000 0.13630  0.14470  0.22570  Biso   1.000  C
  C147     1.0000 0.63630  0.35530  0.72570  Biso   1.000  C
  C148     1.0000 0.63630  0.64470  0.22570  Biso   1.000  C
  C149     1.0000 0.09380  0.87820  0.62800  Biso   1.000  C
  C150     1.0000 0.09380  0.12180  0.12800  Biso   1.000  C
  C151     1.0000 0.59380  0.37820  0.62800  Biso   1.000  C
  C152     1.0000 0.59380  0.62180  0.12800  Biso   1.000  C
  H173     1.0000 0.09770  0.94080  0.61640  Biso   1.000  H
  H174     1.0000 0.09770  0.05920  0.11640  Biso   1.000  H
  H175     1.0000 0.59770  0.44080  0.61640  Biso   1.000  H
  H176     1.0000 0.59770  0.55920  0.11640  Biso   1.000  H
  H177     1.0000 0.05680  0.86750  0.61830  Biso   1.000  H
  H178     1.0000 0.05680  0.13250  0.11830  Biso   1.000  H
  H179     1.0000 0.55680  0.36750  0.61830  Biso   1.000  H
  H180     1.0000 0.55680  0.63250  0.11830  Biso   1.000  H
  H181     1.0000 0.10110  0.84030  0.58940  Biso   1.000  H
  H182     1.0000 0.10110  0.15970  0.08940  Biso   1.000  H
  H183     1.0000 0.60110  0.34030  0.58940  Biso   1.000  H
  H184     1.0000 0.60110  0.65970  0.08940  Biso   1.000  H
  C153     1.0000 0.18570  0.85380  0.71000  Biso   1.000  C
  C154     1.0000 0.18570  0.14620  0.21000  Biso   1.000  C
  C155     1.0000 0.68570  0.35380  0.71000  Biso   1.000  C
  C156     1.0000 0.68570  0.64620  0.21000  Biso   1.000  C
  H185     1.0000 0.21480  0.81860  0.75490  Biso   1.000  H
  H186     1.0000 0.21480  0.18140  0.25490  Biso   1.000  H
  H187     1.0000 0.71480  0.31860  0.75490  Biso   1.000  H
  H188     1.0000 0.71480  0.68140  0.25490  Biso   1.000  H
  H189     1.0000 0.19850  0.91470  0.71120  Biso   1.000  H
  H190     1.0000 0.19850  0.08530  0.21120  Biso   1.000  H
  H191     1.0000 0.69850  0.41470  0.71120  Biso   1.000  H
  H192     1.0000 0.69850  0.58530  0.21120  Biso   1.000  H
  H193     1.0000 0.17540  0.82710  0.65380  Biso   1.000  H
  H194     1.0000 0.17540  0.17290  0.15380  Biso   1.000  H
  H195     1.0000 0.67540  0.32710  0.65380  Biso   1.000  H
  H196     1.0000 0.67540  0.67290  0.15380  Biso   1.000  H
  C157     1.0000 0.13180  0.92220  0.79850  Biso   1.000  C
  C158     1.0000 0.13180  0.07780  0.29850  Biso   1.000  C
  C159     1.0000 0.63180  0.42220  0.79850  Biso   1.000  C
  C160     1.0000 0.63180  0.57780  0.29850  Biso   1.000  C
  H197     1.0000 0.16250  0.91060  0.85550  Biso   1.000  H
  H198     1.0000 0.16250  0.08940  0.35550  Biso   1.000  H
  H199     1.0000 0.66250  0.41060  0.85550  Biso   1.000  H
  H200     1.0000 0.66250  0.58940  0.35550  Biso   1.000  H
  H201     1.0000 0.09770  0.91050  0.79960  Biso   1.000  H
  H202     1.0000 0.09770  0.08950  0.29960  Biso   1.000  H
  H203     1.0000 0.59770  0.41050  0.79960  Biso   1.000  H
  H204     1.0000 0.59770  0.58950  0.29960  Biso   1.000  H
  H205     1.0000 0.13280  0.98450  0.78290  Biso   1.000  H
  H206     1.0000 0.13280  0.01550  0.28290  Biso   1.000  H
  H207     1.0000 0.63280  0.48450  0.78290  Biso   1.000  H
  H208     1.0000 0.63280  0.51550  0.28290  Biso   1.000  H
  C161     1.0000 0.14440  0.57600  0.03560  Biso   1.000  C
  C162     1.0000 0.14440  0.42400  0.53560  Biso   1.000  C
  C163     1.0000 0.64440  0.07600  0.03560  Biso   1.000  C
  C164     1.0000 0.64440  0.92400  0.53560  Biso   1.000  C
  H209     1.0000 0.13310  0.51610  0.03330  Biso   1.000  H
  H210     1.0000 0.13310  0.48390  0.53330  Biso   1.000  H
  H211     1.0000 0.63310  0.01610  0.03330  Biso   1.000  H
  H212     1.0000 0.63310  0.98390  0.53330  Biso   1.000  H
  C165     1.0000 0.14890  0.64270  0.09940  Biso   1.000  C
  C166     1.0000 0.14890  0.35730  0.59940  Biso   1.000  C
  C167     1.0000 0.64890  0.14270  0.09940  Biso   1.000  C
  C168     1.0000 0.64890  0.85730  0.59940  Biso   1.000  C
  C169     1.0000 0.14010  0.62050  0.16990  Biso   1.000  C
  C170     1.0000 0.14010  0.37950  0.66990  Biso   1.000  C
  C171     1.0000 0.64010  0.12050  0.16990  Biso   1.000  C
  C172     1.0000 0.64010  0.87950  0.66990  Biso   1.000  C
  C173     1.0000 0.16990  0.71560  0.08080  Biso   1.000  C
  C174     1.0000 0.16990  0.28440  0.58080  Biso   1.000  C
  C175     1.0000 0.66990  0.21560  0.08080  Biso   1.000  C
  C176     1.0000 0.66990  0.78440  0.58080  Biso   1.000  C
  C177     1.0000 0.18520  0.80680  0.12730  Biso   1.000  C
  C178     1.0000 0.18520  0.19320  0.62730  Biso   1.000  C
  C179     1.0000 0.68520  0.30680  0.12730  Biso   1.000  C
  C180     1.0000 0.68520  0.69320  0.62730  Biso   1.000  C
  C181     1.0000 0.16040  0.81800  0.18710  Biso   1.000  C
  C182     1.0000 0.16040  0.18200  0.68710  Biso   1.000  C
  C183     1.0000 0.66040  0.31800  0.18710  Biso   1.000  C
  C184     1.0000 0.66040  0.68200  0.68710  Biso   1.000  C
  H213     1.0000 0.17250  0.76920  0.22890  Biso   1.000  H
  H214     1.0000 0.17250  0.23080  0.72890  Biso   1.000  H
  H215     1.0000 0.67250  0.26920  0.22890  Biso   1.000  H
  H216     1.0000 0.67250  0.73080  0.72890  Biso   1.000  H
  H217     1.0000 0.12070  0.81700  0.15350  Biso   1.000  H
  H218     1.0000 0.12070  0.18300  0.65350  Biso   1.000  H
  H219     1.0000 0.62070  0.31700  0.15350  Biso   1.000  H
  H220     1.0000 0.62070  0.68300  0.65350  Biso   1.000  H
  H221     1.0000 0.17210  0.87490  0.21740  Biso   1.000  H
  H222     1.0000 0.17210  0.12510  0.71740  Biso   1.000  H
  H223     1.0000 0.67210  0.37490  0.21740  Biso   1.000  H
  H224     1.0000 0.67210  0.62510  0.71740  Biso   1.000  H
  C185     1.0000 0.24900  0.81170  0.18340  Biso   1.000  C
  C186     1.0000 0.24900  0.18830  0.68340  Biso   1.000  C
  C187     1.0000 0.74900  0.31170  0.18340  Biso   1.000  C
  C188     1.0000 0.74900  0.68830  0.68340  Biso   1.000  C
  H225     1.0000 0.25940  0.87070  0.20980  Biso   1.000  H
  H226     1.0000 0.25940  0.12930  0.70980  Biso   1.000  H
  H227     1.0000 0.75940  0.37070  0.20980  Biso   1.000  H
  H228     1.0000 0.75940  0.62930  0.70980  Biso   1.000  H
  H229     1.0000 0.26600  0.80130  0.14680  Biso   1.000  H
  H230     1.0000 0.26600  0.19870  0.64680  Biso   1.000  H
  H231     1.0000 0.76600  0.30130  0.14680  Biso   1.000  H
  H232     1.0000 0.76600  0.69870  0.64680  Biso   1.000  H
  H233     1.0000 0.26120  0.76620  0.22840  Biso   1.000  H
  H234     1.0000 0.26120  0.23380  0.72840  Biso   1.000  H
  H235     1.0000 0.76120  0.26620  0.22840  Biso   1.000  H
  H236     1.0000 0.76120  0.73380  0.72840  Biso   1.000  H
  C189     1.0000 0.16700  0.89040  0.06440  Biso   1.000  C
  C190     1.0000 0.16700  0.10960  0.56440  Biso   1.000  C
  C191     1.0000 0.66700  0.39040  0.06440  Biso   1.000  C
  C192     1.0000 0.66700  0.60960  0.56440  Biso   1.000  C
  H237     1.0000 0.17660  0.94530  0.09830  Biso   1.000  H
  H238     1.0000 0.17660  0.05470  0.59830  Biso   1.000  H
  H239     1.0000 0.67660  0.44530  0.09830  Biso   1.000  H
  H240     1.0000 0.67660  0.55470  0.59830  Biso   1.000  H
  H241     1.0000 0.12760  0.88850  0.02690  Biso   1.000  H
  H242     1.0000 0.12760  0.11150  0.52690  Biso   1.000  H
  H243     1.0000 0.62760  0.38850  0.02690  Biso   1.000  H
  H244     1.0000 0.62760  0.61150  0.52690  Biso   1.000  H
  H245     1.0000 0.18560  0.88880  0.02930  Biso   1.000  H
  H246     1.0000 0.18560  0.11120  0.52930  Biso   1.000  H
  H247     1.0000 0.68560  0.38880  0.02930  Biso   1.000  H
  H248     1.0000 0.68560  0.61120  0.52930  Biso   1.000  H
  C193     1.0000 0.28560  0.53510  0.70970  Biso   1.000  C
  C194     1.0000 0.28560  0.46490  0.20970  Biso   1.000  C
  C195     1.0000 0.78560  0.03510  0.70970  Biso   1.000  C
  C196     1.0000 0.78560  0.96490  0.20970  Biso   1.000  C
  H249     1.0000 0.27770  0.53270  0.64960  Biso   1.000  H
  H250     1.0000 0.27770  0.46730  0.14960  Biso   1.000  H
  H251     1.0000 0.77770  0.03270  0.64960  Biso   1.000  H
  H252     1.0000 0.77770  0.96730  0.14960  Biso   1.000  H
  H253     1.0000 0.28670  0.47450  0.73100  Biso   1.000  H
  H254     1.0000 0.28670  0.52550  0.23100  Biso   1.000  H
  H255     1.0000 0.78670  0.97450  0.73100  Biso   1.000  H
  H256     1.0000 0.78670  0.02550  0.23100  Biso   1.000  H
  H257     1.0000 0.32080  0.56390  0.74420  Biso   1.000  H
  H258     1.0000 0.32080  0.43610  0.24420  Biso   1.000  H
  H259     1.0000 0.82080  0.06390  0.74420  Biso   1.000  H
  H260     1.0000 0.82080  0.93610  0.24420  Biso   1.000  H
  Cu1      1.0000 0.42099  0.26000  0.08399  Biso   1.000  Cu
  Cu2      1.0000 0.42099  0.74000  0.58399  Biso   1.000  Cu
  Cu3      1.0000 0.92099  0.76000  0.08399  Biso   1.000  Cu
  Cu4      1.0000 0.92099  0.24000  0.58399  Biso   1.000  Cu
  Cu5      1.0000 0.22159  0.75898  0.94562  Biso   1.000  Cu
  Cu6      1.0000 0.22159  0.24102  0.44562  Biso   1.000  Cu
  Cu7      1.0000 0.72159  0.25898  0.94562  Biso   1.000  Cu
  Cu8      1.0000 0.72159  0.74102  0.44562  Biso   1.000  Cu
  N1       1.0000 0.48320  0.12120  0.04810  Biso   1.000  N
  N2       1.0000 0.48320  0.87880  0.54810  Biso   1.000  N
  N3       1.0000 0.98320  0.62120  0.04810  Biso   1.000  N
  N4       1.0000 0.98320  0.37880  0.54810  Biso   1.000  N
  N5       1.0000 0.46810  0.20910  0.02160  Biso   1.000  N
  N6       1.0000 0.46810  0.79090  0.52160  Biso   1.000  N
  N7       1.0000 0.96810  0.70910  0.02160  Biso   1.000  N
  N8       1.0000 0.96810  0.29090  0.52160  Biso   1.000  N
  N9       1.0000 0.49830  0.09700  0.79730  Biso   1.000  N
  N10      1.0000 0.49830  0.90300  0.29730  Biso   1.000  N
  N11      1.0000 0.99830  0.59700  0.79730  Biso   1.000  N
  N12      1.0000 0.99830  0.40300  0.29730  Biso   1.000  N
  N13      1.0000 0.50270  0.13640  0.20820  Biso   1.000  N
  N14      1.0000 0.50270  0.86360  0.70820  Biso   1.000  N
  N15      1.0000 0.00270  0.63640  0.20820  Biso   1.000  N
  N16      1.0000 0.00270  0.36360  0.70820  Biso   1.000  N
  N17      1.0000 0.48550  0.22610  0.20740  Biso   1.000  N
  N18      1.0000 0.48550  0.77390  0.70740  Biso   1.000  N
  N19      1.0000 0.98550  0.72610  0.20740  Biso   1.000  N
  N20      1.0000 0.98550  0.27390  0.70740  Biso   1.000  N
  N21      1.0000 0.63410  0.18980  0.49270  Biso   1.000  N
  N22      1.0000 0.63410  0.81020  0.99270  Biso   1.000  N
  N23      1.0000 0.13410  0.68980  0.49270  Biso   1.000  N
  N24      1.0000 0.13410  0.31020  0.99270  Biso   1.000  N
  N25      1.0000 0.41420  0.06190  0.09420  Biso   1.000  N
  N26      1.0000 0.41420  0.93810  0.59420  Biso   1.000  N
  N27      1.0000 0.91420  0.56190  0.09420  Biso   1.000  N
  N28      1.0000 0.91420  0.43810  0.59420  Biso   1.000  N
  N29      1.0000 0.37780  0.12910  0.07210  Biso   1.000  N
  N30      1.0000 0.37780  0.87090  0.57210  Biso   1.000  N
  N31      1.0000 0.87780  0.62910  0.07210  Biso   1.000  N
  N32      1.0000 0.87780  0.37090  0.57210  Biso   1.000  N
  N33      1.0000 0.26530  0.86570  0.99150  Biso   1.000  N
  N34      1.0000 0.26530  0.13430  0.49150  Biso   1.000  N
  N35      1.0000 0.76530  0.36570  0.99150  Biso   1.000  N
  N36      1.0000 0.76530  0.63430  0.49150  Biso   1.000  N
  N37      1.0000 0.22580  0.56040  0.93170  Biso   1.000  N
  N38      1.0000 0.22580  0.43960  0.43170  Biso   1.000  N
  N39      1.0000 0.72580  0.06040  0.93170  Biso   1.000  N
  N40      1.0000 0.72580  0.93960  0.43170  Biso   1.000  N
  N41      1.0000 0.26360  0.63260  0.95250  Biso   1.000  N
  N42      1.0000 0.26360  0.36740  0.45250  Biso   1.000  N
  N43      1.0000 0.76360  0.13260  0.95250  Biso   1.000  N
  N44      1.0000 0.76360  0.86740  0.45250  Biso   1.000  N
  N45      1.0000 0.37940  0.36560  0.04680  Biso   1.000  N
  N46      1.0000 0.37940  0.63440  0.54680  Biso   1.000  N
  N47      1.0000 0.87940  0.86560  0.04680  Biso   1.000  N
  N48      1.0000 0.87940  0.13440  0.54680  Biso   1.000  N
  N49      1.0000 0.14120  0.64150  0.82460  Biso   1.000  N
  N50      1.0000 0.14120  0.35850  0.32460  Biso   1.000  N
  N51      1.0000 0.64120  0.14150  0.82460  Biso   1.000  N
  N52      1.0000 0.64120  0.85850  0.32460  Biso   1.000  N
  N53      1.0000 0.15900  0.72890  0.82530  Biso   1.000  N
  N54      1.0000 0.15900  0.27110  0.32530  Biso   1.000  N
  N55      1.0000 0.65900  0.22890  0.82530  Biso   1.000  N
  N56      1.0000 0.65900  0.77110  0.32530  Biso   1.000  N
  N57      1.0000 0.00890  0.69640  0.52970  Biso   1.000  N
  N58      1.0000 0.00890  0.30360  0.02970  Biso   1.000  N
  N59      1.0000 0.50890  0.19640  0.52970  Biso   1.000  N
  N60      1.0000 0.50890  0.80360  0.02970  Biso   1.000  N
  N61      1.0000 0.16010  0.61780  0.97700  Biso   1.000  N
  N62      1.0000 0.16010  0.38220  0.47700  Biso   1.000  N
  N63      1.0000 0.66010  0.11780  0.97700  Biso   1.000  N
  N64      1.0000 0.66010  0.88220  0.47700  Biso   1.000  N
  N65      1.0000 0.17790  0.70460  0.00680  Biso   1.000  N
  N66      1.0000 0.17790  0.29540  0.50680  Biso   1.000  N
  N67      1.0000 0.67790  0.20460  0.00680  Biso   1.000  N
  N68      1.0000 0.67790  0.79540  0.50680  Biso   1.000  N
  N69      1.0000 0.13070  0.59010  0.22200  Biso   1.000  N
  N70      1.0000 0.13070  0.40990  0.72200  Biso   1.000  N
  N71      1.0000 0.63070  0.09010  0.22200  Biso   1.000  N
  N72      1.0000 0.63070  0.90990  0.72200  Biso   1.000  N
  O1       1.0000 0.23480  0.59570  0.71760  Biso   1.000  O
  O2       1.0000 0.23480  0.40430  0.21760  Biso   1.000  O
  O3       1.0000 0.73480  0.09570  0.71760  Biso   1.000  O
  O4       1.0000 0.73480  0.90430  0.21760  Biso   1.000  O
  H261     1.0000 0.23230  0.57860  0.76060  Biso   1.000  H
  H262     1.0000 0.23230  0.42140  0.26060  Biso   1.000  H
  H263     1.0000 0.73230  0.07860  0.76060  Biso   1.000  H
  H264     1.0000 0.73230  0.92140  0.26060  Biso   1.000  H
