data_image0
_cell_length_a       20.649
_cell_length_b       8.9701
_cell_length_c       7.4121
_cell_angle_alpha    90
_cell_angle_beta     90
_cell_angle_gamma    90

_symmetry_space_group_name_H-M    "P 1"
_symmetry_int_tables_number       1

loop_
  _symmetry_equiv_pos_as_xyz
  'x, y, z'

loop_
  _atom_site_label
  _atom_site_occupancy
  _atom_site_fract_x
  _atom_site_fract_y
  _atom_site_fract_z
  _atom_site_thermal_displace_type
  _atom_site_B_iso_or_equiv
  _atom_site_type_symbol
  Cu1      1.0000 0.75000  0.00901  0.59764  Biso   1.000  Cu
  Cu2      1.0000 0.25000  0.99099  0.59764  Biso   1.000  Cu
  Cu3      1.0000 0.75000  0.50901  0.09764  Biso   1.000  Cu
  Cu4      1.0000 0.25000  0.49099  0.09764  Biso   1.000  Cu
  N1       1.0000 0.75000  0.81370  0.71470  Biso   1.000  N
  N2       1.0000 0.25000  0.18630  0.71470  Biso   1.000  N
  N3       1.0000 0.75000  0.31370  0.21470  Biso   1.000  N
  N4       1.0000 0.25000  0.68630  0.21470  Biso   1.000  N
  C1       1.0000 0.75000  0.68830  0.75020  Biso   1.000  C
  C2       1.0000 0.25000  0.31170  0.75020  Biso   1.000  C
  C3       1.0000 0.75000  0.18830  0.25020  Biso   1.000  C
  C4       1.0000 0.25000  0.81170  0.25020  Biso   1.000  C
  S1       1.0000 0.75000  0.50741  0.79195  Biso   1.000  S
  S2       1.0000 0.25000  0.49259  0.79195  Biso   1.000  S
  S3       1.0000 0.75000  0.00741  0.29195  Biso   1.000  S
  S4       1.0000 0.25000  0.99259  0.29195  Biso   1.000  S
  N5       1.0000 0.67154  0.12660  0.70120  Biso   1.000  N
  N6       1.0000 0.32846  0.87340  0.70120  Biso   1.000  N
  N7       1.0000 0.17154  0.87340  0.70120  Biso   1.000  N
  N8       1.0000 0.82846  0.12660  0.70120  Biso   1.000  N
  N9       1.0000 0.67154  0.62660  0.20120  Biso   1.000  N
  N10      1.0000 0.32846  0.37340  0.20120  Biso   1.000  N
  N11      1.0000 0.17154  0.37340  0.20120  Biso   1.000  N
  N12      1.0000 0.82846  0.62660  0.20120  Biso   1.000  N
  C5       1.0000 0.66124  0.11440  0.87890  Biso   1.000  C
  C6       1.0000 0.33876  0.88560  0.87890  Biso   1.000  C
  C7       1.0000 0.16124  0.88560  0.87890  Biso   1.000  C
  C8       1.0000 0.83876  0.11440  0.87890  Biso   1.000  C
  C9       1.0000 0.66124  0.61440  0.37890  Biso   1.000  C
  C10      1.0000 0.33876  0.38560  0.37890  Biso   1.000  C
  C11      1.0000 0.16124  0.38560  0.37890  Biso   1.000  C
  C12      1.0000 0.83876  0.61440  0.37890  Biso   1.000  C
  H1       1.0000 0.68470  0.04040  0.94320  Biso   1.000  H
  H2       1.0000 0.31530  0.95960  0.94320  Biso   1.000  H
  H3       1.0000 0.18470  0.95960  0.94320  Biso   1.000  H
  H4       1.0000 0.81530  0.04040  0.94320  Biso   1.000  H
  H5       1.0000 0.68470  0.54040  0.44320  Biso   1.000  H
  H6       1.0000 0.31530  0.45960  0.44320  Biso   1.000  H
  H7       1.0000 0.18470  0.45960  0.44320  Biso   1.000  H
  H8       1.0000 0.81530  0.54040  0.44320  Biso   1.000  H
  C13      1.0000 0.61848  0.20310  0.97420  Biso   1.000  C
  C14      1.0000 0.38152  0.79690  0.97420  Biso   1.000  C
  C15      1.0000 0.11848  0.79690  0.97420  Biso   1.000  C
  C16      1.0000 0.88152  0.20310  0.97420  Biso   1.000  C
  C17      1.0000 0.61848  0.70310  0.47420  Biso   1.000  C
  C18      1.0000 0.38152  0.29690  0.47420  Biso   1.000  C
  C19      1.0000 0.11848  0.29690  0.47420  Biso   1.000  C
  C20      1.0000 0.88152  0.70310  0.47420  Biso   1.000  C
  H9       1.0000 0.61350  0.19120  0.10080  Biso   1.000  H
  H10      1.0000 0.38650  0.80880  0.10080  Biso   1.000  H
  H11      1.0000 0.11350  0.80880  0.10080  Biso   1.000  H
  H12      1.0000 0.88650  0.19120  0.10080  Biso   1.000  H
  H13      1.0000 0.61350  0.69120  0.60080  Biso   1.000  H
  H14      1.0000 0.38650  0.30880  0.60080  Biso   1.000  H
  H15      1.0000 0.11350  0.30880  0.60080  Biso   1.000  H
  H16      1.0000 0.88650  0.69120  0.60080  Biso   1.000  H
  C21      1.0000 0.58308  0.30950  0.88140  Biso   1.000  C
  C22      1.0000 0.41692  0.69050  0.88140  Biso   1.000  C
  C23      1.0000 0.08308  0.69050  0.88140  Biso   1.000  C
  C24      1.0000 0.91692  0.30950  0.88140  Biso   1.000  C
  C25      1.0000 0.58308  0.80950  0.38140  Biso   1.000  C
  C26      1.0000 0.41692  0.19050  0.38140  Biso   1.000  C
  C27      1.0000 0.08308  0.19050  0.38140  Biso   1.000  C
  C28      1.0000 0.91692  0.80950  0.38140  Biso   1.000  C
  C29      1.0000 0.59185  0.32050  0.69630  Biso   1.000  C
  C30      1.0000 0.40815  0.67950  0.69630  Biso   1.000  C
  C31      1.0000 0.09185  0.67950  0.69630  Biso   1.000  C
  C32      1.0000 0.90815  0.32050  0.69630  Biso   1.000  C
  C33      1.0000 0.59185  0.82050  0.19630  Biso   1.000  C
  C34      1.0000 0.40815  0.17950  0.19630  Biso   1.000  C
  C35      1.0000 0.09185  0.17950  0.19630  Biso   1.000  C
  C36      1.0000 0.90815  0.82050  0.19630  Biso   1.000  C
  H17      1.0000 0.56750  0.39020  0.62760  Biso   1.000  H
  H18      1.0000 0.43250  0.60980  0.62760  Biso   1.000  H
  H19      1.0000 0.06750  0.60980  0.62760  Biso   1.000  H
  H20      1.0000 0.93250  0.39020  0.62760  Biso   1.000  H
  H21      1.0000 0.56750  0.89020  0.12760  Biso   1.000  H
  H22      1.0000 0.43250  0.10980  0.12760  Biso   1.000  H
  H23      1.0000 0.06750  0.10980  0.12760  Biso   1.000  H
  H24      1.0000 0.93250  0.89020  0.12760  Biso   1.000  H
  C37      1.0000 0.63655  0.22860  0.61330  Biso   1.000  C
  C38      1.0000 0.36345  0.77140  0.61330  Biso   1.000  C
  C39      1.0000 0.13655  0.77140  0.61330  Biso   1.000  C
  C40      1.0000 0.86345  0.22860  0.61330  Biso   1.000  C
  C41      1.0000 0.63655  0.72860  0.11330  Biso   1.000  C
  C42      1.0000 0.36345  0.27140  0.11330  Biso   1.000  C
  C43      1.0000 0.13655  0.27140  0.11330  Biso   1.000  C
  C44      1.0000 0.86345  0.72860  0.11330  Biso   1.000  C
  H25      1.0000 0.64270  0.23840  0.48680  Biso   1.000  H
  H26      1.0000 0.35730  0.76160  0.48680  Biso   1.000  H
  H27      1.0000 0.14270  0.76160  0.48680  Biso   1.000  H
  H28      1.0000 0.85730  0.23840  0.48680  Biso   1.000  H
  H29      1.0000 0.64270  0.73840  0.98680  Biso   1.000  H
  H30      1.0000 0.35730  0.26160  0.98680  Biso   1.000  H
  H31      1.0000 0.14270  0.26160  0.98680  Biso   1.000  H
  H32      1.0000 0.85730  0.73840  0.98680  Biso   1.000  H
  C45      1.0000 0.53832  0.41000  0.98010  Biso   1.000  C
  C46      1.0000 0.46168  0.59000  0.98010  Biso   1.000  C
  C47      1.0000 0.03832  0.59000  0.98010  Biso   1.000  C
  C48      1.0000 0.96168  0.41000  0.98010  Biso   1.000  C
  C49      1.0000 0.53832  0.91000  0.48010  Biso   1.000  C
  C50      1.0000 0.46168  0.09000  0.48010  Biso   1.000  C
  C51      1.0000 0.03832  0.09000  0.48010  Biso   1.000  C
  C52      1.0000 0.96168  0.91000  0.48010  Biso   1.000  C
  N13      1.0000 0.50000  0.50000  0.88320  Biso   1.000  N
  N14      1.0000 0.00000  0.50000  0.88320  Biso   1.000  N
  N15      1.0000 0.50000  0.00000  0.38320  Biso   1.000  N
  N16      1.0000 0.00000  0.00000  0.38320  Biso   1.000  N
  C53      1.0000 0.50000  0.50000  0.24100  Biso   1.000  C
  C54      1.0000 0.00000  0.50000  0.24100  Biso   1.000  C
  C55      1.0000 0.50000  0.00000  0.74100  Biso   1.000  C
  C56      1.0000 0.00000  0.00000  0.74100  Biso   1.000  C
  H33      1.0000 0.50000  0.50000  0.36920  Biso   1.000  H
  H34      1.0000 0.00000  0.50000  0.36920  Biso   1.000  H
  H35      1.0000 0.50000  0.00000  0.86920  Biso   1.000  H
  H36      1.0000 0.00000  0.00000  0.86920  Biso   1.000  H
  N17      1.0000 0.53962  0.40440  0.16030  Biso   1.000  N
  N18      1.0000 0.46038  0.59560  0.16030  Biso   1.000  N
  N19      1.0000 0.03962  0.59560  0.16030  Biso   1.000  N
  N20      1.0000 0.96038  0.40440  0.16030  Biso   1.000  N
  N21      1.0000 0.53962  0.90440  0.66030  Biso   1.000  N
  N22      1.0000 0.46038  0.09560  0.66030  Biso   1.000  N
  N23      1.0000 0.03962  0.09560  0.66030  Biso   1.000  N
  N24      1.0000 0.96038  0.90440  0.66030  Biso   1.000  N
