data_image0
_cell_length_a       5.696
_cell_length_b       8.4957
_cell_length_c       14.178
_cell_angle_alpha    83.643
_cell_angle_beta     82.941
_cell_angle_gamma    84.974

_symmetry_space_group_name_H-M    "P 1"
_symmetry_int_tables_number       1

loop_
  _symmetry_equiv_pos_as_xyz
  'x, y, z'

loop_
  _atom_site_label
  _atom_site_occupancy
  _atom_site_fract_x
  _atom_site_fract_y
  _atom_site_fract_z
  _atom_site_thermal_displace_type
  _atom_site_B_iso_or_equiv
  _atom_site_type_symbol
  Cu1      1.0000 0.39204  0.66040  0.49513  Biso   1.000  Cu
  Cu2      1.0000 0.60796  0.33960  0.50487  Biso   1.000  Cu
  S1       1.0000 0.62318  0.54809  0.62139  Biso   1.000  S
  S2       1.0000 0.37682  0.45191  0.37861  Biso   1.000  S
  C1       1.0000 0.88400  0.61960  0.58277  Biso   1.000  C
  C2       1.0000 0.11600  0.38040  0.41723  Biso   1.000  C
  N1       1.0000 0.06740  0.66610  0.55495  Biso   1.000  N
  N2       1.0000 0.93260  0.33390  0.44505  Biso   1.000  N
  N3       1.0000 0.58730  0.80960  0.40589  Biso   1.000  N
  N4       1.0000 0.41270  0.19040  0.59411  Biso   1.000  N
  C3       1.0000 0.51840  0.96380  0.38486  Biso   1.000  C
  C4       1.0000 0.48160  0.03620  0.61514  Biso   1.000  C
  H1       1.0000 0.36660  0.00280  0.41210  Biso   1.000  H
  H2       1.0000 0.63340  0.99720  0.58790  Biso   1.000  H
  C5       1.0000 0.65630  0.06800  0.32605  Biso   1.000  C
  C6       1.0000 0.34370  0.93200  0.67395  Biso   1.000  C
  H3       1.0000 0.60010  0.17600  0.31350  Biso   1.000  H
  H4       1.0000 0.39990  0.82400  0.68650  Biso   1.000  H
  C7       1.0000 0.87940  0.01340  0.28512  Biso   1.000  C
  C8       1.0000 0.12060  0.98660  0.71488  Biso   1.000  C
  C9       1.0000 0.95390  0.85480  0.30665  Biso   1.000  C
  C10      1.0000 0.04610  0.14520  0.69335  Biso   1.000  C
  H5       1.0000 0.10570  0.81360  0.28080  Biso   1.000  H
  H6       1.0000 0.89430  0.18640  0.71920  Biso   1.000  H
  C11      1.0000 0.80500  0.75810  0.36593  Biso   1.000  C
  C12      1.0000 0.19500  0.24190  0.63407  Biso   1.000  C
  H7       1.0000 0.85760  0.64960  0.37950  Biso   1.000  H
  H8       1.0000 0.14240  0.35040  0.62050  Biso   1.000  H
  C13      1.0000 0.02900  0.12270  0.21974  Biso   1.000  C
  C14      1.0000 0.97100  0.87730  0.78026  Biso   1.000  C
  N5       1.0000 0.93930  0.27190  0.20095  Biso   1.000  N
  N6       1.0000 0.06070  0.72810  0.79905  Biso   1.000  N
  C15      1.0000 0.08350  0.36800  0.14470  Biso   1.000  C
  C16      1.0000 0.91650  0.63200  0.85530  Biso   1.000  C
  N7       1.0000 0.30500  0.32410  0.10743  Biso   1.000  N
  N8       1.0000 0.69500  0.67590  0.89257  Biso   1.000  N
  C17      1.0000 0.37170  0.17130  0.12895  Biso   1.000  C
  C18      1.0000 0.62830  0.82870  0.87105  Biso   1.000  C
  H9       1.0000 0.52530  0.13490  0.10220  Biso   1.000  H
  H10      1.0000 0.47470  0.86510  0.89780  Biso   1.000  H
  N9       1.0000 0.24480  0.06430  0.18414  Biso   1.000  N
  N10      1.0000 0.75520  0.93570  0.81586  Biso   1.000  N
  C19      1.0000 0.99220  0.53530  0.12265  Biso   1.000  C
  C20      1.0000 0.00780  0.46470  0.87735  Biso   1.000  C
  C21      1.0000 0.13520  0.64600  0.06942  Biso   1.000  C
  C22      1.0000 0.86480  0.35400  0.93058  Biso   1.000  C
  H11      1.0000 0.29370  0.61560  0.04520  Biso   1.000  H
  H12      1.0000 0.70630  0.38440  0.95480  Biso   1.000  H
  C23      1.0000 0.04160  0.80110  0.05262  Biso   1.000  C
  C24      1.0000 0.95840  0.19890  0.94738  Biso   1.000  C
  H13      1.0000 0.14130  0.87590  0.01710  Biso   1.000  H
  H14      1.0000 0.85870  0.12410  0.98290  Biso   1.000  H
  N11      1.0000 0.81830  0.85240  0.08343  Biso   1.000  N
  N12      1.0000 0.18170  0.14760  0.91657  Biso   1.000  N
  C25      1.0000 0.68290  0.74460  0.13314  Biso   1.000  C
  C26      1.0000 0.31710  0.25540  0.86686  Biso   1.000  C
  H15      1.0000 0.52420  0.77820  0.15540  Biso   1.000  H
  H16      1.0000 0.47580  0.22180  0.84460  Biso   1.000  H
  C27      1.0000 0.75910  0.58580  0.15457  Biso   1.000  C
  C28      1.0000 0.24090  0.41420  0.84543  Biso   1.000  C
  H17      1.0000 0.65500  0.51370  0.19010  Biso   1.000  H
  H18      1.0000 0.34500  0.48630  0.80990  Biso   1.000  H
