data_image0
_cell_length_a       11.556
_cell_length_b       13.451
_cell_length_c       16.43
_cell_angle_alpha    91
_cell_angle_beta     107
_cell_angle_gamma    95.16

_symmetry_space_group_name_H-M    "P 1"
_symmetry_int_tables_number       1

loop_
  _symmetry_equiv_pos_as_xyz
  'x, y, z'

loop_
  _atom_site_label
  _atom_site_occupancy
  _atom_site_fract_x
  _atom_site_fract_y
  _atom_site_fract_z
  _atom_site_thermal_displace_type
  _atom_site_B_iso_or_equiv
  _atom_site_type_symbol
  Cu1      1.0000 0.00000  0.00000  0.50000  Biso   1.000  Cu
  Cu2      1.0000 0.19885  0.11531  0.85707  Biso   1.000  Cu
  Cu3      1.0000 0.80115  0.88469  0.14293  Biso   1.000  Cu
  Cu4      1.0000 0.30636  0.42574  0.12268  Biso   1.000  Cu
  Cu5      1.0000 0.69364  0.57426  0.87732  Biso   1.000  Cu
  Cu6      1.0000 0.38311  0.71558  0.39971  Biso   1.000  Cu
  Cu7      1.0000 0.61689  0.28442  0.60029  Biso   1.000  Cu
  Cu8      1.0000 0.64253  0.95264  0.70747  Biso   1.000  Cu
  Cu9      1.0000 0.35747  0.04736  0.29253  Biso   1.000  Cu
  Cu10     1.0000 0.76453  0.19786  0.01151  Biso   1.000  Cu
  Cu11     1.0000 0.23547  0.80214  0.98849  Biso   1.000  Cu
  Cu12     1.0000 0.83780  0.38750  0.34440  Biso   1.000  Cu
  Cu13     1.0000 0.16220  0.61250  0.65560  Biso   1.000  Cu
  N1       1.0000 0.07470  0.99850  0.61580  Biso   1.000  N
  N2       1.0000 0.92530  0.00150  0.38420  Biso   1.000  N
  N3       1.0000 0.15410  0.04200  0.75340  Biso   1.000  N
  N4       1.0000 0.84590  0.95800  0.24660  Biso   1.000  N
  N5       1.0000 0.24380  0.18450  0.96130  Biso   1.000  N
  N6       1.0000 0.75620  0.81550  0.03870  Biso   1.000  N
  N7       1.0000 0.29490  0.30390  0.06460  Biso   1.000  N
  N8       1.0000 0.70510  0.69610  0.93540  Biso   1.000  N
  N9       1.0000 0.30060  0.54030  0.18480  Biso   1.000  N
  N10      1.0000 0.69940  0.45970  0.81520  Biso   1.000  N
  N11      1.0000 0.32710  0.64860  0.29330  Biso   1.000  N
  N12      1.0000 0.67290  0.35140  0.70670  Biso   1.000  N
  N13      1.0000 0.43070  0.77930  0.50740  Biso   1.000  N
  N14      1.0000 0.56930  0.22070  0.49260  Biso   1.000  N
  N15      1.0000 0.53310  0.86770  0.62620  Biso   1.000  N
  N16      1.0000 0.46690  0.13230  0.37380  Biso   1.000  N
  N17      1.0000 0.73640  0.03680  0.79660  Biso   1.000  N
  N18      1.0000 0.26360  0.96320  0.20340  Biso   1.000  N
  N19      1.0000 0.78150  0.12850  0.91750  Biso   1.000  N
  N20      1.0000 0.21850  0.87150  0.08250  Biso   1.000  N
  N21      1.0000 0.74380  0.26110  0.10630  Biso   1.000  N
  N22      1.0000 0.25620  0.73890  0.89370  Biso   1.000  N
  N23      1.0000 0.78120  0.33750  0.23440  Biso   1.000  N
  N24      1.0000 0.21880  0.66250  0.76560  Biso   1.000  N
  C1       1.0000 0.13540  0.92260  0.65530  Biso   1.000  C
  C2       1.0000 0.86460  0.07740  0.34470  Biso   1.000  C
  H1       1.0000 0.14330  0.86290  0.62890  Biso   1.000  H
  H2       1.0000 0.85670  0.13710  0.37110  Biso   1.000  H
  C3       1.0000 0.18170  0.94760  0.73800  Biso   1.000  C
  C4       1.0000 0.81830  0.05240  0.26200  Biso   1.000  C
  H3       1.0000 0.22580  0.90750  0.77900  Biso   1.000  H
  H4       1.0000 0.77420  0.09250  0.22100  Biso   1.000  H
  C5       1.0000 0.08810  0.06840  0.67820  Biso   1.000  C
  C6       1.0000 0.91190  0.93160  0.32180  Biso   1.000  C
  C7       1.0000 0.25350  0.14270  0.03750  Biso   1.000  C
  C8       1.0000 0.74650  0.85730  0.96250  Biso   1.000  C
  H5       1.0000 0.24120  0.07470  0.04540  Biso   1.000  H
  H6       1.0000 0.75880  0.92530  0.95460  Biso   1.000  H
  C9       1.0000 0.28410  0.21580  0.10020  Biso   1.000  C
  C10      1.0000 0.71590  0.78420  0.89980  Biso   1.000  C
  H7       1.0000 0.29550  0.20650  0.15780  Biso   1.000  H
  H8       1.0000 0.70450  0.79350  0.84220  Biso   1.000  H
  C11      1.0000 0.26970  0.28200  0.98030  Biso   1.000  C
  C12      1.0000 0.73030  0.71800  0.01970  Biso   1.000  C
  C13      1.0000 0.21860  0.60840  0.16140  Biso   1.000  C
  C14      1.0000 0.78140  0.39160  0.83860  Biso   1.000  C
  H9       1.0000 0.16050  0.60890  0.10850  Biso   1.000  H
  H10      1.0000 0.83950  0.39110  0.89150  Biso   1.000  H
  C15      1.0000 0.23460  0.67510  0.22690  Biso   1.000  C
  C16      1.0000 0.76540  0.32490  0.77310  Biso   1.000  C
  H11      1.0000 0.19040  0.72960  0.22680  Biso   1.000  H
  H12      1.0000 0.80960  0.27040  0.77320  Biso   1.000  H
  C17      1.0000 0.36600  0.56800  0.26530  Biso   1.000  C
  C18      1.0000 0.63400  0.43200  0.73470  Biso   1.000  C
  C19      1.0000 0.35780  0.78290  0.55970  Biso   1.000  C
  C20      1.0000 0.64220  0.21710  0.44030  Biso   1.000  C
  H13      1.0000 0.27830  0.75340  0.54750  Biso   1.000  H
  H14      1.0000 0.72170  0.24660  0.45250  Biso   1.000  H
  C21      1.0000 0.41960  0.83550  0.63050  Biso   1.000  C
  C22      1.0000 0.58040  0.16450  0.36950  Biso   1.000  C
  H15      1.0000 0.39010  0.84850  0.67620  Biso   1.000  H
  H16      1.0000 0.60990  0.15150  0.32380  Biso   1.000  H
  C23      1.0000 0.53500  0.82980  0.55000  Biso   1.000  C
  C24      1.0000 0.46500  0.17020  0.45000  Biso   1.000  C
  C25      1.0000 0.86090  0.04970  0.83190  Biso   1.000  C
  C26      1.0000 0.13910  0.95030  0.16810  Biso   1.000  C
  H17      1.0000 0.91730  0.02430  0.80880  Biso   1.000  H
  H18      1.0000 0.08270  0.97570  0.19120  Biso   1.000  H
  C27      1.0000 0.88700  0.10410  0.90430  Biso   1.000  C
  C28      1.0000 0.11300  0.89590  0.09570  Biso   1.000  C
  H19      1.0000 0.96490  0.12260  0.94040  Biso   1.000  H
  H20      1.0000 0.03510  0.87740  0.05960  Biso   1.000  H
  C29      1.0000 0.69250  0.08710  0.85250  Biso   1.000  C
  C30      1.0000 0.30750  0.91290  0.14750  Biso   1.000  C
  C31      1.0000 0.63810  0.26400  0.12590  Biso   1.000  C
  C32      1.0000 0.36190  0.73600  0.87410  Biso   1.000  C
  H21      1.0000 0.56190  0.23830  0.09110  Biso   1.000  H
  H22      1.0000 0.43810  0.76170  0.90890  Biso   1.000  H
  C33      1.0000 0.65940  0.30900  0.20210  Biso   1.000  C
  C34      1.0000 0.34060  0.69100  0.79790  Biso   1.000  C
  H23      1.0000 0.60090  0.31950  0.22920  Biso   1.000  H
  H24      1.0000 0.39910  0.68050  0.77080  Biso   1.000  H
  C35      1.0000 0.82940  0.30660  0.17290  Biso   1.000  C
  C36      1.0000 0.17060  0.69340  0.82710  Biso   1.000  C
  C37      1.0000 0.81300  0.44110  0.50710  Biso   1.000  C
  C38      1.0000 0.18700  0.55890  0.49290  Biso   1.000  C
  H25      1.0000 0.73290  0.41260  0.49330  Biso   1.000  H
  H26      1.0000 0.26710  0.58740  0.50670  Biso   1.000  H
  C39      1.0000 0.88070  0.49020  0.58620  Biso   1.000  C
  C40      1.0000 0.11930  0.50980  0.41380  Biso   1.000  C
  H27      1.0000 0.85280  0.49950  0.63310  Biso   1.000  H
  H28      1.0000 0.14720  0.50050  0.36690  Biso   1.000  H
  N25      1.0000 0.99860  0.52250  0.58090  Biso   1.000  N
  N26      1.0000 0.00140  0.47750  0.41910  Biso   1.000  N
  C41      1.0000 0.00370  0.49340  0.49860  Biso   1.000  C
  C42      1.0000 0.99630  0.50660  0.50140  Biso   1.000  C
  N27      1.0000 0.88900  0.44310  0.45300  Biso   1.000  N
  N28      1.0000 0.11100  0.55690  0.54700  Biso   1.000  N
  C43      1.0000 0.03340  0.16620  0.66920  Biso   1.000  C
  C44      1.0000 0.96660  0.83380  0.33080  Biso   1.000  C
  H29      1.0000 0.03980  0.19410  0.72610  Biso   1.000  H
  H30      1.0000 0.96020  0.80590  0.27390  Biso   1.000  H
  C45      1.0000 0.90050  0.15480  0.61630  Biso   1.000  C
  C46      1.0000 0.09950  0.84520  0.38370  Biso   1.000  C
  H31      1.0000 0.85400  0.11320  0.64470  Biso   1.000  H
  H32      1.0000 0.14600  0.88680  0.35530  Biso   1.000  H
  H33      1.0000 0.89300  0.12470  0.56140  Biso   1.000  H
  H34      1.0000 0.10700  0.87530  0.43860  Biso   1.000  H
  H35      1.0000 0.87050  0.21940  0.60940  Biso   1.000  H
  H36      1.0000 0.12950  0.78060  0.39060  Biso   1.000  H
  C47      1.0000 0.11040  0.23450  0.62880  Biso   1.000  C
  C48      1.0000 0.88960  0.76550  0.37120  Biso   1.000  C
  H37      1.0000 0.19390  0.23840  0.66270  Biso   1.000  H
  H38      1.0000 0.80610  0.76160  0.33730  Biso   1.000  H
  H39      1.0000 0.08300  0.30010  0.62540  Biso   1.000  H
  H40      1.0000 0.91700  0.69990  0.37460  Biso   1.000  H
  H41      1.0000 0.10290  0.20850  0.57250  Biso   1.000  H
  H42      1.0000 0.89710  0.79150  0.42750  Biso   1.000  H
  C49      1.0000 0.24400  0.35670  0.91050  Biso   1.000  C
  C50      1.0000 0.75600  0.64330  0.08950  Biso   1.000  C
  H43      1.0000 0.26140  0.32030  0.86380  Biso   1.000  H
  H44      1.0000 0.73860  0.67970  0.13620  Biso   1.000  H
  C51      1.0000 0.11900  0.37400  0.87300  Biso   1.000  C
  C52      1.0000 0.88100  0.62600  0.12700  Biso   1.000  C
  H45      1.0000 0.11400  0.42360  0.83040  Biso   1.000  H
  H46      1.0000 0.88600  0.57640  0.16960  Biso   1.000  H
  H47      1.0000 0.08610  0.39810  0.91590  Biso   1.000  H
  H48      1.0000 0.91390  0.60190  0.08410  Biso   1.000  H
  H49      1.0000 0.07270  0.31320  0.84620  Biso   1.000  H
  H50      1.0000 0.92730  0.68680  0.15380  Biso   1.000  H
  C53      1.0000 0.34200  0.43600  0.93200  Biso   1.000  C
  C54      1.0000 0.65800  0.56400  0.06800  Biso   1.000  C
  H51      1.0000 0.32740  0.48460  0.88910  Biso   1.000  H
  H52      1.0000 0.67260  0.51540  0.11090  Biso   1.000  H
  H53      1.0000 0.41750  0.40890  0.93560  Biso   1.000  H
  H54      1.0000 0.58250  0.59110  0.06440  Biso   1.000  H
  H55      1.0000 0.34710  0.46740  0.98620  Biso   1.000  H
  H56      1.0000 0.65290  0.53260  0.01380  Biso   1.000  H
  C55      1.0000 0.46510  0.52100  0.32680  Biso   1.000  C
  C56      1.0000 0.53490  0.47900  0.67320  Biso   1.000  C
  H57      1.0000 0.48160  0.55430  0.38310  Biso   1.000  H
  H58      1.0000 0.51840  0.44570  0.61690  Biso   1.000  H
  C57      1.0000 0.42700  0.41050  0.33270  Biso   1.000  C
  C58      1.0000 0.57300  0.58950  0.66730  Biso   1.000  C
  H59      1.0000 0.35760  0.40370  0.35380  Biso   1.000  H
  H60      1.0000 0.64240  0.59630  0.64620  Biso   1.000  H
  H61      1.0000 0.49300  0.38050  0.37090  Biso   1.000  H
  H62      1.0000 0.50700  0.61950  0.62910  Biso   1.000  H
  H63      1.0000 0.40660  0.37770  0.27730  Biso   1.000  H
  H64      1.0000 0.59340  0.62230  0.72270  Biso   1.000  H
  C59      1.0000 0.58000  0.53390  0.29900  Biso   1.000  C
  C60      1.0000 0.42000  0.46610  0.70100  Biso   1.000  C
  H65      1.0000 0.60270  0.60380  0.29570  Biso   1.000  H
  H66      1.0000 0.39730  0.39620  0.70430  Biso   1.000  H
  H67      1.0000 0.56500  0.50090  0.24420  Biso   1.000  H
  H68      1.0000 0.43500  0.49910  0.75580  Biso   1.000  H
  H69      1.0000 0.64450  0.50530  0.33980  Biso   1.000  H
  H70      1.0000 0.35550  0.49470  0.66020  Biso   1.000  H
  C61      1.0000 0.64290  0.83900  0.51380  Biso   1.000  C
  C62      1.0000 0.35710  0.16100  0.48620  Biso   1.000  C
  H71      1.0000 0.63390  0.78610  0.46990  Biso   1.000  H
  H72      1.0000 0.36610  0.21390  0.53010  Biso   1.000  H
  C63      1.0000 0.64590  0.94030  0.47700  Biso   1.000  C
  C64      1.0000 0.35410  0.05970  0.52300  Biso   1.000  C
  H73      1.0000 0.71450  0.95020  0.45520  Biso   1.000  H
  H74      1.0000 0.28550  0.04980  0.54480  Biso   1.000  H
  H75      1.0000 0.65270  0.99080  0.52060  Biso   1.000  H
  H76      1.0000 0.34730  0.00920  0.47940  Biso   1.000  H
  H77      1.0000 0.57230  0.94460  0.43160  Biso   1.000  H
  H78      1.0000 0.42770  0.05540  0.56840  Biso   1.000  H
  C65      1.0000 0.76250  0.83780  0.58300  Biso   1.000  C
  C66      1.0000 0.23750  0.16220  0.41700  Biso   1.000  C
  H79      1.0000 0.82840  0.84720  0.55850  Biso   1.000  H
  H80      1.0000 0.17160  0.15280  0.44150  Biso   1.000  H
  H81      1.0000 0.76480  0.77480  0.60970  Biso   1.000  H
  H82      1.0000 0.23520  0.22520  0.39030  Biso   1.000  H
  H83      1.0000 0.77020  0.89080  0.62480  Biso   1.000  H
  H84      1.0000 0.22980  0.10920  0.37520  Biso   1.000  H
  C67      1.0000 0.55680  0.08730  0.83100  Biso   1.000  C
  C68      1.0000 0.44320  0.91270  0.16900  Biso   1.000  C
  H85      1.0000 0.51560  0.05010  0.77700  Biso   1.000  H
  H86      1.0000 0.48440  0.94990  0.22300  Biso   1.000  H
  C69      1.0000 0.52240  0.03910  0.90380  Biso   1.000  C
  C70      1.0000 0.47760  0.96090  0.09620  Biso   1.000  C
  H87      1.0000 0.43700  0.04140  0.89560  Biso   1.000  H
  H88      1.0000 0.56300  0.95860  0.10440  Biso   1.000  H
  H89      1.0000 0.56770  0.07430  0.95630  Biso   1.000  H
  H90      1.0000 0.43230  0.92570  0.04370  Biso   1.000  H
  H91      1.0000 0.54060  0.97070  0.90580  Biso   1.000  H
  H92      1.0000 0.45940  0.02930  0.09420  Biso   1.000  H
  C71      1.0000 0.51910  0.19270  0.82940  Biso   1.000  C
  C72      1.0000 0.48090  0.80730  0.17060  Biso   1.000  C
  H93      1.0000 0.43290  0.18980  0.82020  Biso   1.000  H
  H94      1.0000 0.56710  0.81020  0.17980  Biso   1.000  H
  H95      1.0000 0.53980  0.22710  0.78410  Biso   1.000  H
  H96      1.0000 0.46020  0.77290  0.21590  Biso   1.000  H
  H97      1.0000 0.56070  0.22770  0.88280  Biso   1.000  H
  H98      1.0000 0.43930  0.77230  0.11720  Biso   1.000  H
  C73      1.0000 0.95800  0.33390  0.17260  Biso   1.000  C
  C74      1.0000 0.04200  0.66610  0.82740  Biso   1.000  C
  H99      1.0000 0.98760  0.39320  0.21120  Biso   1.000  H
  H100     1.0000 0.01240  0.60680  0.78880  Biso   1.000  H
  C75      1.0000 0.97920  0.36170  0.08990  Biso   1.000  C
  C76      1.0000 0.02080  0.63830  0.91010  Biso   1.000  C
  H101     1.0000 0.93110  0.41470  0.06660  Biso   1.000  H
  H102     1.0000 0.06890  0.58530  0.93340  Biso   1.000  H
  H103     1.0000 0.95640  0.30460  0.05060  Biso   1.000  H
  H104     1.0000 0.04360  0.69540  0.94940  Biso   1.000  H
  H105     1.0000 0.06370  0.38340  0.09950  Biso   1.000  H
  H106     1.0000 0.93630  0.61660  0.90050  Biso   1.000  H
  C77      1.0000 0.03370  0.25340  0.21260  Biso   1.000  C
  C78      1.0000 0.96630  0.74660  0.78740  Biso   1.000  C
  H107     1.0000 0.02730  0.24400  0.26890  Biso   1.000  H
  H108     1.0000 0.97270  0.75600  0.73110  Biso   1.000  H
  H109     1.0000 0.11710  0.27210  0.21570  Biso   1.000  H
  H110     1.0000 0.88290  0.72790  0.78430  Biso   1.000  H
  H111     1.0000 0.00550  0.19220  0.17880  Biso   1.000  H
  H112     1.0000 0.99450  0.80780  0.82120  Biso   1.000  H
  C79      1.0000 0.11500  0.49600  0.47700  Biso   1.000  C
  C80      1.0000 0.88500  0.50400  0.52300  Biso   1.000  C
  H113     1.0000 0.18170  0.53210  0.52130  Biso   1.000  H
  H114     1.0000 0.81830  0.46790  0.47870  Biso   1.000  H
  C81      1.0000 0.14900  0.39600  0.45900  Biso   1.000  C
  C82      1.0000 0.85100  0.60400  0.54100  Biso   1.000  C
  H115     1.0000 0.16870  0.35990  0.51020  Biso   1.000  H
  H116     1.0000 0.83130  0.64010  0.48980  Biso   1.000  H
  H117     1.0000 0.21770  0.40290  0.43710  Biso   1.000  H
  H118     1.0000 0.78230  0.59710  0.56290  Biso   1.000  H
  H119     1.0000 0.08140  0.35920  0.41700  Biso   1.000  H
  H120     1.0000 0.91860  0.64080  0.58300  Biso   1.000  H
  C83      1.0000 0.08800  0.55200  0.39800  Biso   1.000  C
  C84      1.0000 0.91200  0.44800  0.60200  Biso   1.000  C
  H121     1.0000 0.07620  0.61940  0.41070  Biso   1.000  H
  H122     1.0000 0.92380  0.38060  0.58930  Biso   1.000  H
  H123     1.0000 0.01610  0.52070  0.35710  Biso   1.000  H
  H124     1.0000 0.98390  0.47930  0.64290  Biso   1.000  H
  H125     1.0000 0.15530  0.55240  0.37420  Biso   1.000  H
  H126     1.0000 0.84470  0.44760  0.62580  Biso   1.000  H
  C85      1.0000 0.05800  0.17200  0.65100  Biso   1.000  C
  C86      1.0000 0.94200  0.82800  0.34900  Biso   1.000  C
  H127     1.0000 0.05020  0.16400  0.59050  Biso   1.000  H
  H128     1.0000 0.94980  0.83600  0.40950  Biso   1.000  H
  C87      1.0000 0.92700  0.18700  0.64500  Biso   1.000  C
  C88      1.0000 0.07300  0.81300  0.35500  Biso   1.000  C
  H129     1.0000 0.88830  0.12740  0.66080  Biso   1.000  H
  H130     1.0000 0.11170  0.87260  0.33920  Biso   1.000  H
  H131     1.0000 0.88440  0.20140  0.58760  Biso   1.000  H
  H132     1.0000 0.11560  0.79860  0.41240  Biso   1.000  H
  H133     1.0000 0.92540  0.24190  0.68280  Biso   1.000  H
  H134     1.0000 0.07460  0.75810  0.31720  Biso   1.000  H
  C89      1.0000 0.13900  0.27000  0.67200  Biso   1.000  C
  C90      1.0000 0.86100  0.73000  0.32800  Biso   1.000  C
  H135     1.0000 0.21770  0.25840  0.70840  Biso   1.000  H
  H136     1.0000 0.78230  0.74160  0.29160  Biso   1.000  H
  H137     1.0000 0.10320  0.31630  0.70020  Biso   1.000  H
  H138     1.0000 0.89680  0.68370  0.29980  Biso   1.000  H
  H139     1.0000 0.14730  0.29750  0.62010  Biso   1.000  H
  H140     1.0000 0.85270  0.70250  0.37990  Biso   1.000  H
  C91      1.0000 0.29500  0.36100  0.92100  Biso   1.000  C
  C92      1.0000 0.70500  0.63900  0.07900  Biso   1.000  C
  H141     1.0000 0.28050  0.31770  0.86990  Biso   1.000  H
  H142     1.0000 0.71950  0.68230  0.13010  Biso   1.000  H
  C93      1.0000 0.19000  0.41600  0.89400  Biso   1.000  C
  C94      1.0000 0.81000  0.58400  0.10600  Biso   1.000  C
  H143     1.0000 0.20110  0.46160  0.85150  Biso   1.000  H
  H144     1.0000 0.79890  0.53840  0.14850  Biso   1.000  H
  H145     1.0000 0.18020  0.45270  0.94130  Biso   1.000  H
  H146     1.0000 0.81980  0.54730  0.05870  Biso   1.000  H
  H147     1.0000 0.11860  0.37040  0.86910  Biso   1.000  H
  H148     1.0000 0.88140  0.62960  0.13090  Biso   1.000  H
  C95      1.0000 0.41700  0.40200  0.92900  Biso   1.000  C
  C96      1.0000 0.58300  0.59800  0.07100  Biso   1.000  C
  H149     1.0000 0.41600  0.44580  0.88360  Biso   1.000  H
  H150     1.0000 0.58400  0.55420  0.11640  Biso   1.000  H
  H151     1.0000 0.46570  0.34860  0.92600  Biso   1.000  H
  H152     1.0000 0.53430  0.65140  0.07400  Biso   1.000  H
  H153     1.0000 0.45030  0.43840  0.98280  Biso   1.000  H
  H154     1.0000 0.54970  0.56160  0.01720  Biso   1.000  H
  C97      1.0000 0.47300  0.51100  0.30400  Biso   1.000  C
  C98      1.0000 0.52700  0.48900  0.69600  Biso   1.000  C
  H155     1.0000 0.47960  0.46030  0.26230  Biso   1.000  H
  H156     1.0000 0.52040  0.53970  0.73770  Biso   1.000  H
  C99      1.0000 0.45100  0.46100  0.38140  Biso   1.000  C
  C100     1.0000 0.54900  0.53900  0.61860  Biso   1.000  C
  H157     1.0000 0.37520  0.41890  0.36430  Biso   1.000  H
  H158     1.0000 0.62480  0.58110  0.63570  Biso   1.000  H
  H159     1.0000 0.44780  0.51080  0.42280  Biso   1.000  H
  H160     1.0000 0.55220  0.48920  0.57720  Biso   1.000  H
  H161     1.0000 0.51600  0.42070  0.40590  Biso   1.000  H
  H162     1.0000 0.48400  0.57930  0.59410  Biso   1.000  H
  C101     1.0000 0.58800  0.58300  0.33100  Biso   1.000  C
  C102     1.0000 0.41200  0.41700  0.66900  Biso   1.000  C
  H163     1.0000 0.59970  0.61550  0.28220  Biso   1.000  H
  H164     1.0000 0.40030  0.38450  0.71780  Biso   1.000  H
  H165     1.0000 0.65640  0.54660  0.35640  Biso   1.000  H
  H166     1.0000 0.34360  0.45340  0.64360  Biso   1.000  H
  H167     1.0000 0.58050  0.63210  0.37180  Biso   1.000  H
  H168     1.0000 0.41950  0.36790  0.62820  Biso   1.000  H
  C103     1.0000 0.64600  0.87100  0.52300  Biso   1.000  C
  C104     1.0000 0.35400  0.12900  0.47700  Biso   1.000  C
  H169     1.0000 0.67750  0.93780  0.54990  Biso   1.000  H
  H170     1.0000 0.32250  0.06220  0.45010  Biso   1.000  H
  C105     1.0000 0.61500  0.87300  0.42800  Biso   1.000  C
  C106     1.0000 0.38500  0.12700  0.57200  Biso   1.000  C
  H171     1.0000 0.68920  0.87620  0.41160  Biso   1.000  H
  H172     1.0000 0.31080  0.12380  0.58840  Biso   1.000  H
  H173     1.0000 0.57320  0.93010  0.40800  Biso   1.000  H
  H174     1.0000 0.42680  0.06990  0.59200  Biso   1.000  H
  H175     1.0000 0.56480  0.81310  0.40240  Biso   1.000  H
  H176     1.0000 0.43520  0.18690  0.59760  Biso   1.000  H
  C107     1.0000 0.73900  0.79700  0.55100  Biso   1.000  C
  C108     1.0000 0.26100  0.20300  0.44900  Biso   1.000  C
  H177     1.0000 0.79250  0.80140  0.51640  Biso   1.000  H
  H178     1.0000 0.20750  0.19860  0.48360  Biso   1.000  H
  H179     1.0000 0.69830  0.73100  0.54600  Biso   1.000  H
  H180     1.0000 0.30170  0.26900  0.45400  Biso   1.000  H
  H181     1.0000 0.78510  0.81260  0.60990  Biso   1.000  H
  H182     1.0000 0.21490  0.18740  0.39010  Biso   1.000  H
  C109     1.0000 0.56520  0.10000  0.85420  Biso   1.000  C
  C110     1.0000 0.43480  0.90000  0.14580  Biso   1.000  C
  H183     1.0000 0.56880  0.15510  0.89450  Biso   1.000  H
  H184     1.0000 0.43120  0.84490  0.10550  Biso   1.000  H
  C111     1.0000 0.48900  0.01100  0.87400  Biso   1.000  C
  C112     1.0000 0.51100  0.98900  0.12600  Biso   1.000  C
  H185     1.0000 0.40440  0.01780  0.84700  Biso   1.000  H
  H186     1.0000 0.59560  0.98220  0.15300  Biso   1.000  H
  H187     1.0000 0.50330  0.00950  0.93460  Biso   1.000  H
  H188     1.0000 0.49670  0.99050  0.06540  Biso   1.000  H
  H189     1.0000 0.51040  0.95070  0.85320  Biso   1.000  H
  H190     1.0000 0.48960  0.04930  0.14680  Biso   1.000  H
  C113     1.0000 0.49700  0.12900  0.76600  Biso   1.000  C
  C114     1.0000 0.50300  0.87100  0.23400  Biso   1.000  C
  H191     1.0000 0.41150  0.12360  0.75950  Biso   1.000  H
  H192     1.0000 0.58850  0.87640  0.24050  Biso   1.000  H
  H193     1.0000 0.51200  0.08470  0.72400  Biso   1.000  H
  H194     1.0000 0.48800  0.91530  0.27600  Biso   1.000  H
  H195     1.0000 0.52450  0.19620  0.75740  Biso   1.000  H
  H196     1.0000 0.47550  0.80380  0.24260  Biso   1.000  H
  C115     1.0000 0.96400  0.29400  0.20300  Biso   1.000  C
  C116     1.0000 0.03600  0.70600  0.79700  Biso   1.000  C
  H197     1.0000 0.99120  0.30400  0.26540  Biso   1.000  H
  H198     1.0000 0.00880  0.69600  0.73460  Biso   1.000  H
  C117     1.0000 0.01700  0.38300  0.16700  Biso   1.000  C
  C118     1.0000 0.98300  0.61700  0.83300  Biso   1.000  C
  H199     1.0000 0.97740  0.44030  0.17510  Biso   1.000  H
  H200     1.0000 0.02260  0.55970  0.82490  Biso   1.000  H
  H201     1.0000 0.00360  0.36950  0.10720  Biso   1.000  H
  H202     1.0000 0.99640  0.63050  0.89280  Biso   1.000  H
  H203     1.0000 0.10210  0.39430  0.19540  Biso   1.000  H
  H204     1.0000 0.89790  0.60570  0.80460  Biso   1.000  H
  C119     1.0000 0.00900  0.20000  0.18100  Biso   1.000  C
  C120     1.0000 0.99100  0.80000  0.81900  Biso   1.000  C
  H205     1.0000 0.99850  0.14940  0.21950  Biso   1.000  H
  H206     1.0000 0.00150  0.85060  0.78050  Biso   1.000  H
  H207     1.0000 0.09370  0.21170  0.18480  Biso   1.000  H
  H208     1.0000 0.90630  0.78830  0.81520  Biso   1.000  H
  H209     1.0000 0.96370  0.17690  0.12360  Biso   1.000  H
  H210     1.0000 0.03630  0.82310  0.87640  Biso   1.000  H
  C121     1.0000 0.10400  0.52900  0.46800  Biso   1.000  C
  C122     1.0000 0.89600  0.47100  0.53200  Biso   1.000  C
  H211     1.0000 0.13320  0.59790  0.48820  Biso   1.000  H
  H212     1.0000 0.86680  0.40210  0.51180  Biso   1.000  H
  C123     1.0000 0.19300  0.45900  0.51000  Biso   1.000  C
  C124     1.0000 0.80700  0.54100  0.49000  Biso   1.000  C
  H213     1.0000 0.19860  0.45750  0.56910  Biso   1.000  H
  H214     1.0000 0.80140  0.54250  0.43090  Biso   1.000  H
  H215     1.0000 0.27170  0.48230  0.50410  Biso   1.000  H
  H216     1.0000 0.72830  0.51770  0.49590  Biso   1.000  H
  H217     1.0000 0.16830  0.39370  0.48340  Biso   1.000  H
  H218     1.0000 0.83170  0.60630  0.51660  Biso   1.000  H
  C125     1.0000 0.07900  0.51800  0.37400  Biso   1.000  C
  C126     1.0000 0.92100  0.48200  0.62600  Biso   1.000  C
  H219     1.0000 0.03440  0.57120  0.34760  Biso   1.000  H
  H220     1.0000 0.96560  0.42880  0.65240  Biso   1.000  H
  H221     1.0000 0.03300  0.45490  0.35360  Biso   1.000  H
  H222     1.0000 0.96700  0.54510  0.64640  Biso   1.000  H
  H223     1.0000 0.15510  0.52040  0.36090  Biso   1.000  H
  H224     1.0000 0.84490  0.47960  0.63910  Biso   1.000  H
  Cu14     1.0000 0.11210  0.58690  0.66950  Biso   1.000  Cu
  Cu15     1.0000 0.88790  0.41310  0.33050  Biso   1.000  Cu
