data_image0
_cell_length_a       11.071
_cell_length_b       12.496
_cell_length_c       21.806
_cell_angle_alpha    90
_cell_angle_beta     92.817
_cell_angle_gamma    90

_symmetry_space_group_name_H-M    "P 1"
_symmetry_int_tables_number       1

loop_
  _symmetry_equiv_pos_as_xyz
  'x, y, z'

loop_
  _atom_site_label
  _atom_site_occupancy
  _atom_site_fract_x
  _atom_site_fract_y
  _atom_site_fract_z
  _atom_site_thermal_displace_type
  _atom_site_B_iso_or_equiv
  _atom_site_type_symbol
  Cu1      1.0000 0.15313  0.03091  0.06529  Biso   1.000  Cu
  Cu2      1.0000 0.34687  0.53091  0.43471  Biso   1.000  Cu
  Cu3      1.0000 0.84687  0.96909  0.93471  Biso   1.000  Cu
  Cu4      1.0000 0.65313  0.46909  0.56529  Biso   1.000  Cu
  Cu5      1.0000 0.45976  0.39669  0.09543  Biso   1.000  Cu
  Cu6      1.0000 0.04024  0.89669  0.40457  Biso   1.000  Cu
  Cu7      1.0000 0.54024  0.60331  0.90457  Biso   1.000  Cu
  Cu8      1.0000 0.95976  0.10331  0.59543  Biso   1.000  Cu
  Cu9      1.0000 0.60241  0.77943  0.22491  Biso   1.000  Cu
  Cu10     1.0000 0.89759  0.27943  0.27509  Biso   1.000  Cu
  Cu11     1.0000 0.39759  0.22057  0.77509  Biso   1.000  Cu
  Cu12     1.0000 0.10241  0.72057  0.72491  Biso   1.000  Cu
  Cu13     1.0000 0.62148  0.16163  0.37123  Biso   1.000  Cu
  Cu14     1.0000 0.87852  0.66163  0.12877  Biso   1.000  Cu
  Cu15     1.0000 0.37852  0.83837  0.62877  Biso   1.000  Cu
  Cu16     1.0000 0.12148  0.33837  0.87123  Biso   1.000  Cu
  N1       1.0000 0.28520  0.11980  0.05990  Biso   1.000  N
  N2       1.0000 0.21480  0.61980  0.44010  Biso   1.000  N
  N3       1.0000 0.71480  0.88020  0.94010  Biso   1.000  N
  N4       1.0000 0.78520  0.38020  0.55990  Biso   1.000  N
  N5       1.0000 0.40560  0.26160  0.07300  Biso   1.000  N
  N6       1.0000 0.09440  0.76160  0.42700  Biso   1.000  N
  N7       1.0000 0.59440  0.73840  0.92700  Biso   1.000  N
  N8       1.0000 0.90560  0.23840  0.57300  Biso   1.000  N
  N9       1.0000 0.51170  0.53320  0.11408  Biso   1.000  N
  N10      1.0000 0.98830  0.03320  0.38592  Biso   1.000  N
  N11      1.0000 0.48830  0.46680  0.88592  Biso   1.000  N
  N12      1.0000 0.01170  0.96680  0.61408  Biso   1.000  N
  N13      1.0000 0.56950  0.68370  0.16200  Biso   1.000  N
  N14      1.0000 0.93050  0.18370  0.33800  Biso   1.000  N
  N15      1.0000 0.43050  0.31630  0.83800  Biso   1.000  N
  N16      1.0000 0.06950  0.81630  0.66200  Biso   1.000  N
  N17      1.0000 0.63050  0.87230  0.28990  Biso   1.000  N
  N18      1.0000 0.86950  0.37230  0.21010  Biso   1.000  N
  N19      1.0000 0.36950  0.12770  0.71010  Biso   1.000  N
  N20      1.0000 0.13050  0.62770  0.78990  Biso   1.000  N
  N21      1.0000 0.64050  0.02150  0.34590  Biso   1.000  N
  N22      1.0000 0.85950  0.52150  0.15410  Biso   1.000  N
  N23      1.0000 0.35950  0.97850  0.65410  Biso   1.000  N
  N24      1.0000 0.14050  0.47850  0.84590  Biso   1.000  N
  N25      1.0000 0.58410  0.29930  0.39550  Biso   1.000  N
  N26      1.0000 0.91590  0.79930  0.10450  Biso   1.000  N
  N27      1.0000 0.41590  0.70070  0.60450  Biso   1.000  N
  N28      1.0000 0.08410  0.20070  0.89550  Biso   1.000  N
  N29      1.0000 0.47620  0.44140  0.42090  Biso   1.000  N
  N30      1.0000 0.02380  0.94140  0.07910  Biso   1.000  N
  N31      1.0000 0.52380  0.55860  0.57910  Biso   1.000  N
  N32      1.0000 0.97620  0.05860  0.92090  Biso   1.000  N
  C1       1.0000 0.40060  0.09060  0.04910  Biso   1.000  C
  C2       1.0000 0.09940  0.59060  0.45090  Biso   1.000  C
  C3       1.0000 0.59940  0.90940  0.95090  Biso   1.000  C
  C4       1.0000 0.90060  0.40940  0.54910  Biso   1.000  C
  H1       1.0000 0.42500  0.02230  0.03820  Biso   1.000  H
  H2       1.0000 0.07500  0.52230  0.46180  Biso   1.000  H
  H3       1.0000 0.57500  0.97770  0.96180  Biso   1.000  H
  H4       1.0000 0.92500  0.47770  0.53820  Biso   1.000  H
  C5       1.0000 0.47400  0.17550  0.05670  Biso   1.000  C
  C6       1.0000 0.02600  0.67550  0.44330  Biso   1.000  C
  C7       1.0000 0.52600  0.82450  0.94330  Biso   1.000  C
  C8       1.0000 0.97400  0.32450  0.55670  Biso   1.000  C
  H5       1.0000 0.55690  0.17590  0.05180  Biso   1.000  H
  H6       1.0000 0.94310  0.67590  0.44820  Biso   1.000  H
  H7       1.0000 0.44310  0.82410  0.94820  Biso   1.000  H
  H8       1.0000 0.05690  0.32410  0.55180  Biso   1.000  H
  C9       1.0000 0.29220  0.22370  0.07390  Biso   1.000  C
  C10      1.0000 0.20780  0.72370  0.42610  Biso   1.000  C
  C11      1.0000 0.70780  0.77630  0.92610  Biso   1.000  C
  C12      1.0000 0.79220  0.27630  0.57390  Biso   1.000  C
  C13      1.0000 0.18260  0.29040  0.08730  Biso   1.000  C
  C14      1.0000 0.31740  0.79040  0.41270  Biso   1.000  C
  C15      1.0000 0.81740  0.70960  0.91270  Biso   1.000  C
  C16      1.0000 0.68260  0.20960  0.58730  Biso   1.000  C
  H9       1.0000 0.11320  0.24230  0.08110  Biso   1.000  H
  H10      1.0000 0.38680  0.74230  0.41890  Biso   1.000  H
  H11      1.0000 0.88680  0.75770  0.91890  Biso   1.000  H
  H12      1.0000 0.61320  0.25770  0.58110  Biso   1.000  H
  C17      1.0000 0.18280  0.32330  0.15300  Biso   1.000  C
  C18      1.0000 0.31720  0.82330  0.34700  Biso   1.000  C
  C19      1.0000 0.81720  0.67670  0.84700  Biso   1.000  C
  C20      1.0000 0.68280  0.17670  0.65300  Biso   1.000  C
  H13      1.0000 0.10950  0.36150  0.16010  Biso   1.000  H
  H14      1.0000 0.39050  0.86150  0.33990  Biso   1.000  H
  H15      1.0000 0.89050  0.63850  0.83990  Biso   1.000  H
  H16      1.0000 0.60950  0.13850  0.66010  Biso   1.000  H
  H17      1.0000 0.25100  0.36880  0.16240  Biso   1.000  H
  H18      1.0000 0.24900  0.86880  0.33760  Biso   1.000  H
  H19      1.0000 0.74900  0.63120  0.83760  Biso   1.000  H
  H20      1.0000 0.75100  0.13120  0.66240  Biso   1.000  H
  H21      1.0000 0.18780  0.26090  0.17860  Biso   1.000  H
  H22      1.0000 0.31220  0.76090  0.32140  Biso   1.000  H
  H23      1.0000 0.81220  0.73910  0.82140  Biso   1.000  H
  H24      1.0000 0.68780  0.23910  0.67860  Biso   1.000  H
  C21      1.0000 0.15940  0.38110  0.04320  Biso   1.000  C
  C22      1.0000 0.34060  0.88110  0.45680  Biso   1.000  C
  C23      1.0000 0.84060  0.61890  0.95680  Biso   1.000  C
  C24      1.0000 0.65940  0.11890  0.54320  Biso   1.000  C
  H25      1.0000 0.08660  0.41760  0.05310  Biso   1.000  H
  H26      1.0000 0.41340  0.91760  0.44690  Biso   1.000  H
  H27      1.0000 0.91340  0.58240  0.94690  Biso   1.000  H
  H28      1.0000 0.58660  0.08240  0.55310  Biso   1.000  H
  H29      1.0000 0.15070  0.35360  0.00210  Biso   1.000  H
  H30      1.0000 0.34930  0.85360  0.49790  Biso   1.000  H
  H31      1.0000 0.84930  0.64640  0.99790  Biso   1.000  H
  H32      1.0000 0.65070  0.14640  0.50210  Biso   1.000  H
  H33      1.0000 0.22610  0.43030  0.04620  Biso   1.000  H
  H34      1.0000 0.27390  0.93030  0.45380  Biso   1.000  H
  H35      1.0000 0.77390  0.56970  0.95380  Biso   1.000  H
  H36      1.0000 0.72610  0.06970  0.54620  Biso   1.000  H
  C25      1.0000 0.53740  0.60950  0.07140  Biso   1.000  C
  C26      1.0000 0.96260  0.10950  0.42860  Biso   1.000  C
  C27      1.0000 0.46260  0.39050  0.92860  Biso   1.000  C
  C28      1.0000 0.03740  0.89050  0.57140  Biso   1.000  C
  H37      1.0000 0.53160  0.59990  0.02910  Biso   1.000  H
  H38      1.0000 0.96840  0.09990  0.47090  Biso   1.000  H
  H39      1.0000 0.46840  0.40010  0.97090  Biso   1.000  H
  H40      1.0000 0.03160  0.90010  0.52910  Biso   1.000  H
  C29      1.0000 0.57230  0.70000  0.10020  Biso   1.000  C
  C30      1.0000 0.92770  0.20000  0.39980  Biso   1.000  C
  C31      1.0000 0.42770  0.30000  0.89980  Biso   1.000  C
  C32      1.0000 0.07230  0.80000  0.60020  Biso   1.000  C
  H41      1.0000 0.59460  0.76320  0.08120  Biso   1.000  H
  H42      1.0000 0.90540  0.26320  0.41880  Biso   1.000  H
  H43      1.0000 0.40540  0.23680  0.91880  Biso   1.000  H
  H44      1.0000 0.09460  0.73680  0.58120  Biso   1.000  H
  C33      1.0000 0.53200  0.58190  0.16830  Biso   1.000  C
  C34      1.0000 0.96800  0.08190  0.33170  Biso   1.000  C
  C35      1.0000 0.46800  0.41810  0.83170  Biso   1.000  C
  C36      1.0000 0.03200  0.91810  0.66830  Biso   1.000  C
  C37      1.0000 0.51070  0.53470  0.23000  Biso   1.000  C
  C38      1.0000 0.98930  0.03470  0.27000  Biso   1.000  C
  C39      1.0000 0.48930  0.46530  0.77000  Biso   1.000  C
  C40      1.0000 0.01070  0.96530  0.73000  Biso   1.000  C
  H45      1.0000 0.56520  0.57230  0.25950  Biso   1.000  H
  H46      1.0000 0.93480  0.07230  0.24050  Biso   1.000  H
  H47      1.0000 0.43480  0.42770  0.74050  Biso   1.000  H
  H48      1.0000 0.06520  0.92770  0.75950  Biso   1.000  H
  C41      1.0000 0.54220  0.41790  0.23520  Biso   1.000  C
  C42      1.0000 0.95780  0.91790  0.26480  Biso   1.000  C
  C43      1.0000 0.45780  0.58210  0.76480  Biso   1.000  C
  C44      1.0000 0.04220  0.08210  0.73520  Biso   1.000  C
  H49      1.0000 0.54410  0.39680  0.27760  Biso   1.000  H
  H50      1.0000 0.95590  0.89680  0.22240  Biso   1.000  H
  H51      1.0000 0.45590  0.60320  0.72240  Biso   1.000  H
  H52      1.0000 0.04410  0.10320  0.77760  Biso   1.000  H
  H53      1.0000 0.62010  0.40590  0.21900  Biso   1.000  H
  H54      1.0000 0.87990  0.90590  0.28100  Biso   1.000  H
  H55      1.0000 0.37990  0.59410  0.78100  Biso   1.000  H
  H56      1.0000 0.12010  0.09410  0.71900  Biso   1.000  H
  H57      1.0000 0.48240  0.37640  0.21240  Biso   1.000  H
  H58      1.0000 0.01760  0.87640  0.28760  Biso   1.000  H
  H59      1.0000 0.51760  0.62360  0.78760  Biso   1.000  H
  H60      1.0000 0.98240  0.12360  0.71240  Biso   1.000  H
  C45      1.0000 0.38610  0.55650  0.24870  Biso   1.000  C
  C46      1.0000 0.11390  0.05650  0.25130  Biso   1.000  C
  C47      1.0000 0.61390  0.44350  0.75130  Biso   1.000  C
  C48      1.0000 0.88610  0.94350  0.74870  Biso   1.000  C
  H61      1.0000 0.37050  0.63200  0.24650  Biso   1.000  H
  H62      1.0000 0.12950  0.13200  0.25350  Biso   1.000  H
  H63      1.0000 0.62950  0.36800  0.75350  Biso   1.000  H
  H64      1.0000 0.87050  0.86800  0.74650  Biso   1.000  H
  H65      1.0000 0.37780  0.53210  0.29010  Biso   1.000  H
  H66      1.0000 0.12220  0.03210  0.20990  Biso   1.000  H
  H67      1.0000 0.62220  0.46790  0.70990  Biso   1.000  H
  H68      1.0000 0.87780  0.96790  0.79010  Biso   1.000  H
  H69      1.0000 0.32920  0.51940  0.22170  Biso   1.000  H
  H70      1.0000 0.17080  0.01940  0.27830  Biso   1.000  H
  H71      1.0000 0.67080  0.48060  0.77830  Biso   1.000  H
  H72      1.0000 0.82920  0.98060  0.72170  Biso   1.000  H
  C49      1.0000 0.67310  0.84700  0.34780  Biso   1.000  C
  C50      1.0000 0.82690  0.34700  0.15220  Biso   1.000  C
  C51      1.0000 0.32690  0.15300  0.65220  Biso   1.000  C
  C52      1.0000 0.17310  0.65300  0.84780  Biso   1.000  C
  H73      1.0000 0.69460  0.77870  0.36130  Biso   1.000  H
  H74      1.0000 0.80540  0.27870  0.13870  Biso   1.000  H
  H75      1.0000 0.30540  0.22130  0.63870  Biso   1.000  H
  H76      1.0000 0.19460  0.72130  0.86130  Biso   1.000  H
  C53      1.0000 0.67930  0.93670  0.38250  Biso   1.000  C
  C54      1.0000 0.82070  0.43670  0.11750  Biso   1.000  C
  C55      1.0000 0.32070  0.06330  0.61750  Biso   1.000  C
  C56      1.0000 0.17930  0.56330  0.88250  Biso   1.000  C
  H77      1.0000 0.70520  0.94070  0.42360  Biso   1.000  H
  H78      1.0000 0.79480  0.44070  0.07640  Biso   1.000  H
  H79      1.0000 0.29480  0.05930  0.57640  Biso   1.000  H
  H80      1.0000 0.20520  0.55930  0.92360  Biso   1.000  H
  C57      1.0000 0.61250  0.97860  0.29070  Biso   1.000  C
  C58      1.0000 0.88750  0.47860  0.20930  Biso   1.000  C
  C59      1.0000 0.38750  0.02140  0.70930  Biso   1.000  C
  C60      1.0000 0.11250  0.52140  0.79070  Biso   1.000  C
  C61      1.0000 0.56570  0.04000  0.23580  Biso   1.000  C
  C62      1.0000 0.93430  0.54000  0.26420  Biso   1.000  C
  C63      1.0000 0.43430  0.96000  0.76420  Biso   1.000  C
  C64      1.0000 0.06570  0.46000  0.73580  Biso   1.000  C
  H81      1.0000 0.56350  0.98580  0.20330  Biso   1.000  H
  H82      1.0000 0.93650  0.48580  0.29670  Biso   1.000  H
  H83      1.0000 0.43650  0.01420  0.79670  Biso   1.000  H
  H84      1.0000 0.06350  0.51420  0.70330  Biso   1.000  H
  C65      1.0000 0.64710  0.11990  0.21290  Biso   1.000  C
  C66      1.0000 0.85290  0.61990  0.28710  Biso   1.000  C
  C67      1.0000 0.35290  0.88010  0.78710  Biso   1.000  C
  C68      1.0000 0.14710  0.38010  0.71290  Biso   1.000  C
  H85      1.0000 0.61320  0.14900  0.17510  Biso   1.000  H
  H86      1.0000 0.88680  0.64900  0.32490  Biso   1.000  H
  H87      1.0000 0.38680  0.85100  0.82490  Biso   1.000  H
  H88      1.0000 0.11320  0.35100  0.67510  Biso   1.000  H
  H89      1.0000 0.72370  0.08740  0.20580  Biso   1.000  H
  H90      1.0000 0.77630  0.58740  0.29420  Biso   1.000  H
  H91      1.0000 0.27630  0.91260  0.79420  Biso   1.000  H
  H92      1.0000 0.22370  0.41260  0.70580  Biso   1.000  H
  H93      1.0000 0.65820  0.17620  0.24260  Biso   1.000  H
  H94      1.0000 0.84180  0.67620  0.25740  Biso   1.000  H
  H95      1.0000 0.34180  0.82380  0.75740  Biso   1.000  H
  H96      1.0000 0.15820  0.32380  0.74260  Biso   1.000  H
  C69      1.0000 0.43980  0.07350  0.23690  Biso   1.000  C
  C70      1.0000 0.06020  0.57350  0.26310  Biso   1.000  C
  C71      1.0000 0.56020  0.92650  0.76310  Biso   1.000  C
  C72      1.0000 0.93980  0.42650  0.73690  Biso   1.000  C
  H97      1.0000 0.41200  0.09610  0.19650  Biso   1.000  H
  H98      1.0000 0.08800  0.59610  0.30350  Biso   1.000  H
  H99      1.0000 0.58800  0.90390  0.80350  Biso   1.000  H
  H100     1.0000 0.91200  0.40390  0.69650  Biso   1.000  H
  H101     1.0000 0.43300  0.13180  0.26510  Biso   1.000  H
  H102     1.0000 0.06700  0.63180  0.23490  Biso   1.000  H
  H103     1.0000 0.56700  0.86820  0.73490  Biso   1.000  H
  H104     1.0000 0.93300  0.36820  0.76510  Biso   1.000  H
  H105     1.0000 0.39130  0.01460  0.24970  Biso   1.000  H
  H106     1.0000 0.10870  0.51460  0.25030  Biso   1.000  H
  H107     1.0000 0.60870  0.98540  0.75030  Biso   1.000  H
  H108     1.0000 0.89130  0.48540  0.74970  Biso   1.000  H
  C73      1.0000 0.65740  0.38720  0.39830  Biso   1.000  C
  C74      1.0000 0.84260  0.88720  0.10170  Biso   1.000  C
  C75      1.0000 0.34260  0.61280  0.60170  Biso   1.000  C
  C76      1.0000 0.15740  0.11280  0.89830  Biso   1.000  C
  H109     1.0000 0.73930  0.38770  0.39060  Biso   1.000  H
  H110     1.0000 0.76070  0.88770  0.10940  Biso   1.000  H
  H111     1.0000 0.26070  0.61230  0.60940  Biso   1.000  H
  H112     1.0000 0.23930  0.11230  0.89060  Biso   1.000  H
  C77      1.0000 0.59220  0.47300  0.41400  Biso   1.000  C
  C78      1.0000 0.90780  0.97300  0.08600  Biso   1.000  C
  C79      1.0000 0.40780  0.52700  0.58600  Biso   1.000  C
  C80      1.0000 0.09220  0.02700  0.91400  Biso   1.000  C
  H113     1.0000 0.62160  0.54230  0.41930  Biso   1.000  H
  H114     1.0000 0.87840  0.04230  0.08070  Biso   1.000  H
  H115     1.0000 0.37840  0.45770  0.58070  Biso   1.000  H
  H116     1.0000 0.12160  0.95770  0.91930  Biso   1.000  H
  C81      1.0000 0.47480  0.33520  0.40890  Biso   1.000  C
  C82      1.0000 0.02520  0.83520  0.09110  Biso   1.000  C
  C83      1.0000 0.52520  0.66480  0.59110  Biso   1.000  C
  C84      1.0000 0.97480  0.16480  0.90890  Biso   1.000  C
  C85      1.0000 0.36580  0.26490  0.41170  Biso   1.000  C
  C86      1.0000 0.13420  0.76490  0.08830  Biso   1.000  C
  C87      1.0000 0.63420  0.73510  0.58830  Biso   1.000  C
  C88      1.0000 0.86580  0.23510  0.91170  Biso   1.000  C
  H117     1.0000 0.39470  0.19230  0.40380  Biso   1.000  H
  H118     1.0000 0.10530  0.69230  0.09620  Biso   1.000  H
  H119     1.0000 0.60530  0.80770  0.59620  Biso   1.000  H
  H120     1.0000 0.89470  0.30770  0.90380  Biso   1.000  H
  C89      1.0000 0.27510  0.28840  0.36080  Biso   1.000  C
  C90      1.0000 0.22490  0.78840  0.13920  Biso   1.000  C
  C91      1.0000 0.72490  0.71160  0.63920  Biso   1.000  C
  C92      1.0000 0.77510  0.21160  0.86080  Biso   1.000  C
  H121     1.0000 0.20990  0.23790  0.36180  Biso   1.000  H
  H122     1.0000 0.29010  0.73790  0.13820  Biso   1.000  H
  H123     1.0000 0.79010  0.76210  0.63820  Biso   1.000  H
  H124     1.0000 0.70990  0.26210  0.86180  Biso   1.000  H
  H125     1.0000 0.31270  0.28300  0.32220  Biso   1.000  H
  H126     1.0000 0.18730  0.78300  0.17780  Biso   1.000  H
  H127     1.0000 0.68730  0.71700  0.67780  Biso   1.000  H
  H128     1.0000 0.81270  0.21700  0.82220  Biso   1.000  H
  H129     1.0000 0.24410  0.35950  0.36560  Biso   1.000  H
  H130     1.0000 0.25590  0.85950  0.13440  Biso   1.000  H
  H131     1.0000 0.75590  0.64050  0.63440  Biso   1.000  H
  H132     1.0000 0.74410  0.14050  0.86560  Biso   1.000  H
  C93      1.0000 0.31460  0.26040  0.47320  Biso   1.000  C
  C94      1.0000 0.18540  0.76040  0.02680  Biso   1.000  C
  C95      1.0000 0.68540  0.73960  0.52680  Biso   1.000  C
  C96      1.0000 0.81460  0.23960  0.97320  Biso   1.000  C
  H133     1.0000 0.24990  0.20930  0.47270  Biso   1.000  H
  H134     1.0000 0.25010  0.70930  0.02730  Biso   1.000  H
  H135     1.0000 0.75010  0.79070  0.52730  Biso   1.000  H
  H136     1.0000 0.74990  0.29070  0.97270  Biso   1.000  H
  H137     1.0000 0.28420  0.32970  0.48350  Biso   1.000  H
  H138     1.0000 0.21580  0.82970  0.01650  Biso   1.000  H
  H139     1.0000 0.71580  0.67030  0.51650  Biso   1.000  H
  H140     1.0000 0.78420  0.17030  0.98350  Biso   1.000  H
  H141     1.0000 0.37660  0.23950  0.50310  Biso   1.000  H
  H142     1.0000 0.12340  0.73950  0.99690  Biso   1.000  H
  H143     1.0000 0.62340  0.76050  0.49690  Biso   1.000  H
  H144     1.0000 0.87660  0.26050  0.00310  Biso   1.000  H
  H145     1.0000 0.55460  0.11420  0.24900  Biso   1.000  H
  H146     1.0000 0.94540  0.61420  0.25100  Biso   1.000  H
  H147     1.0000 0.44540  0.88580  0.75100  Biso   1.000  H
  H148     1.0000 0.05460  0.38580  0.74900  Biso   1.000  H
  C97      1.0000 0.64100  0.04300  0.18250  Biso   1.000  C
  C98      1.0000 0.85900  0.54300  0.31750  Biso   1.000  C
  C99      1.0000 0.35900  0.95700  0.81750  Biso   1.000  C
  C100     1.0000 0.14100  0.45700  0.68250  Biso   1.000  C
  H149     1.0000 0.60010  0.00730  0.14850  Biso   1.000  H
  H150     1.0000 0.89990  0.50730  0.35150  Biso   1.000  H
  H151     1.0000 0.39990  0.99270  0.85150  Biso   1.000  H
  H152     1.0000 0.10010  0.49270  0.64850  Biso   1.000  H
  H153     1.0000 0.71660  0.00740  0.19240  Biso   1.000  H
  H154     1.0000 0.78340  0.50740  0.30760  Biso   1.000  H
  H155     1.0000 0.28340  0.99260  0.80760  Biso   1.000  H
  H156     1.0000 0.21660  0.49260  0.69240  Biso   1.000  H
  H157     1.0000 0.65650  0.11600  0.17160  Biso   1.000  H
  H158     1.0000 0.84350  0.61600  0.32840  Biso   1.000  H
  H159     1.0000 0.34350  0.88400  0.82840  Biso   1.000  H
  H160     1.0000 0.15650  0.38400  0.67160  Biso   1.000  H
  C101     1.0000 0.44800  0.00100  0.21340  Biso   1.000  C
  C102     1.0000 0.05200  0.50100  0.28660  Biso   1.000  C
  C103     1.0000 0.55200  0.99900  0.78660  Biso   1.000  C
  C104     1.0000 0.94800  0.49900  0.71340  Biso   1.000  C
  H161     1.0000 0.39610  0.06030  0.20280  Biso   1.000  H
  H162     1.0000 0.10390  0.56030  0.29720  Biso   1.000  H
  H163     1.0000 0.60390  0.93970  0.79720  Biso   1.000  H
  H164     1.0000 0.89610  0.43970  0.70280  Biso   1.000  H
  H165     1.0000 0.41240  0.95910  0.24490  Biso   1.000  H
  H166     1.0000 0.08760  0.45910  0.25510  Biso   1.000  H
  H167     1.0000 0.58760  0.04090  0.75510  Biso   1.000  H
  H168     1.0000 0.91240  0.54090  0.74490  Biso   1.000  H
  H169     1.0000 0.45700  0.95700  0.17780  Biso   1.000  H
  H170     1.0000 0.04300  0.45700  0.32220  Biso   1.000  H
  H171     1.0000 0.54300  0.04300  0.82220  Biso   1.000  H
  H172     1.0000 0.95700  0.54300  0.67780  Biso   1.000  H
