data_image0
_cell_length_a       14.647
_cell_length_b       29.317
_cell_length_c       16.7807
_cell_angle_alpha    90
_cell_angle_beta     102.287
_cell_angle_gamma    90

_symmetry_space_group_name_H-M    "P 1"
_symmetry_int_tables_number       1

loop_
  _symmetry_equiv_pos_as_xyz
  'x, y, z'

loop_
  _atom_site_label
  _atom_site_occupancy
  _atom_site_fract_x
  _atom_site_fract_y
  _atom_site_fract_z
  _atom_site_thermal_displace_type
  _atom_site_B_iso_or_equiv
  _atom_site_type_symbol
  I1       1.0000 0.23950  0.50450  0.17180  Biso   1.000  I
  I2       1.0000 0.76050  0.00450  0.32820  Biso   1.000  I
  I3       1.0000 0.76050  0.49550  0.82820  Biso   1.000  I
  I4       1.0000 0.23950  0.99550  0.67180  Biso   1.000  I
  I5       1.0000 0.19714  0.41405  0.96625  Biso   1.000  I
  I6       1.0000 0.80286  0.91405  0.53375  Biso   1.000  I
  I7       1.0000 0.80286  0.58595  0.03375  Biso   1.000  I
  I8       1.0000 0.19714  0.08595  0.46625  Biso   1.000  I
  I9       1.0000 0.05298  0.55299  0.95160  Biso   1.000  I
  I10      1.0000 0.94702  0.05299  0.54840  Biso   1.000  I
  I11      1.0000 0.94702  0.44701  0.04840  Biso   1.000  I
  I12      1.0000 0.05298  0.94701  0.45160  Biso   1.000  I
  I13      1.0000 0.93892  0.38622  0.79009  Biso   1.000  I
  I14      1.0000 0.06108  0.88622  0.70991  Biso   1.000  I
  I15      1.0000 0.06108  0.61378  0.20991  Biso   1.000  I
  I16      1.0000 0.93892  0.11378  0.29009  Biso   1.000  I
  I17      1.0000 0.00933  0.30269  0.00737  Biso   1.000  I
  I18      1.0000 0.99067  0.80269  0.49263  Biso   1.000  I
  I19      1.0000 0.99067  0.69731  0.99263  Biso   1.000  I
  I20      1.0000 0.00933  0.19731  0.50737  Biso   1.000  I
  I21      1.0000 0.28480  0.63735  0.06060  Biso   1.000  I
  I22      1.0000 0.71520  0.13735  0.43940  Biso   1.000  I
  I23      1.0000 0.71520  0.36265  0.93940  Biso   1.000  I
  I24      1.0000 0.28480  0.86265  0.56060  Biso   1.000  I
  I25      1.0000 0.14604  0.64754  0.81212  Biso   1.000  I
  I26      1.0000 0.85396  0.14754  0.68788  Biso   1.000  I
  I27      1.0000 0.85396  0.35246  0.18788  Biso   1.000  I
  I28      1.0000 0.14604  0.85246  0.31212  Biso   1.000  I
  I29      1.0000 0.43309  0.70130  0.88333  Biso   1.000  I
  I30      1.0000 0.56691  0.20130  0.61667  Biso   1.000  I
  I31      1.0000 0.56691  0.29870  0.11667  Biso   1.000  I
  I32      1.0000 0.43309  0.79870  0.38333  Biso   1.000  I
  I33      1.0000 0.21124  0.78340  0.94226  Biso   1.000  I
  I34      1.0000 0.78876  0.28340  0.55774  Biso   1.000  I
  I35      1.0000 0.78876  0.21660  0.05774  Biso   1.000  I
  I36      1.0000 0.21124  0.71660  0.44226  Biso   1.000  I
  I37      1.0000 0.34745  0.63145  0.64642  Biso   1.000  I
  I38      1.0000 0.65255  0.13145  0.85358  Biso   1.000  I
  I39      1.0000 0.65255  0.36855  0.35358  Biso   1.000  I
  I40      1.0000 0.34745  0.86855  0.14642  Biso   1.000  I
  I41      1.0000 0.79433  0.25986  0.80483  Biso   1.000  I
  I42      1.0000 0.20567  0.75986  0.69517  Biso   1.000  I
  I43      1.0000 0.20567  0.74014  0.19517  Biso   1.000  I
  I44      1.0000 0.79433  0.24014  0.30483  Biso   1.000  I
  Cu1      1.0000 0.12490  0.47476  0.04358  Biso   1.000  Cu
  Cu2      1.0000 0.87510  0.97476  0.45642  Biso   1.000  Cu
  Cu3      1.0000 0.87510  0.52524  0.95642  Biso   1.000  Cu
  Cu4      1.0000 0.12490  0.02524  0.54358  Biso   1.000  Cu
  Cu5      1.0000 0.02767  0.38621  0.94391  Biso   1.000  Cu
  Cu6      1.0000 0.97233  0.88621  0.55609  Biso   1.000  Cu
  Cu7      1.0000 0.97233  0.61379  0.05609  Biso   1.000  Cu
  Cu8      1.0000 0.02767  0.11379  0.44391  Biso   1.000  Cu
  Cu9      1.0000 0.14920  0.57446  0.10260  Biso   1.000  Cu
  Cu10     1.0000 0.85080  0.07446  0.39740  Biso   1.000  Cu
  Cu11     1.0000 0.85080  0.42554  0.89740  Biso   1.000  Cu
  Cu12     1.0000 0.14920  0.92554  0.60260  Biso   1.000  Cu
  Cu13     1.0000 0.86600  0.33539  0.88352  Biso   1.000  Cu
  Cu14     1.0000 0.13400  0.83539  0.61648  Biso   1.000  Cu
  Cu15     1.0000 0.13400  0.66461  0.11648  Biso   1.000  Cu
  Cu16     1.0000 0.86600  0.16461  0.38352  Biso   1.000  Cu
  Cu17     1.0000 0.12060  0.64016  0.96045  Biso   1.000  Cu
  Cu18     1.0000 0.87940  0.14016  0.53955  Biso   1.000  Cu
  Cu19     1.0000 0.87940  0.35984  0.03955  Biso   1.000  Cu
  Cu20     1.0000 0.12060  0.85984  0.46045  Biso   1.000  Cu
  Cu21     1.0000 0.30244  0.67706  0.76245  Biso   1.000  Cu
  Cu22     1.0000 0.69756  0.17706  0.73755  Biso   1.000  Cu
  Cu23     1.0000 0.69756  0.32294  0.23755  Biso   1.000  Cu
  Cu24     1.0000 0.30244  0.82294  0.26245  Biso   1.000  Cu
  Cu25     1.0000 0.27190  0.69541  0.91790  Biso   1.000  Cu
  Cu26     1.0000 0.72810  0.19541  0.58210  Biso   1.000  Cu
  Cu27     1.0000 0.72810  0.30459  0.08210  Biso   1.000  Cu
  Cu28     1.0000 0.27190  0.80459  0.41790  Biso   1.000  Cu
  Cu29     1.0000 0.82380  0.27902  0.96450  Biso   1.000  Cu
  Cu30     1.0000 0.17620  0.77902  0.53550  Biso   1.000  Cu
  Cu31     1.0000 0.17620  0.72098  0.03550  Biso   1.000  Cu
  Cu32     1.0000 0.82380  0.22098  0.46450  Biso   1.000  Cu
  Cu33     1.0000 0.25748  0.70325  0.59731  Biso   1.000  Cu
  Cu34     1.0000 0.74252  0.20325  0.90269  Biso   1.000  Cu
  Cu35     1.0000 0.74252  0.29675  0.40269  Biso   1.000  Cu
  Cu36     1.0000 0.25748  0.79675  0.09731  Biso   1.000  Cu
  Co1      1.0000 0.35538  0.13504  0.98726  Biso   1.000  Co
  Co2      1.0000 0.64462  0.63504  0.51274  Biso   1.000  Co
  Co3      1.0000 0.64462  0.86496  0.01274  Biso   1.000  Co
  Co4      1.0000 0.35538  0.36496  0.48726  Biso   1.000  Co
  Co5      1.0000 0.19983  0.13100  0.13061  Biso   1.000  Co
  Co6      1.0000 0.80017  0.63100  0.36939  Biso   1.000  Co
  Co7      1.0000 0.80017  0.86900  0.86939  Biso   1.000  Co
  Co8      1.0000 0.19983  0.36900  0.63061  Biso   1.000  Co
  Cl1      1.0000 0.27684  0.18926  0.06092  Biso   1.000  Cl
  Cl2      1.0000 0.72316  0.68926  0.43908  Biso   1.000  Cl
  Cl3      1.0000 0.72316  0.81074  0.93908  Biso   1.000  Cl
  Cl4      1.0000 0.27684  0.31074  0.56092  Biso   1.000  Cl
  Cl5      1.0000 0.27360  0.07568  0.05244  Biso   1.000  Cl
  Cl6      1.0000 0.72640  0.57568  0.44756  Biso   1.000  Cl
  Cl7      1.0000 0.72640  0.92432  0.94756  Biso   1.000  Cl
  Cl8      1.0000 0.27360  0.42432  0.55244  Biso   1.000  Cl
  O1       1.0000 0.30180  0.47980  0.05070  Biso   1.000  O
  O2       1.0000 0.69820  0.97980  0.44930  Biso   1.000  O
  O3       1.0000 0.69820  0.52020  0.94930  Biso   1.000  O
  O4       1.0000 0.30180  0.02020  0.55070  Biso   1.000  O
  N1       1.0000 0.25550  0.13720  0.87480  Biso   1.000  N
  N2       1.0000 0.74450  0.63720  0.62520  Biso   1.000  N
  N3       1.0000 0.74450  0.86280  0.12520  Biso   1.000  N
  N4       1.0000 0.25550  0.36280  0.37480  Biso   1.000  N
  N5       1.0000 0.41280  0.18590  0.92060  Biso   1.000  N
  N6       1.0000 0.58720  0.68590  0.57940  Biso   1.000  N
  N7       1.0000 0.58720  0.81410  0.07940  Biso   1.000  N
  N8       1.0000 0.41280  0.31410  0.42060  Biso   1.000  N
  N9       1.0000 0.43150  0.08170  0.94300  Biso   1.000  N
  N10      1.0000 0.56850  0.58170  0.55700  Biso   1.000  N
  N11      1.0000 0.56850  0.91830  0.05700  Biso   1.000  N
  N12      1.0000 0.43150  0.41830  0.44300  Biso   1.000  N
  N13      1.0000 0.47980  0.13300  0.07990  Biso   1.000  N
  N14      1.0000 0.52020  0.63300  0.42010  Biso   1.000  N
  N15      1.0000 0.52020  0.86700  0.92010  Biso   1.000  N
  N16      1.0000 0.47980  0.36700  0.57990  Biso   1.000  N
  N17      1.0000 0.07570  0.13010  0.03960  Biso   1.000  N
  N18      1.0000 0.92430  0.63010  0.46040  Biso   1.000  N
  N19      1.0000 0.92430  0.86990  0.96040  Biso   1.000  N
  N20      1.0000 0.07570  0.36990  0.53960  Biso   1.000  N
  N21      1.0000 0.12520  0.07450  0.16760  Biso   1.000  N
  N22      1.0000 0.87480  0.57450  0.33240  Biso   1.000  N
  N23      1.0000 0.87480  0.92550  0.83240  Biso   1.000  N
  N24      1.0000 0.12520  0.42550  0.66760  Biso   1.000  N
  N25      1.0000 0.14810  0.18040  0.20330  Biso   1.000  N
  N26      1.0000 0.85190  0.68040  0.29670  Biso   1.000  N
  N27      1.0000 0.85190  0.81960  0.79670  Biso   1.000  N
  N28      1.0000 0.14810  0.31960  0.70330  Biso   1.000  N
  N29      1.0000 0.30650  0.12980  0.24010  Biso   1.000  N
  N30      1.0000 0.69350  0.62980  0.25990  Biso   1.000  N
  N31      1.0000 0.69350  0.87020  0.75990  Biso   1.000  N
  N32      1.0000 0.30650  0.37020  0.74010  Biso   1.000  N
  C1       1.0000 0.04840  0.15830  0.97700  Biso   1.000  C
  C2       1.0000 0.95160  0.65830  0.52300  Biso   1.000  C
  C3       1.0000 0.95160  0.84170  0.02300  Biso   1.000  C
  C4       1.0000 0.04840  0.34170  0.47700  Biso   1.000  C
  H1       1.0000 0.08420  0.18420  0.97440  Biso   1.000  H
  H2       1.0000 0.91580  0.68420  0.52560  Biso   1.000  H
  H3       1.0000 0.91580  0.81580  0.02560  Biso   1.000  H
  H4       1.0000 0.08420  0.31580  0.47440  Biso   1.000  H
  C5       1.0000 0.97100  0.15170  0.91590  Biso   1.000  C
  C6       1.0000 0.02900  0.65170  0.58410  Biso   1.000  C
  C7       1.0000 0.02900  0.84830  0.08410  Biso   1.000  C
  C8       1.0000 0.97100  0.34830  0.41590  Biso   1.000  C
  H5       1.0000 0.95450  0.17350  0.87510  Biso   1.000  H
  H6       1.0000 0.04550  0.67350  0.62490  Biso   1.000  H
  H7       1.0000 0.04550  0.82650  0.12490  Biso   1.000  H
  H8       1.0000 0.95450  0.32650  0.37510  Biso   1.000  H
  C9       1.0000 0.91850  0.11360  0.91460  Biso   1.000  C
  C10      1.0000 0.08150  0.61360  0.58540  Biso   1.000  C
  C11      1.0000 0.08150  0.88640  0.08540  Biso   1.000  C
  C12      1.0000 0.91850  0.38640  0.41460  Biso   1.000  C
  H9       1.0000 0.86940  0.10720  0.87100  Biso   1.000  H
  H10      1.0000 0.13060  0.60720  0.62900  Biso   1.000  H
  H11      1.0000 0.13060  0.89280  0.12900  Biso   1.000  H
  H12      1.0000 0.86940  0.39280  0.37100  Biso   1.000  H
  C13      1.0000 0.94110  0.08380  0.98210  Biso   1.000  C
  C14      1.0000 0.05890  0.58380  0.51790  Biso   1.000  C
  C15      1.0000 0.05890  0.91620  0.01790  Biso   1.000  C
  C16      1.0000 0.94110  0.41620  0.48210  Biso   1.000  C
  C17      1.0000 0.88840  0.04390  0.98770  Biso   1.000  C
  C18      1.0000 0.11160  0.54390  0.51230  Biso   1.000  C
  C19      1.0000 0.11160  0.95610  0.01230  Biso   1.000  C
  C20      1.0000 0.88840  0.45610  0.48770  Biso   1.000  C
  H13      1.0000 0.83700  0.03660  0.94670  Biso   1.000  H
  H14      1.0000 0.16300  0.53660  0.55330  Biso   1.000  H
  H15      1.0000 0.16300  0.96340  0.05330  Biso   1.000  H
  H16      1.0000 0.83700  0.46340  0.44670  Biso   1.000  H
  C21      1.0000 0.91440  0.01580  0.05510  Biso   1.000  C
  C22      1.0000 0.08560  0.51580  0.44490  Biso   1.000  C
  C23      1.0000 0.08560  0.98420  0.94490  Biso   1.000  C
  C24      1.0000 0.91440  0.48420  0.55510  Biso   1.000  C
  H17      1.0000 0.87890  0.98980  0.05830  Biso   1.000  H
  H18      1.0000 0.12110  0.48980  0.44170  Biso   1.000  H
  H19      1.0000 0.12110  0.01020  0.94170  Biso   1.000  H
  H20      1.0000 0.87890  0.51020  0.55830  Biso   1.000  H
  C25      1.0000 0.99320  0.02470  0.12050  Biso   1.000  C
  C26      1.0000 0.00680  0.52470  0.37950  Biso   1.000  C
  C27      1.0000 0.00680  0.97530  0.87950  Biso   1.000  C
  C28      1.0000 0.99320  0.47530  0.62050  Biso   1.000  C
  C29      1.0000 0.01870  0.99880  0.18750  Biso   1.000  C
  C30      1.0000 0.98130  0.49880  0.31250  Biso   1.000  C
  C31      1.0000 0.98130  0.00120  0.81250  Biso   1.000  C
  C32      1.0000 0.01870  0.50120  0.68750  Biso   1.000  C
  H21      1.0000 0.98370  0.97320  0.19470  Biso   1.000  H
  H22      1.0000 0.01630  0.47320  0.30530  Biso   1.000  H
  H23      1.0000 0.01630  0.02680  0.80530  Biso   1.000  H
  H24      1.0000 0.98370  0.52680  0.69470  Biso   1.000  H
  C33      1.0000 0.09650  0.01010  0.24490  Biso   1.000  C
  C34      1.0000 0.90350  0.51010  0.25510  Biso   1.000  C
  C35      1.0000 0.90350  0.98990  0.75510  Biso   1.000  C
  C36      1.0000 0.09650  0.48990  0.74490  Biso   1.000  C
  H25      1.0000 0.11470  0.99230  0.29150  Biso   1.000  H
  H26      1.0000 0.88530  0.49230  0.20850  Biso   1.000  H
  H27      1.0000 0.88530  0.00770  0.70850  Biso   1.000  H
  H28      1.0000 0.11470  0.50770  0.79150  Biso   1.000  H
  C37      1.0000 0.14870  0.04860  0.23330  Biso   1.000  C
  C38      1.0000 0.85130  0.54860  0.26670  Biso   1.000  C
  C39      1.0000 0.85130  0.95140  0.76670  Biso   1.000  C
  C40      1.0000 0.14870  0.45140  0.73330  Biso   1.000  C
  H29      1.0000 0.20130  0.05620  0.27280  Biso   1.000  H
  H30      1.0000 0.79870  0.55620  0.22720  Biso   1.000  H
  H31      1.0000 0.79870  0.94380  0.72720  Biso   1.000  H
  H32      1.0000 0.20130  0.44380  0.77280  Biso   1.000  H
  C41      1.0000 0.04770  0.06350  0.11250  Biso   1.000  C
  C42      1.0000 0.95230  0.56350  0.38750  Biso   1.000  C
  C43      1.0000 0.95230  0.93650  0.88750  Biso   1.000  C
  C44      1.0000 0.04770  0.43650  0.61250  Biso   1.000  C
  C45      1.0000 0.02130  0.09280  0.04450  Biso   1.000  C
  C46      1.0000 0.97870  0.59280  0.45550  Biso   1.000  C
  C47      1.0000 0.97870  0.90720  0.95550  Biso   1.000  C
  C48      1.0000 0.02130  0.40720  0.54450  Biso   1.000  C
  C49      1.0000 0.38220  0.10570  0.25590  Biso   1.000  C
  C50      1.0000 0.61780  0.60570  0.24410  Biso   1.000  C
  C51      1.0000 0.61780  0.89430  0.74410  Biso   1.000  C
  C52      1.0000 0.38220  0.39430  0.75590  Biso   1.000  C
  H33      1.0000 0.39480  0.08610  0.21600  Biso   1.000  H
  H34      1.0000 0.60520  0.58610  0.28400  Biso   1.000  H
  H35      1.0000 0.60520  0.91390  0.78400  Biso   1.000  H
  H36      1.0000 0.39480  0.41390  0.71600  Biso   1.000  H
  C53      1.0000 0.44500  0.10810  0.32990  Biso   1.000  C
  C54      1.0000 0.55500  0.60810  0.17010  Biso   1.000  C
  C55      1.0000 0.55500  0.89190  0.67010  Biso   1.000  C
  C56      1.0000 0.44500  0.39190  0.82990  Biso   1.000  C
  H37      1.0000 0.49820  0.08980  0.34010  Biso   1.000  H
  H38      1.0000 0.50180  0.58980  0.15990  Biso   1.000  H
  H39      1.0000 0.50180  0.91020  0.65990  Biso   1.000  H
  H40      1.0000 0.49820  0.41020  0.84010  Biso   1.000  H
  C57      1.0000 0.42800  0.13760  0.38760  Biso   1.000  C
  C58      1.0000 0.57200  0.63760  0.11240  Biso   1.000  C
  C59      1.0000 0.57200  0.86240  0.61240  Biso   1.000  C
  C60      1.0000 0.42800  0.36240  0.88760  Biso   1.000  C
  H41      1.0000 0.47130  0.14020  0.43680  Biso   1.000  H
  H42      1.0000 0.52870  0.64020  0.06320  Biso   1.000  H
  H43      1.0000 0.52870  0.85980  0.56320  Biso   1.000  H
  H44      1.0000 0.47130  0.35980  0.93680  Biso   1.000  H
  C61      1.0000 0.35000  0.16300  0.37500  Biso   1.000  C
  C62      1.0000 0.65000  0.66300  0.12500  Biso   1.000  C
  C63      1.0000 0.65000  0.83700  0.62500  Biso   1.000  C
  C64      1.0000 0.35000  0.33700  0.87500  Biso   1.000  C
  C65      1.0000 0.32410  0.19560  0.43000  Biso   1.000  C
  C66      1.0000 0.67590  0.69560  0.07000  Biso   1.000  C
  C67      1.0000 0.67590  0.80440  0.57000  Biso   1.000  C
  C68      1.0000 0.32410  0.30440  0.93000  Biso   1.000  C
  H45      1.0000 0.36300  0.19950  0.48110  Biso   1.000  H
  H46      1.0000 0.63700  0.69950  0.01890  Biso   1.000  H
  H47      1.0000 0.63700  0.80050  0.51890  Biso   1.000  H
  H48      1.0000 0.36300  0.30050  0.98110  Biso   1.000  H
  C69      1.0000 0.24590  0.22060  0.41070  Biso   1.000  C
  C70      1.0000 0.75410  0.72060  0.08930  Biso   1.000  C
  C71      1.0000 0.75410  0.77940  0.58930  Biso   1.000  C
  C72      1.0000 0.24590  0.27940  0.91070  Biso   1.000  C
  H49      1.0000 0.23210  0.24120  0.44870  Biso   1.000  H
  H50      1.0000 0.76790  0.74120  0.05130  Biso   1.000  H
  H51      1.0000 0.76790  0.75880  0.55130  Biso   1.000  H
  H52      1.0000 0.23210  0.25880  0.94870  Biso   1.000  H
  C73      1.0000 0.18430  0.21660  0.33480  Biso   1.000  C
  C74      1.0000 0.81570  0.71660  0.16520  Biso   1.000  C
  C75      1.0000 0.81570  0.78340  0.66520  Biso   1.000  C
  C76      1.0000 0.18430  0.28340  0.83480  Biso   1.000  C
  C77      1.0000 0.10330  0.24270  0.31270  Biso   1.000  C
  C78      1.0000 0.89670  0.74270  0.18730  Biso   1.000  C
  C79      1.0000 0.89670  0.75730  0.68730  Biso   1.000  C
  C80      1.0000 0.10330  0.25730  0.81270  Biso   1.000  C
  H53      1.0000 0.08750  0.26350  0.34940  Biso   1.000  H
  H54      1.0000 0.91250  0.76350  0.15060  Biso   1.000  H
  H55      1.0000 0.91250  0.73650  0.65060  Biso   1.000  H
  H56      1.0000 0.08750  0.23650  0.84940  Biso   1.000  H
  C81      1.0000 0.04610  0.23750  0.23550  Biso   1.000  C
  C82      1.0000 0.95390  0.73750  0.26450  Biso   1.000  C
  C83      1.0000 0.95390  0.76250  0.76450  Biso   1.000  C
  C84      1.0000 0.04610  0.26250  0.73550  Biso   1.000  C
  H57      1.0000 0.99210  0.25480  0.21970  Biso   1.000  H
  H58      1.0000 0.00790  0.75480  0.28030  Biso   1.000  H
  H59      1.0000 0.00790  0.74520  0.78030  Biso   1.000  H
  H60      1.0000 0.99210  0.24520  0.71970  Biso   1.000  H
  C85      1.0000 0.07190  0.20560  0.18280  Biso   1.000  C
  C86      1.0000 0.92810  0.70560  0.31720  Biso   1.000  C
  C87      1.0000 0.92810  0.79440  0.81720  Biso   1.000  C
  C88      1.0000 0.07190  0.29440  0.68280  Biso   1.000  C
  H61      1.0000 0.03410  0.20200  0.13110  Biso   1.000  H
  H62      1.0000 0.96590  0.70200  0.36890  Biso   1.000  H
  H63      1.0000 0.96590  0.79800  0.86890  Biso   1.000  H
  H64      1.0000 0.03410  0.29800  0.63110  Biso   1.000  H
  C89      1.0000 0.20530  0.18620  0.27790  Biso   1.000  C
  C90      1.0000 0.79470  0.68620  0.22210  Biso   1.000  C
  C91      1.0000 0.79470  0.81380  0.72210  Biso   1.000  C
  C92      1.0000 0.20530  0.31380  0.77790  Biso   1.000  C
  C93      1.0000 0.28860  0.15840  0.29550  Biso   1.000  C
  C94      1.0000 0.71140  0.65840  0.20450  Biso   1.000  C
  C95      1.0000 0.71140  0.84160  0.70450  Biso   1.000  C
  C96      1.0000 0.28860  0.34160  0.79550  Biso   1.000  C
  C97      1.0000 0.50410  0.15870  0.14300  Biso   1.000  C
  C98      1.0000 0.49590  0.65870  0.35700  Biso   1.000  C
  C99      1.0000 0.49590  0.84130  0.85700  Biso   1.000  C
  C100     1.0000 0.50410  0.34130  0.64300  Biso   1.000  C
  H65      1.0000 0.46230  0.18080  0.15270  Biso   1.000  H
  H66      1.0000 0.53770  0.68080  0.34730  Biso   1.000  H
  H67      1.0000 0.53770  0.81920  0.84730  Biso   1.000  H
  H68      1.0000 0.46230  0.31920  0.65270  Biso   1.000  H
  C101     1.0000 0.58980  0.15510  0.19730  Biso   1.000  C
  C102     1.0000 0.41020  0.65510  0.30270  Biso   1.000  C
  C103     1.0000 0.41020  0.84490  0.80270  Biso   1.000  C
  C104     1.0000 0.58980  0.34490  0.69730  Biso   1.000  C
  H69      1.0000 0.60390  0.17440  0.24230  Biso   1.000  H
  H70      1.0000 0.39610  0.67440  0.25770  Biso   1.000  H
  H71      1.0000 0.39610  0.82560  0.75770  Biso   1.000  H
  H72      1.0000 0.60390  0.32560  0.74230  Biso   1.000  H
  C105     1.0000 0.65380  0.12290  0.18460  Biso   1.000  C
  C106     1.0000 0.34620  0.62290  0.31540  Biso   1.000  C
  C107     1.0000 0.34620  0.87710  0.81540  Biso   1.000  C
  C108     1.0000 0.65380  0.37710  0.68460  Biso   1.000  C
  H73      1.0000 0.71110  0.12010  0.22090  Biso   1.000  H
  H74      1.0000 0.28890  0.62010  0.27910  Biso   1.000  H
  H75      1.0000 0.28890  0.87990  0.77910  Biso   1.000  H
  H76      1.0000 0.71110  0.37990  0.72090  Biso   1.000  H
  C109     1.0000 0.63110  0.09490  0.11650  Biso   1.000  C
  C110     1.0000 0.36890  0.59490  0.38350  Biso   1.000  C
  C111     1.0000 0.36890  0.90510  0.88350  Biso   1.000  C
  C112     1.0000 0.63110  0.40510  0.61650  Biso   1.000  C
  C113     1.0000 0.68980  0.06100  0.09640  Biso   1.000  C
  C114     1.0000 0.31020  0.56100  0.40360  Biso   1.000  C
  C115     1.0000 0.31020  0.93900  0.90360  Biso   1.000  C
  C116     1.0000 0.68980  0.43900  0.59640  Biso   1.000  C
  H77      1.0000 0.74790  0.05660  0.13070  Biso   1.000  H
  H78      1.0000 0.25210  0.55660  0.36930  Biso   1.000  H
  H79      1.0000 0.25210  0.94340  0.86930  Biso   1.000  H
  H80      1.0000 0.74790  0.44340  0.63070  Biso   1.000  H
  C117     1.0000 0.66600  0.03440  0.02980  Biso   1.000  C
  C118     1.0000 0.33400  0.53440  0.47020  Biso   1.000  C
  C119     1.0000 0.33400  0.96560  0.97020  Biso   1.000  C
  C120     1.0000 0.66600  0.46560  0.52980  Biso   1.000  C
  H81      1.0000 0.70690  0.01190  0.01980  Biso   1.000  H
  H82      1.0000 0.29310  0.51190  0.48020  Biso   1.000  H
  H83      1.0000 0.29310  0.98810  0.98020  Biso   1.000  H
  H84      1.0000 0.70690  0.48810  0.51980  Biso   1.000  H
  C121     1.0000 0.57960  0.04060  0.97520  Biso   1.000  C
  C122     1.0000 0.42040  0.54060  0.52480  Biso   1.000  C
  C123     1.0000 0.42040  0.95940  0.02480  Biso   1.000  C
  C124     1.0000 0.57960  0.45940  0.47520  Biso   1.000  C
  C125     1.0000 0.54870  0.01530  0.90220  Biso   1.000  C
  C126     1.0000 0.45130  0.51530  0.59780  Biso   1.000  C
  C127     1.0000 0.45130  0.98470  0.09780  Biso   1.000  C
  C128     1.0000 0.54870  0.48470  0.40220  Biso   1.000  C
  H85      1.0000 0.58660  0.99250  0.88820  Biso   1.000  H
  H86      1.0000 0.41340  0.49250  0.61180  Biso   1.000  H
  H87      1.0000 0.41340  0.00750  0.11180  Biso   1.000  H
  H88      1.0000 0.58660  0.50750  0.38820  Biso   1.000  H
  C129     1.0000 0.46570  0.02390  0.85330  Biso   1.000  C
  C130     1.0000 0.53430  0.52390  0.64670  Biso   1.000  C
  C131     1.0000 0.53430  0.97610  0.14670  Biso   1.000  C
  C132     1.0000 0.46570  0.47610  0.35330  Biso   1.000  C
  H89      1.0000 0.44640  0.00770  0.80510  Biso   1.000  H
  H90      1.0000 0.55360  0.50770  0.69490  Biso   1.000  H
  H91      1.0000 0.55360  0.99230  0.19490  Biso   1.000  H
  H92      1.0000 0.44640  0.49230  0.30510  Biso   1.000  H
  C133     1.0000 0.40770  0.05800  0.87600  Biso   1.000  C
  C134     1.0000 0.59230  0.55800  0.62400  Biso   1.000  C
  C135     1.0000 0.59230  0.94200  0.12400  Biso   1.000  C
  C136     1.0000 0.40770  0.44200  0.37600  Biso   1.000  C
  H93      1.0000 0.35010  0.06370  0.84170  Biso   1.000  H
  H94      1.0000 0.64990  0.56370  0.65830  Biso   1.000  H
  H95      1.0000 0.64990  0.93630  0.15830  Biso   1.000  H
  H96      1.0000 0.35010  0.43630  0.34170  Biso   1.000  H
  C137     1.0000 0.51700  0.07400  0.99160  Biso   1.000  C
  C138     1.0000 0.48300  0.57400  0.50840  Biso   1.000  C
  C139     1.0000 0.48300  0.92600  0.00840  Biso   1.000  C
  C140     1.0000 0.51700  0.42600  0.49160  Biso   1.000  C
  C141     1.0000 0.54340  0.10090  0.06390  Biso   1.000  C
  C142     1.0000 0.45660  0.60090  0.43610  Biso   1.000  C
  C143     1.0000 0.45660  0.89910  0.93610  Biso   1.000  C
  C144     1.0000 0.54340  0.39910  0.56390  Biso   1.000  C
  C145     1.0000 0.17770  0.11320  0.85340  Biso   1.000  C
  C146     1.0000 0.82230  0.61320  0.64660  Biso   1.000  C
  C147     1.0000 0.82230  0.88680  0.14660  Biso   1.000  C
  C148     1.0000 0.17770  0.38680  0.35340  Biso   1.000  C
  H97      1.0000 0.15910  0.09470  0.89200  Biso   1.000  H
  H98      1.0000 0.84090  0.59470  0.60800  Biso   1.000  H
  H99      1.0000 0.84090  0.90530  0.10800  Biso   1.000  H
  H100     1.0000 0.15910  0.40530  0.39200  Biso   1.000  H
  C149     1.0000 0.12310  0.11480  0.77550  Biso   1.000  C
  C150     1.0000 0.87690  0.61480  0.72450  Biso   1.000  C
  C151     1.0000 0.87690  0.88520  0.22450  Biso   1.000  C
  C152     1.0000 0.12310  0.38520  0.27550  Biso   1.000  C
  H101     1.0000 0.06750  0.09850  0.76370  Biso   1.000  H
  H102     1.0000 0.93250  0.59850  0.73630  Biso   1.000  H
  H103     1.0000 0.93250  0.90150  0.23630  Biso   1.000  H
  H104     1.0000 0.06750  0.40150  0.26370  Biso   1.000  H
  C153     1.0000 0.14890  0.13970  0.71570  Biso   1.000  C
  C154     1.0000 0.85110  0.63970  0.78430  Biso   1.000  C
  C155     1.0000 0.85110  0.86030  0.28430  Biso   1.000  C
  C156     1.0000 0.14890  0.36030  0.21570  Biso   1.000  C
  H105     1.0000 0.11310  0.13980  0.66280  Biso   1.000  H
  H106     1.0000 0.88690  0.63980  0.83720  Biso   1.000  H
  H107     1.0000 0.88690  0.86020  0.33720  Biso   1.000  H
  H108     1.0000 0.11310  0.36020  0.16280  Biso   1.000  H
  C157     1.0000 0.23180  0.16530  0.73660  Biso   1.000  C
  C158     1.0000 0.76820  0.66530  0.76340  Biso   1.000  C
  C159     1.0000 0.76820  0.83470  0.26340  Biso   1.000  C
  C160     1.0000 0.23180  0.33470  0.23660  Biso   1.000  C
  C161     1.0000 0.26370  0.19370  0.67860  Biso   1.000  C
  C162     1.0000 0.73630  0.69370  0.82140  Biso   1.000  C
  C163     1.0000 0.73630  0.80630  0.32140  Biso   1.000  C
  C164     1.0000 0.26370  0.30630  0.17860  Biso   1.000  C
  H109     1.0000 0.23170  0.19420  0.62440  Biso   1.000  H
  H110     1.0000 0.76830  0.69420  0.87560  Biso   1.000  H
  H111     1.0000 0.76830  0.80580  0.37560  Biso   1.000  H
  H112     1.0000 0.23170  0.30580  0.12440  Biso   1.000  H
  C165     1.0000 0.34350  0.22060  0.70410  Biso   1.000  C
  C166     1.0000 0.65650  0.72060  0.79590  Biso   1.000  C
  C167     1.0000 0.65650  0.77940  0.29590  Biso   1.000  C
  C168     1.0000 0.34350  0.27940  0.20410  Biso   1.000  C
  H113     1.0000 0.36230  0.24020  0.66710  Biso   1.000  H
  H114     1.0000 0.63770  0.74020  0.83290  Biso   1.000  H
  H115     1.0000 0.63770  0.75980  0.33290  Biso   1.000  H
  H116     1.0000 0.36230  0.25980  0.16710  Biso   1.000  H
  C169     1.0000 0.39600  0.21870  0.78530  Biso   1.000  C
  C170     1.0000 0.60400  0.71870  0.71470  Biso   1.000  C
  C171     1.0000 0.60400  0.78130  0.21470  Biso   1.000  C
  C172     1.0000 0.39600  0.28130  0.28530  Biso   1.000  C
  C173     1.0000 0.47620  0.24530  0.81500  Biso   1.000  C
  C174     1.0000 0.52380  0.74530  0.68500  Biso   1.000  C
  C175     1.0000 0.52380  0.75470  0.18500  Biso   1.000  C
  C176     1.0000 0.47620  0.25470  0.31500  Biso   1.000  C
  H117     1.0000 0.49770  0.26550  0.78030  Biso   1.000  H
  H118     1.0000 0.50230  0.76550  0.71970  Biso   1.000  H
  H119     1.0000 0.50230  0.73450  0.21970  Biso   1.000  H
  H120     1.0000 0.49770  0.23450  0.28030  Biso   1.000  H
  C177     1.0000 0.52090  0.24180  0.89190  Biso   1.000  C
  C178     1.0000 0.47910  0.74180  0.60810  Biso   1.000  C
  C179     1.0000 0.47910  0.75820  0.10810  Biso   1.000  C
  C180     1.0000 0.52090  0.25820  0.39190  Biso   1.000  C
  H121     1.0000 0.57380  0.25940  0.91140  Biso   1.000  H
  H122     1.0000 0.42620  0.75940  0.58860  Biso   1.000  H
  H123     1.0000 0.42620  0.74060  0.08860  Biso   1.000  H
  H124     1.0000 0.57380  0.24060  0.41140  Biso   1.000  H
  C181     1.0000 0.48830  0.21150  0.94380  Biso   1.000  C
  C182     1.0000 0.51170  0.71150  0.55620  Biso   1.000  C
  C183     1.0000 0.51170  0.78850  0.05620  Biso   1.000  C
  C184     1.0000 0.48830  0.28850  0.44380  Biso   1.000  C
  H125     1.0000 0.52140  0.20920  0.99740  Biso   1.000  H
  H126     1.0000 0.47860  0.70920  0.50260  Biso   1.000  H
  H127     1.0000 0.47860  0.79080  0.00260  Biso   1.000  H
  H128     1.0000 0.52140  0.29080  0.49740  Biso   1.000  H
  C185     1.0000 0.36530  0.18960  0.84230  Biso   1.000  C
  C186     1.0000 0.63470  0.68960  0.65770  Biso   1.000  C
  C187     1.0000 0.63470  0.81040  0.15770  Biso   1.000  C
  C188     1.0000 0.36530  0.31040  0.34230  Biso   1.000  C
  C189     1.0000 0.28160  0.16320  0.81740  Biso   1.000  C
  C190     1.0000 0.71840  0.66320  0.68260  Biso   1.000  C
  C191     1.0000 0.71840  0.83680  0.18260  Biso   1.000  C
  C192     1.0000 0.28160  0.33680  0.31740  Biso   1.000  C
  Cu37     1.0000 0.10870  0.55730  0.11600  Biso   1.000  Cu
  Cu38     1.0000 0.89130  0.05730  0.38400  Biso   1.000  Cu
  Cu39     1.0000 0.89130  0.44270  0.88400  Biso   1.000  Cu
  Cu40     1.0000 0.10870  0.94270  0.61600  Biso   1.000  Cu
  Cu41     1.0000 0.25620  0.71940  0.87070  Biso   1.000  Cu
  Cu42     1.0000 0.74380  0.21940  0.62930  Biso   1.000  Cu
  Cu43     1.0000 0.74380  0.28060  0.12930  Biso   1.000  Cu
  Cu44     1.0000 0.25620  0.78060  0.37070  Biso   1.000  Cu
  Cu45     1.0000 0.14460  0.69260  0.95510  Biso   1.000  Cu
  Cu46     1.0000 0.85540  0.19260  0.54490  Biso   1.000  Cu
  Cu47     1.0000 0.85540  0.30740  0.04490  Biso   1.000  Cu
  Cu48     1.0000 0.14460  0.80740  0.45510  Biso   1.000  Cu
  I45      1.0000 0.21190  0.49670  0.19280  Biso   1.000  I
  I46      1.0000 0.78810  0.99670  0.30720  Biso   1.000  I
  I47      1.0000 0.78810  0.50330  0.80720  Biso   1.000  I
  I48      1.0000 0.21190  0.00330  0.69280  Biso   1.000  I
