data_image0
_cell_length_a       20.0077
_cell_length_b       13.5582
_cell_length_c       10.1293
_cell_angle_alpha    90
_cell_angle_beta     100.274
_cell_angle_gamma    90

_symmetry_space_group_name_H-M    "P 1"
_symmetry_int_tables_number       1

loop_
  _symmetry_equiv_pos_as_xyz
  'x, y, z'

loop_
  _atom_site_label
  _atom_site_occupancy
  _atom_site_fract_x
  _atom_site_fract_y
  _atom_site_fract_z
  _atom_site_thermal_displace_type
  _atom_site_B_iso_or_equiv
  _atom_site_type_symbol
  Br1      1.0000 0.56653  0.96237  0.35398  Biso   1.000  Br
  Br2      1.0000 0.43347  0.96237  0.64602  Biso   1.000  Br
  Br3      1.0000 0.06653  0.46237  0.35398  Biso   1.000  Br
  Br4      1.0000 0.93347  0.46237  0.64602  Biso   1.000  Br
  Br5      1.0000 0.50000  0.79884  0.00000  Biso   1.000  Br
  Br6      1.0000 0.00000  0.29884  0.00000  Biso   1.000  Br
  Br7      1.0000 0.50000  0.50617  0.00000  Biso   1.000  Br
  Br8      1.0000 0.00000  0.00617  0.00000  Biso   1.000  Br
  Br9      1.0000 0.61105  0.66393  0.32640  Biso   1.000  Br
  Br10     1.0000 0.38895  0.66393  0.67360  Biso   1.000  Br
  Br11     1.0000 0.11105  0.16393  0.32640  Biso   1.000  Br
  Br12     1.0000 0.88895  0.16393  0.67360  Biso   1.000  Br
  Br13     1.0000 0.67844  0.59405  0.98750  Biso   1.000  Br
  Br14     1.0000 0.32156  0.59405  0.01250  Biso   1.000  Br
  Br15     1.0000 0.17844  0.09405  0.98750  Biso   1.000  Br
  Br16     1.0000 0.82156  0.09405  0.01250  Biso   1.000  Br
  Br17     1.0000 0.71917  0.89018  0.16792  Biso   1.000  Br
  Br18     1.0000 0.28083  0.89018  0.83208  Biso   1.000  Br
  Br19     1.0000 0.21917  0.39018  0.16792  Biso   1.000  Br
  Br20     1.0000 0.78083  0.39018  0.83208  Biso   1.000  Br
  Cu1      1.0000 0.45172  0.92187  0.25194  Biso   1.000  Cu
  Cu2      1.0000 0.54828  0.92187  0.74806  Biso   1.000  Cu
  Cu3      1.0000 0.95172  0.42187  0.25194  Biso   1.000  Cu
  Cu4      1.0000 0.04828  0.42187  0.74806  Biso   1.000  Cu
  Cu5      1.0000 0.61943  0.83047  0.25770  Biso   1.000  Cu
  Cu6      1.0000 0.38057  0.83047  0.74230  Biso   1.000  Cu
  Cu7      1.0000 0.11943  0.33047  0.25770  Biso   1.000  Cu
  Cu8      1.0000 0.88057  0.33047  0.74230  Biso   1.000  Cu
  Cu9      1.0000 0.56877  0.64696  0.08350  Biso   1.000  Cu
  Cu10     1.0000 0.43123  0.64696  0.91650  Biso   1.000  Cu
  Cu11     1.0000 0.06877  0.14696  0.08350  Biso   1.000  Cu
  Cu12     1.0000 0.93123  0.14696  0.91650  Biso   1.000  Cu
  Cu13     1.0000 0.69226  0.73408  0.11090  Biso   1.000  Cu
  Cu14     1.0000 0.30774  0.73408  0.88910  Biso   1.000  Cu
  Cu15     1.0000 0.19226  0.23408  0.11090  Biso   1.000  Cu
  Cu16     1.0000 0.80774  0.23408  0.88910  Biso   1.000  Cu
  O1       1.0000 0.41340  0.39790  0.40820  Biso   1.000  O
  O2       1.0000 0.58660  0.39790  0.59180  Biso   1.000  O
  O3       1.0000 0.91340  0.89790  0.40820  Biso   1.000  O
  O4       1.0000 0.08660  0.89790  0.59180  Biso   1.000  O
  O5       1.0000 0.41950  0.28560  0.77380  Biso   1.000  O
  O6       1.0000 0.58050  0.28560  0.22620  Biso   1.000  O
  O7       1.0000 0.91950  0.78560  0.77380  Biso   1.000  O
  O8       1.0000 0.08050  0.78560  0.22620  Biso   1.000  O
  H1       1.0000 0.41320  0.33340  0.72350  Biso   1.000  H
  H2       1.0000 0.58680  0.33340  0.27650  Biso   1.000  H
  H3       1.0000 0.91320  0.83340  0.72350  Biso   1.000  H
  H4       1.0000 0.08680  0.83340  0.27650  Biso   1.000  H
  N1       1.0000 0.42220  0.04310  0.14600  Biso   1.000  N
  N2       1.0000 0.57780  0.04310  0.85400  Biso   1.000  N
  N3       1.0000 0.92220  0.54310  0.14600  Biso   1.000  N
  N4       1.0000 0.07780  0.54310  0.85400  Biso   1.000  N
  C1       1.0000 0.22990  0.28840  0.63540  Biso   1.000  C
  C2       1.0000 0.77010  0.28840  0.36460  Biso   1.000  C
  C3       1.0000 0.72990  0.78840  0.63540  Biso   1.000  C
  C4       1.0000 0.27010  0.78840  0.36460  Biso   1.000  C
  H5       1.0000 0.20360  0.23720  0.58100  Biso   1.000  H
  H6       1.0000 0.79640  0.23720  0.41900  Biso   1.000  H
  H7       1.0000 0.70360  0.73720  0.58100  Biso   1.000  H
  H8       1.0000 0.29640  0.73720  0.41900  Biso   1.000  H
  C5       1.0000 0.41730  0.03990  0.01280  Biso   1.000  C
  C6       1.0000 0.58270  0.03990  0.98720  Biso   1.000  C
  C7       1.0000 0.91730  0.53990  0.01280  Biso   1.000  C
  C8       1.0000 0.08270  0.53990  0.98720  Biso   1.000  C
  H9       1.0000 0.42100  0.97890  0.97300  Biso   1.000  H
  H10      1.0000 0.57900  0.97890  0.02700  Biso   1.000  H
  H11      1.0000 0.92100  0.47890  0.97300  Biso   1.000  H
  H12      1.0000 0.07900  0.47890  0.02700  Biso   1.000  H
  C9       1.0000 0.40690  0.12260  0.92980  Biso   1.000  C
  C10      1.0000 0.59310  0.12260  0.07020  Biso   1.000  C
  C11      1.0000 0.90690  0.62260  0.92980  Biso   1.000  C
  C12      1.0000 0.09310  0.62260  0.07020  Biso   1.000  C
  H13      1.0000 0.40450  0.11570  0.83780  Biso   1.000  H
  H14      1.0000 0.59550  0.11570  0.16220  Biso   1.000  H
  H15      1.0000 0.90450  0.61570  0.83780  Biso   1.000  H
  H16      1.0000 0.09550  0.61570  0.16220  Biso   1.000  H
  C13      1.0000 0.40020  0.21490  0.98460  Biso   1.000  C
  C14      1.0000 0.59980  0.21490  0.01540  Biso   1.000  C
  C15      1.0000 0.90020  0.71490  0.98460  Biso   1.000  C
  C16      1.0000 0.09980  0.71490  0.01540  Biso   1.000  C
  C17      1.0000 0.40590  0.22400  0.12620  Biso   1.000  C
  C18      1.0000 0.59410  0.22400  0.87380  Biso   1.000  C
  C19      1.0000 0.90590  0.72400  0.12620  Biso   1.000  C
  C20      1.0000 0.09410  0.72400  0.87380  Biso   1.000  C
  C21      1.0000 0.40480  0.31430  0.19310  Biso   1.000  C
  C22      1.0000 0.59520  0.31430  0.80690  Biso   1.000  C
  C23      1.0000 0.90480  0.81430  0.19310  Biso   1.000  C
  C24      1.0000 0.09520  0.81430  0.80690  Biso   1.000  C
  H17      1.0000 0.39960  0.37310  0.14530  Biso   1.000  H
  H18      1.0000 0.60040  0.37310  0.85470  Biso   1.000  H
  H19      1.0000 0.89960  0.87310  0.14530  Biso   1.000  H
  H20      1.0000 0.10040  0.87310  0.85470  Biso   1.000  H
  C25      1.0000 0.41170  0.31460  0.33340  Biso   1.000  C
  C26      1.0000 0.58830  0.31460  0.66660  Biso   1.000  C
  C27      1.0000 0.91170  0.81460  0.33340  Biso   1.000  C
  C28      1.0000 0.08830  0.81460  0.66660  Biso   1.000  C
  C29      1.0000 0.42010  0.22660  0.40460  Biso   1.000  C
  C30      1.0000 0.57990  0.22660  0.59540  Biso   1.000  C
  C31      1.0000 0.92010  0.72660  0.40460  Biso   1.000  C
  C32      1.0000 0.07990  0.72660  0.59540  Biso   1.000  C
  H21      1.0000 0.42500  0.22790  0.49770  Biso   1.000  H
  H22      1.0000 0.57500  0.22790  0.50230  Biso   1.000  H
  H23      1.0000 0.92500  0.72790  0.49770  Biso   1.000  H
  H24      1.0000 0.07500  0.72790  0.50230  Biso   1.000  H
  C33      1.0000 0.42130  0.14070  0.34260  Biso   1.000  C
  C34      1.0000 0.57870  0.14070  0.65740  Biso   1.000  C
  C35      1.0000 0.92130  0.64070  0.34260  Biso   1.000  C
  C36      1.0000 0.07870  0.64070  0.65740  Biso   1.000  C
  H25      1.0000 0.42540  0.08290  0.39290  Biso   1.000  H
  H26      1.0000 0.57460  0.08290  0.60710  Biso   1.000  H
  H27      1.0000 0.92540  0.58290  0.39290  Biso   1.000  H
  H28      1.0000 0.07460  0.58290  0.60710  Biso   1.000  H
  C37      1.0000 0.41670  0.13460  0.20350  Biso   1.000  C
  C38      1.0000 0.58330  0.13460  0.79650  Biso   1.000  C
  C39      1.0000 0.91670  0.63460  0.20350  Biso   1.000  C
  C40      1.0000 0.08330  0.63460  0.79650  Biso   1.000  C
  C41      1.0000 0.41120  0.49370  0.34570  Biso   1.000  C
  C42      1.0000 0.58880  0.49370  0.65430  Biso   1.000  C
  C43      1.0000 0.91120  0.99370  0.34570  Biso   1.000  C
  C44      1.0000 0.08880  0.99370  0.65430  Biso   1.000  C
  H29      1.0000 0.41300  0.54400  0.41290  Biso   1.000  H
  H30      1.0000 0.58700  0.54400  0.58710  Biso   1.000  H
  H31      1.0000 0.91300  0.04400  0.41290  Biso   1.000  H
  H32      1.0000 0.08700  0.04400  0.58710  Biso   1.000  H
  H33      1.0000 0.36990  0.50010  0.28160  Biso   1.000  H
  H34      1.0000 0.63010  0.50010  0.71840  Biso   1.000  H
  H35      1.0000 0.86990  0.00010  0.28160  Biso   1.000  H
  H36      1.0000 0.13010  0.00010  0.71840  Biso   1.000  H
  H37      1.0000 0.44940  0.50080  0.30080  Biso   1.000  H
  H38      1.0000 0.55060  0.50080  0.69920  Biso   1.000  H
  H39      1.0000 0.94940  0.00080  0.30080  Biso   1.000  H
  H40      1.0000 0.05060  0.00080  0.69920  Biso   1.000  H
  C45      1.0000 0.38910  0.30370  0.89060  Biso   1.000  C
  C46      1.0000 0.61090  0.30370  0.10940  Biso   1.000  C
  C47      1.0000 0.88910  0.80370  0.89060  Biso   1.000  C
  C48      1.0000 0.11090  0.80370  0.10940  Biso   1.000  C
  H41      1.0000 0.40970  0.36240  0.93770  Biso   1.000  H
  H42      1.0000 0.59030  0.36240  0.06230  Biso   1.000  H
  H43      1.0000 0.90970  0.86240  0.93770  Biso   1.000  H
  H44      1.0000 0.09030  0.86240  0.06230  Biso   1.000  H
  C49      1.0000 0.31270  0.32070  0.84550  Biso   1.000  C
  C50      1.0000 0.68730  0.32070  0.15450  Biso   1.000  C
  C51      1.0000 0.81270  0.82070  0.84550  Biso   1.000  C
  C52      1.0000 0.18730  0.82070  0.15450  Biso   1.000  C
  H45      1.0000 0.29290  0.32470  0.92720  Biso   1.000  H
  H46      1.0000 0.70710  0.32470  0.07280  Biso   1.000  H
  H47      1.0000 0.79290  0.82470  0.92720  Biso   1.000  H
  H48      1.0000 0.20710  0.82470  0.07280  Biso   1.000  H
  C53      1.0000 0.27410  0.24200  0.75940  Biso   1.000  C
  C54      1.0000 0.72590  0.24200  0.24060  Biso   1.000  C
  C55      1.0000 0.77410  0.74200  0.75940  Biso   1.000  C
  C56      1.0000 0.22590  0.74200  0.24060  Biso   1.000  C
  H49      1.0000 0.24540  0.20610  0.81070  Biso   1.000  H
  H50      1.0000 0.75460  0.20610  0.18930  Biso   1.000  H
  H51      1.0000 0.74540  0.70610  0.81070  Biso   1.000  H
  H52      1.0000 0.25460  0.70610  0.18930  Biso   1.000  H
  H53      1.0000 0.30570  0.19560  0.73130  Biso   1.000  H
  H54      1.0000 0.69430  0.19560  0.26870  Biso   1.000  H
  H55      1.0000 0.80570  0.69560  0.73130  Biso   1.000  H
  H56      1.0000 0.19430  0.69560  0.26870  Biso   1.000  H
  N5       1.0000 0.29880  0.41970  0.77380  Biso   1.000  N
  N6       1.0000 0.70120  0.41970  0.22620  Biso   1.000  N
  N7       1.0000 0.79880  0.91970  0.77380  Biso   1.000  N
  N8       1.0000 0.20120  0.91970  0.22620  Biso   1.000  N
  H57      1.0000 0.32390  0.46660  0.82440  Biso   1.000  H
  H58      1.0000 0.67610  0.46660  0.17560  Biso   1.000  H
  H59      1.0000 0.82390  0.96660  0.82440  Biso   1.000  H
  H60      1.0000 0.17610  0.96660  0.17560  Biso   1.000  H
  C57      1.0000 0.31660  0.42190  0.63570  Biso   1.000  C
  C58      1.0000 0.68340  0.42190  0.36430  Biso   1.000  C
  C59      1.0000 0.81660  0.92190  0.63570  Biso   1.000  C
  C60      1.0000 0.18340  0.92190  0.36430  Biso   1.000  C
  H61      1.0000 0.36490  0.41060  0.64120  Biso   1.000  H
  H62      1.0000 0.63510  0.41060  0.35880  Biso   1.000  H
  H63      1.0000 0.86490  0.91060  0.64120  Biso   1.000  H
  H64      1.0000 0.13510  0.91060  0.35880  Biso   1.000  H
  H65      1.0000 0.30550  0.48580  0.59460  Biso   1.000  H
  H66      1.0000 0.69450  0.48580  0.40540  Biso   1.000  H
  H67      1.0000 0.80550  0.98580  0.59460  Biso   1.000  H
  H68      1.0000 0.19450  0.98580  0.40540  Biso   1.000  H
  C61      1.0000 0.27630  0.34160  0.55250  Biso   1.000  C
  C62      1.0000 0.72370  0.34160  0.44750  Biso   1.000  C
  C63      1.0000 0.77630  0.84160  0.55250  Biso   1.000  C
  C64      1.0000 0.22370  0.84160  0.44750  Biso   1.000  C
  H69      1.0000 0.30720  0.29460  0.52350  Biso   1.000  H
  H70      1.0000 0.69280  0.29460  0.47650  Biso   1.000  H
  H71      1.0000 0.80720  0.79460  0.52350  Biso   1.000  H
  H72      1.0000 0.19280  0.79460  0.47650  Biso   1.000  H
  H73      1.0000 0.24900  0.37060  0.47320  Biso   1.000  H
  H74      1.0000 0.75100  0.37060  0.52680  Biso   1.000  H
  H75      1.0000 0.74900  0.87060  0.47320  Biso   1.000  H
  H76      1.0000 0.25100  0.87060  0.52680  Biso   1.000  H
  C65      1.0000 0.22470  0.44320  0.76910  Biso   1.000  C
  C66      1.0000 0.77530  0.44320  0.23090  Biso   1.000  C
  C67      1.0000 0.72470  0.94320  0.76910  Biso   1.000  C
  C68      1.0000 0.27530  0.94320  0.23090  Biso   1.000  C
  H77      1.0000 0.21480  0.50910  0.73400  Biso   1.000  H
  H78      1.0000 0.78520  0.50910  0.26600  Biso   1.000  H
  H79      1.0000 0.71480  0.00910  0.73400  Biso   1.000  H
  H80      1.0000 0.28520  0.00910  0.26600  Biso   1.000  H
  H81      1.0000 0.21410  0.44050  0.85890  Biso   1.000  H
  H82      1.0000 0.78590  0.44050  0.14110  Biso   1.000  H
  H83      1.0000 0.71410  0.94050  0.85890  Biso   1.000  H
  H84      1.0000 0.28590  0.94050  0.14110  Biso   1.000  H
  C69      1.0000 0.18120  0.36710  0.67810  Biso   1.000  C
  C70      1.0000 0.81880  0.36710  0.32190  Biso   1.000  C
  C71      1.0000 0.68120  0.86710  0.67810  Biso   1.000  C
  C72      1.0000 0.31880  0.86710  0.32190  Biso   1.000  C
  H85      1.0000 0.15910  0.40160  0.59690  Biso   1.000  H
  H86      1.0000 0.84090  0.40160  0.40310  Biso   1.000  H
  H87      1.0000 0.65910  0.90160  0.59690  Biso   1.000  H
  H88      1.0000 0.34090  0.90160  0.40310  Biso   1.000  H
  C73      1.0000 0.12660  0.32320  0.74280  Biso   1.000  C
  C74      1.0000 0.87340  0.32320  0.25720  Biso   1.000  C
  C75      1.0000 0.62660  0.82320  0.74280  Biso   1.000  C
  C76      1.0000 0.37340  0.82320  0.25720  Biso   1.000  C
  H89      1.0000 0.14320  0.28980  0.82820  Biso   1.000  H
  H90      1.0000 0.85680  0.28980  0.17180  Biso   1.000  H
  H91      1.0000 0.64320  0.78980  0.82820  Biso   1.000  H
  H92      1.0000 0.35680  0.78980  0.17180  Biso   1.000  H
  C77      1.0000 0.06690  0.28650  0.67300  Biso   1.000  C
  C78      1.0000 0.93310  0.28650  0.32700  Biso   1.000  C
  C79      1.0000 0.56690  0.78650  0.67300  Biso   1.000  C
  C80      1.0000 0.43310  0.78650  0.32700  Biso   1.000  C
  H93      1.0000 0.04790  0.23000  0.71200  Biso   1.000  H
  H94      1.0000 0.95210  0.23000  0.28800  Biso   1.000  H
  H95      1.0000 0.54790  0.73000  0.71200  Biso   1.000  H
  H96      1.0000 0.45210  0.73000  0.28800  Biso   1.000  H
  H97      1.0000 0.06330  0.28200  0.57640  Biso   1.000  H
  H98      1.0000 0.93670  0.28200  0.42360  Biso   1.000  H
  H99      1.0000 0.56330  0.78200  0.57640  Biso   1.000  H
  H100     1.0000 0.43670  0.78200  0.42360  Biso   1.000  H
