data_image0
_cell_length_a       19.886
_cell_length_b       13.06
_cell_length_c       9.961
_cell_angle_alpha    90
_cell_angle_beta     99.71
_cell_angle_gamma    90

_symmetry_space_group_name_H-M    "P 1"
_symmetry_int_tables_number       1

loop_
  _symmetry_equiv_pos_as_xyz
  'x, y, z'

loop_
  _atom_site_label
  _atom_site_occupancy
  _atom_site_fract_x
  _atom_site_fract_y
  _atom_site_fract_z
  _atom_site_thermal_displace_type
  _atom_site_B_iso_or_equiv
  _atom_site_type_symbol
  Cu1      1.0000 0.95733  0.37947  0.75224  Biso   1.000  Cu
  Cu2      1.0000 0.04267  0.37947  0.24776  Biso   1.000  Cu
  Cu3      1.0000 0.45733  0.87947  0.75224  Biso   1.000  Cu
  Cu4      1.0000 0.54267  0.87947  0.24776  Biso   1.000  Cu
  Cl1      1.0000 0.06597  0.42011  0.85032  Biso   1.000  Cl
  Cl2      1.0000 0.93403  0.42011  0.14968  Biso   1.000  Cl
  Cl3      1.0000 0.56597  0.92011  0.85032  Biso   1.000  Cl
  Cl4      1.0000 0.43403  0.92011  0.14968  Biso   1.000  Cl
  Cu5      1.0000 0.12064  0.29121  0.76430  Biso   1.000  Cu
  Cu6      1.0000 0.87936  0.29121  0.23570  Biso   1.000  Cu
  Cu7      1.0000 0.62064  0.79121  0.76430  Biso   1.000  Cu
  Cu8      1.0000 0.37936  0.79121  0.23570  Biso   1.000  Cu
  Cl5      1.0000 0.10969  0.12610  0.81930  Biso   1.000  Cl
  Cl6      1.0000 0.89031  0.12610  0.18070  Biso   1.000  Cl
  Cl7      1.0000 0.60969  0.62610  0.81930  Biso   1.000  Cl
  Cl8      1.0000 0.39031  0.62610  0.18070  Biso   1.000  Cl
  Cu9      1.0000 0.19326  0.19635  0.59484  Biso   1.000  Cu
  Cu10     1.0000 0.80674  0.19635  0.40516  Biso   1.000  Cu
  Cu11     1.0000 0.69326  0.69635  0.59484  Biso   1.000  Cu
  Cu12     1.0000 0.30674  0.69635  0.40516  Biso   1.000  Cu
  Cl9      1.0000 0.21317  0.34799  0.66520  Biso   1.000  Cl
  Cl10     1.0000 0.78683  0.34799  0.33480  Biso   1.000  Cl
  Cl11     1.0000 0.71317  0.84799  0.66520  Biso   1.000  Cl
  Cl12     1.0000 0.28683  0.84799  0.33480  Biso   1.000  Cl
  Cl13     1.0000 0.17648  0.05379  0.49350  Biso   1.000  Cl
  Cl14     1.0000 0.82352  0.05379  0.50650  Biso   1.000  Cl
  Cl15     1.0000 0.67648  0.55379  0.49350  Biso   1.000  Cl
  Cl16     1.0000 0.32352  0.55379  0.50650  Biso   1.000  Cl
  Cl17     1.0000 0.00000  0.25693  0.50000  Biso   1.000  Cl
  Cl18     1.0000 0.50000  0.75693  0.50000  Biso   1.000  Cl
  Cu13     1.0000 0.06309  0.10969  0.59594  Biso   1.000  Cu
  Cu14     1.0000 0.93691  0.10969  0.40406  Biso   1.000  Cu
  Cu15     1.0000 0.56309  0.60969  0.59594  Biso   1.000  Cu
  Cu16     1.0000 0.43691  0.60969  0.40406  Biso   1.000  Cu
  N1       1.0000 0.92620  0.50390  0.64350  Biso   1.000  N
  N2       1.0000 0.07380  0.50390  0.35650  Biso   1.000  N
  N3       1.0000 0.42620  0.00390  0.64350  Biso   1.000  N
  N4       1.0000 0.57380  0.00390  0.35650  Biso   1.000  N
  C1       1.0000 0.91950  0.59790  0.70040  Biso   1.000  C
  C2       1.0000 0.08050  0.59790  0.29960  Biso   1.000  C
  C3       1.0000 0.41950  0.09790  0.70040  Biso   1.000  C
  C4       1.0000 0.58050  0.09790  0.29960  Biso   1.000  C
  O1       1.0000 0.90950  0.87160  0.90910  Biso   1.000  O
  O2       1.0000 0.09050  0.87160  0.09090  Biso   1.000  O
  O3       1.0000 0.40950  0.37160  0.90910  Biso   1.000  O
  O4       1.0000 0.59050  0.37160  0.09090  Biso   1.000  O
  C5       1.0000 0.91080  0.78660  0.83290  Biso   1.000  C
  C6       1.0000 0.08920  0.78660  0.16710  Biso   1.000  C
  C7       1.0000 0.41080  0.28660  0.83290  Biso   1.000  C
  C8       1.0000 0.58920  0.28660  0.16710  Biso   1.000  C
  C9       1.0000 0.90460  0.78330  0.69390  Biso   1.000  C
  C10      1.0000 0.09540  0.78330  0.30610  Biso   1.000  C
  C11      1.0000 0.40460  0.28330  0.69390  Biso   1.000  C
  C12      1.0000 0.59540  0.28330  0.30610  Biso   1.000  C
  H1       1.0000 0.89820  0.84400  0.64440  Biso   1.000  H
  H2       1.0000 0.10180  0.84400  0.35560  Biso   1.000  H
  H3       1.0000 0.39820  0.34400  0.64440  Biso   1.000  H
  H4       1.0000 0.60180  0.34400  0.35560  Biso   1.000  H
  C13      1.0000 0.90750  0.68960  0.62420  Biso   1.000  C
  C14      1.0000 0.09250  0.68960  0.37580  Biso   1.000  C
  C15      1.0000 0.40750  0.18960  0.62420  Biso   1.000  C
  C16      1.0000 0.59250  0.18960  0.37580  Biso   1.000  C
  C17      1.0000 0.90150  0.68160  0.47900  Biso   1.000  C
  C18      1.0000 0.09850  0.68160  0.52100  Biso   1.000  C
  C19      1.0000 0.40150  0.18160  0.47900  Biso   1.000  C
  C20      1.0000 0.59850  0.18160  0.52100  Biso   1.000  C
  C21      1.0000 0.90890  0.58600  0.42380  Biso   1.000  C
  C22      1.0000 0.09110  0.58600  0.57620  Biso   1.000  C
  C23      1.0000 0.40890  0.08600  0.42380  Biso   1.000  C
  C24      1.0000 0.59110  0.08600  0.57620  Biso   1.000  C
  H5       1.0000 0.90640  0.57870  0.33020  Biso   1.000  H
  H6       1.0000 0.09360  0.57870  0.66980  Biso   1.000  H
  H7       1.0000 0.40640  0.07870  0.33020  Biso   1.000  H
  H8       1.0000 0.59360  0.07870  0.66980  Biso   1.000  H
  C25      1.0000 0.92060  0.69370  0.90790  Biso   1.000  C
  C26      1.0000 0.07940  0.69370  0.09210  Biso   1.000  C
  C27      1.0000 0.42060  0.19370  0.90790  Biso   1.000  C
  C28      1.0000 0.57940  0.19370  0.09210  Biso   1.000  C
  H9       1.0000 0.92380  0.69540  0.00210  Biso   1.000  H
  H10      1.0000 0.07620  0.69540  0.99790  Biso   1.000  H
  H11      1.0000 0.42380  0.19540  0.00210  Biso   1.000  H
  H12      1.0000 0.57620  0.19540  0.99790  Biso   1.000  H
  C29      1.0000 0.92000  0.50030  0.50870  Biso   1.000  C
  C30      1.0000 0.08000  0.50030  0.49130  Biso   1.000  C
  C31      1.0000 0.42000  0.00030  0.50870  Biso   1.000  C
  C32      1.0000 0.58000  0.00030  0.49130  Biso   1.000  C
  H13      1.0000 0.92340  0.43680  0.46830  Biso   1.000  H
  H14      1.0000 0.07660  0.43680  0.53170  Biso   1.000  H
  H15      1.0000 0.42340  0.93680  0.46830  Biso   1.000  H
  H16      1.0000 0.57660  0.93680  0.53170  Biso   1.000  H
  C33      1.0000 0.92520  0.60360  0.84550  Biso   1.000  C
  C34      1.0000 0.07480  0.60360  0.15450  Biso   1.000  C
  C35      1.0000 0.42520  0.10360  0.84550  Biso   1.000  C
  C36      1.0000 0.57480  0.10360  0.15450  Biso   1.000  C
  H17      1.0000 0.93220  0.54410  0.89710  Biso   1.000  H
  H18      1.0000 0.06780  0.54410  0.10290  Biso   1.000  H
  H19      1.0000 0.43220  0.04410  0.89710  Biso   1.000  H
  H20      1.0000 0.56780  0.04410  0.10290  Biso   1.000  H
  C37      1.0000 0.90350  0.96910  0.84280  Biso   1.000  C
  C38      1.0000 0.09650  0.96910  0.15720  Biso   1.000  C
  C39      1.0000 0.40350  0.46910  0.84280  Biso   1.000  C
  C40      1.0000 0.59650  0.46910  0.15720  Biso   1.000  C
  H21      1.0000 0.90330  0.02210  0.90940  Biso   1.000  H
  H22      1.0000 0.09670  0.02210  0.09060  Biso   1.000  H
  H23      1.0000 0.40330  0.52210  0.90940  Biso   1.000  H
  H24      1.0000 0.59670  0.52210  0.09060  Biso   1.000  H
  H25      1.0000 0.86180  0.97150  0.77850  Biso   1.000  H
  H26      1.0000 0.13820  0.97150  0.22150  Biso   1.000  H
  H27      1.0000 0.36180  0.47150  0.77850  Biso   1.000  H
  H28      1.0000 0.63820  0.47150  0.22150  Biso   1.000  H
  H29      1.0000 0.94140  0.97900  0.79600  Biso   1.000  H
  H30      1.0000 0.05860  0.97900  0.20400  Biso   1.000  H
  H31      1.0000 0.44140  0.47900  0.79600  Biso   1.000  H
  H32      1.0000 0.55860  0.47900  0.20400  Biso   1.000  H
  C41      1.0000 0.88780  0.77310  0.38570  Biso   1.000  C
  C42      1.0000 0.11220  0.77310  0.61430  Biso   1.000  C
  C43      1.0000 0.38780  0.27310  0.38570  Biso   1.000  C
  C44      1.0000 0.61220  0.27310  0.61430  Biso   1.000  C
  H33      1.0000 0.90760  0.83440  0.43350  Biso   1.000  H
  H34      1.0000 0.09240  0.83440  0.56650  Biso   1.000  H
  H35      1.0000 0.40760  0.33440  0.43350  Biso   1.000  H
  H36      1.0000 0.59240  0.33440  0.56650  Biso   1.000  H
  O5       1.0000 0.91730  0.75790  0.26570  Biso   1.000  O
  O6       1.0000 0.08270  0.75790  0.73430  Biso   1.000  O
  O7       1.0000 0.41730  0.25790  0.26570  Biso   1.000  O
  O8       1.0000 0.58270  0.25790  0.73430  Biso   1.000  O
  H37      1.0000 0.95860  0.74990  0.28720  Biso   1.000  H
  H38      1.0000 0.04140  0.74990  0.71280  Biso   1.000  H
  H39      1.0000 0.45860  0.24990  0.28720  Biso   1.000  H
  H40      1.0000 0.54140  0.24990  0.71280  Biso   1.000  H
  C45      1.0000 0.81040  0.78790  0.34320  Biso   1.000  C
  C46      1.0000 0.18960  0.78790  0.65680  Biso   1.000  C
  C47      1.0000 0.31040  0.28790  0.34320  Biso   1.000  C
  C48      1.0000 0.68960  0.28790  0.65680  Biso   1.000  C
  H41      1.0000 0.79100  0.79000  0.42720  Biso   1.000  H
  H42      1.0000 0.20900  0.79000  0.57280  Biso   1.000  H
  H43      1.0000 0.29100  0.29000  0.42720  Biso   1.000  H
  H44      1.0000 0.70900  0.29000  0.57280  Biso   1.000  H
  N5       1.0000 0.79410  0.89030  0.27190  Biso   1.000  N
  N6       1.0000 0.20590  0.89030  0.72810  Biso   1.000  N
  N7       1.0000 0.29410  0.39030  0.27190  Biso   1.000  N
  N8       1.0000 0.70590  0.39030  0.72810  Biso   1.000  N
  H45      1.0000 0.81850  0.94040  0.32160  Biso   1.000  H
  H46      1.0000 0.18150  0.94040  0.67840  Biso   1.000  H
  H47      1.0000 0.31850  0.44040  0.32160  Biso   1.000  H
  H48      1.0000 0.68150  0.44040  0.67840  Biso   1.000  H
  C49      1.0000 0.77310  0.70410  0.25490  Biso   1.000  C
  C50      1.0000 0.22690  0.70410  0.74510  Biso   1.000  C
  C51      1.0000 0.27310  0.20410  0.25490  Biso   1.000  C
  C52      1.0000 0.72690  0.20410  0.74510  Biso   1.000  C
  H49      1.0000 0.74560  0.66440  0.30780  Biso   1.000  H
  H50      1.0000 0.25440  0.66440  0.69220  Biso   1.000  H
  H51      1.0000 0.24560  0.16440  0.30780  Biso   1.000  H
  H52      1.0000 0.75440  0.16440  0.69220  Biso   1.000  H
  H53      1.0000 0.80590  0.65840  0.22430  Biso   1.000  H
  H54      1.0000 0.19410  0.65840  0.77570  Biso   1.000  H
  H55      1.0000 0.30590  0.15840  0.22430  Biso   1.000  H
  H56      1.0000 0.69410  0.15840  0.77570  Biso   1.000  H
  C53      1.0000 0.72690  0.75160  0.13080  Biso   1.000  C
  C54      1.0000 0.27310  0.75160  0.86920  Biso   1.000  C
  C55      1.0000 0.22690  0.25160  0.13080  Biso   1.000  C
  C56      1.0000 0.77310  0.25160  0.86920  Biso   1.000  C
  H57      1.0000 0.70140  0.69760  0.07570  Biso   1.000  H
  H58      1.0000 0.29860  0.69760  0.92430  Biso   1.000  H
  H59      1.0000 0.20140  0.19760  0.07570  Biso   1.000  H
  H60      1.0000 0.79860  0.19760  0.92430  Biso   1.000  H
  C57      1.0000 0.67670  0.83020  0.17530  Biso   1.000  C
  C58      1.0000 0.32330  0.83020  0.82470  Biso   1.000  C
  C59      1.0000 0.17670  0.33020  0.17530  Biso   1.000  C
  C60      1.0000 0.82330  0.33020  0.82470  Biso   1.000  C
  H61      1.0000 0.65380  0.86570  0.09360  Biso   1.000  H
  H62      1.0000 0.34620  0.86570  0.90640  Biso   1.000  H
  H63      1.0000 0.15380  0.36570  0.09360  Biso   1.000  H
  H64      1.0000 0.84620  0.36570  0.90640  Biso   1.000  H
  C61      1.0000 0.77210  0.80980  0.04560  Biso   1.000  C
  C62      1.0000 0.22790  0.80980  0.95440  Biso   1.000  C
  C63      1.0000 0.27210  0.30980  0.04560  Biso   1.000  C
  C64      1.0000 0.72790  0.30980  0.95440  Biso   1.000  C
  H65      1.0000 0.80450  0.76300  0.01590  Biso   1.000  H
  H66      1.0000 0.19550  0.76300  0.98410  Biso   1.000  H
  H67      1.0000 0.30450  0.26300  0.01590  Biso   1.000  H
  H68      1.0000 0.69550  0.26300  0.98410  Biso   1.000  H
  H69      1.0000 0.74400  0.83850  0.96530  Biso   1.000  H
  H70      1.0000 0.25600  0.83850  0.03470  Biso   1.000  H
  H71      1.0000 0.24400  0.33850  0.96530  Biso   1.000  H
  H72      1.0000 0.75600  0.33850  0.03470  Biso   1.000  H
  C65      1.0000 0.80920  0.89300  0.12820  Biso   1.000  C
  C66      1.0000 0.19080  0.89300  0.87180  Biso   1.000  C
  C67      1.0000 0.30920  0.39300  0.12820  Biso   1.000  C
  C68      1.0000 0.69080  0.39300  0.87180  Biso   1.000  C
  H73      1.0000 0.79540  0.95870  0.08700  Biso   1.000  H
  H74      1.0000 0.20460  0.95870  0.91300  Biso   1.000  H
  H75      1.0000 0.29540  0.45870  0.08700  Biso   1.000  H
  H76      1.0000 0.70460  0.45870  0.91300  Biso   1.000  H
  H77      1.0000 0.85780  0.88520  0.13020  Biso   1.000  H
  H78      1.0000 0.14220  0.88520  0.86980  Biso   1.000  H
  H79      1.0000 0.35780  0.38520  0.13020  Biso   1.000  H
  H80      1.0000 0.64220  0.38520  0.86980  Biso   1.000  H
  C69      1.0000 0.62250  0.78040  0.24330  Biso   1.000  C
  C70      1.0000 0.37750  0.78040  0.75670  Biso   1.000  C
  C71      1.0000 0.12250  0.28040  0.24330  Biso   1.000  C
  C72      1.0000 0.87750  0.28040  0.75670  Biso   1.000  C
  H81      1.0000 0.63920  0.74470  0.32890  Biso   1.000  H
  H82      1.0000 0.36080  0.74470  0.67110  Biso   1.000  H
  H83      1.0000 0.13920  0.24470  0.32890  Biso   1.000  H
  H84      1.0000 0.86080  0.24470  0.67110  Biso   1.000  H
  C73      1.0000 0.71900  0.90990  0.26800  Biso   1.000  C
  C74      1.0000 0.28100  0.90990  0.73200  Biso   1.000  C
  C75      1.0000 0.21900  0.40990  0.26800  Biso   1.000  C
  C76      1.0000 0.78100  0.40990  0.73200  Biso   1.000  C
  H85      1.0000 0.70760  0.97820  0.23350  Biso   1.000  H
  H86      1.0000 0.29240  0.97820  0.76650  Biso   1.000  H
  H87      1.0000 0.20760  0.47820  0.23350  Biso   1.000  H
  H88      1.0000 0.79240  0.47820  0.76650  Biso   1.000  H
  H89      1.0000 0.70840  0.90540  0.35930  Biso   1.000  H
  H90      1.0000 0.29160  0.90540  0.64070  Biso   1.000  H
  H91      1.0000 0.20840  0.40540  0.35930  Biso   1.000  H
  H92      1.0000 0.79160  0.40540  0.64070  Biso   1.000  H
  C77      1.0000 0.56460  0.74140  0.16830  Biso   1.000  C
  C78      1.0000 0.43540  0.74140  0.83170  Biso   1.000  C
  C79      1.0000 0.06460  0.24140  0.16830  Biso   1.000  C
  C80      1.0000 0.93540  0.24140  0.83170  Biso   1.000  C
  H93      1.0000 0.54550  0.68120  0.20480  Biso   1.000  H
  H94      1.0000 0.45450  0.68120  0.79520  Biso   1.000  H
  H95      1.0000 0.04550  0.18120  0.20480  Biso   1.000  H
  H96      1.0000 0.95450  0.18120  0.79520  Biso   1.000  H
  H97      1.0000 0.56300  0.73880  0.07050  Biso   1.000  H
  H98      1.0000 0.43700  0.73880  0.92950  Biso   1.000  H
  H99      1.0000 0.06300  0.23880  0.07050  Biso   1.000  H
  H100     1.0000 0.93700  0.23880  0.92950  Biso   1.000  H
  Cl19     1.0000 0.00000  0.97390  0.50000  Biso   1.000  Cl
  Cl20     1.0000 0.50000  0.47390  0.50000  Biso   1.000  Cl
