data_image0
_cell_length_a       13.5704
_cell_length_b       15.2959
_cell_length_c       18.728
_cell_angle_alpha    70.101
_cell_angle_beta     69.167
_cell_angle_gamma    65.368

_symmetry_space_group_name_H-M    "P 1"
_symmetry_int_tables_number       1

loop_
  _symmetry_equiv_pos_as_xyz
  'x, y, z'

loop_
  _atom_site_label
  _atom_site_occupancy
  _atom_site_fract_x
  _atom_site_fract_y
  _atom_site_fract_z
  _atom_site_thermal_displace_type
  _atom_site_B_iso_or_equiv
  _atom_site_type_symbol
  I1       1.0000 0.16114  0.22213  0.12782  Biso   1.000  I
  I2       1.0000 0.83886  0.77787  0.87218  Biso   1.000  I
  I3       1.0000 0.01011  0.24964  0.38023  Biso   1.000  I
  I4       1.0000 0.98989  0.75036  0.61977  Biso   1.000  I
  I5       1.0000 0.37333  0.07014  0.29931  Biso   1.000  I
  I6       1.0000 0.62667  0.92986  0.70069  Biso   1.000  I
  I7       1.0000 0.25249  0.39779  0.22519  Biso   1.000  I
  I8       1.0000 0.74751  0.60221  0.77481  Biso   1.000  I
  Cu1      1.0000 0.09358  0.33516  0.23266  Biso   1.000  Cu
  Cu2      1.0000 0.90642  0.66484  0.76734  Biso   1.000  Cu
  Cu3      1.0000 0.16578  0.13845  0.27806  Biso   1.000  Cu
  Cu4      1.0000 0.83422  0.86155  0.72194  Biso   1.000  Cu
  Cu5      1.0000 0.22560  0.23589  0.33854  Biso   1.000  Cu
  Cu6      1.0000 0.77440  0.76411  0.66146  Biso   1.000  Cu
  Cu7      1.0000 0.31198  0.22815  0.18658  Biso   1.000  Cu
  Cu8      1.0000 0.68802  0.77185  0.81342  Biso   1.000  Cu
  S1       1.0000 0.93900  0.46630  0.20190  Biso   1.000  S
  S2       1.0000 0.06100  0.53370  0.79810  Biso   1.000  S
  S3       1.0000 0.52450  0.77430  0.90880  Biso   1.000  S
  S4       1.0000 0.47550  0.22570  0.09120  Biso   1.000  S
  S5       1.0000 0.12530  0.99710  0.30860  Biso   1.000  S
  S6       1.0000 0.87470  0.00290  0.69140  Biso   1.000  S
  S7       1.0000 0.76980  0.76130  0.53680  Biso   1.000  S
  S8       1.0000 0.23020  0.23870  0.46320  Biso   1.000  S
  O1       1.0000 0.86520  0.69960  0.09750  Biso   1.000  O
  O2       1.0000 0.13480  0.30040  0.90250  Biso   1.000  O
  O3       1.0000 0.63990  0.44130  0.25200  Biso   1.000  O
  O4       1.0000 0.36010  0.55870  0.74800  Biso   1.000  O
  O5       1.0000 0.55150  0.59290  0.11670  Biso   1.000  O
  O6       1.0000 0.44850  0.40710  0.88330  Biso   1.000  O
  O7       1.0000 0.40750  0.91480  0.07630  Biso   1.000  O
  O8       1.0000 0.59250  0.08520  0.92370  Biso   1.000  O
  O9       1.0000 0.19150  0.77530  0.40980  Biso   1.000  O
  O10      1.0000 0.80850  0.22470  0.59020  Biso   1.000  O
  O11      1.0000 0.85140  0.97830  0.29920  Biso   1.000  O
  O12      1.0000 0.14860  0.02170  0.70080  Biso   1.000  O
  O13      1.0000 0.65300  0.93770  0.40450  Biso   1.000  O
  O14      1.0000 0.34700  0.06230  0.59550  Biso   1.000  O
  O15      1.0000 0.90180  0.59870  0.41190  Biso   1.000  O
  O16      1.0000 0.09820  0.40130  0.58810  Biso   1.000  O
  C1       1.0000 0.59440  0.85150  0.13260  Biso   1.000  C
  C2       1.0000 0.40560  0.14850  0.86740  Biso   1.000  C
  H1       1.0000 0.59940  0.88170  0.07850  Biso   1.000  H
  H2       1.0000 0.40060  0.11830  0.92150  Biso   1.000  H
  C3       1.0000 0.49270  0.85680  0.18300  Biso   1.000  C
  C4       1.0000 0.50730  0.14320  0.81700  Biso   1.000  C
  C5       1.0000 0.48670  0.81250  0.26240  Biso   1.000  C
  C6       1.0000 0.51330  0.18750  0.73760  Biso   1.000  C
  H3       1.0000 0.41560  0.81680  0.29810  Biso   1.000  H
  H4       1.0000 0.58440  0.18320  0.70190  Biso   1.000  H
  C7       1.0000 0.58100  0.76310  0.28960  Biso   1.000  C
  C8       1.0000 0.41900  0.23690  0.71040  Biso   1.000  C
  H5       1.0000 0.57640  0.73330  0.34370  Biso   1.000  H
  H6       1.0000 0.42360  0.26670  0.65630  Biso   1.000  H
  C9       1.0000 0.68120  0.75810  0.23630  Biso   1.000  C
  C10      1.0000 0.31880  0.24190  0.76370  Biso   1.000  C
  H7       1.0000 0.74760  0.72180  0.25420  Biso   1.000  H
  H8       1.0000 0.25240  0.27820  0.74580  Biso   1.000  H
  C11      1.0000 0.69140  0.80250  0.15870  Biso   1.000  C
  C12      1.0000 0.30860  0.19750  0.84130  Biso   1.000  C
  C13      1.0000 0.80700  0.79820  0.10470  Biso   1.000  C
  C14      1.0000 0.19300  0.20180  0.89530  Biso   1.000  C
  H9       1.0000 0.80030  0.84270  0.05260  Biso   1.000  H
  H10      1.0000 0.19970  0.15730  0.94740  Biso   1.000  H
  H11      1.0000 0.84730  0.81910  0.12720  Biso   1.000  H
  H12      1.0000 0.15270  0.18090  0.87280  Biso   1.000  H
  C15      1.0000 0.97770  0.67350  0.06600  Biso   1.000  C
  C16      1.0000 0.02230  0.32650  0.93400  Biso   1.000  C
  C17      1.0000 0.04020  0.73620  0.03800  Biso   1.000  C
  C18      1.0000 0.95980  0.26380  0.96200  Biso   1.000  C
  H13      1.0000 0.00430  0.80460  0.03740  Biso   1.000  H
  H14      1.0000 0.99570  0.19540  0.96260  Biso   1.000  H
  C19      1.0000 0.14980  0.69950  0.01210  Biso   1.000  C
  C20      1.0000 0.85020  0.30050  0.98790  Biso   1.000  C
  H15      1.0000 0.19270  0.74170  0.99630  Biso   1.000  H
  H16      1.0000 0.80730  0.25830  0.00370  Biso   1.000  H
  C21      1.0000 0.20300  0.60300  0.00750  Biso   1.000  C
  C22      1.0000 0.79700  0.39700  0.99250  Biso   1.000  C
  H17      1.0000 0.28130  0.58170  0.98310  Biso   1.000  H
  H18      1.0000 0.71870  0.41830  0.01690  Biso   1.000  H
  C23      1.0000 0.14740  0.53780  0.03700  Biso   1.000  C
  C24      1.0000 0.85260  0.46220  0.96300  Biso   1.000  C
  H19      1.0000 0.18700  0.46970  0.03780  Biso   1.000  H
  H20      1.0000 0.81300  0.53030  0.96220  Biso   1.000  H
  C25      1.0000 0.03150  0.57120  0.06620  Biso   1.000  C
  C26      1.0000 0.96850  0.42880  0.93380  Biso   1.000  C
  C27      1.0000 0.96860  0.50360  0.09550  Biso   1.000  C
  C28      1.0000 0.03140  0.49640  0.90450  Biso   1.000  C
  H21      1.0000 0.01230  0.44470  0.07290  Biso   1.000  H
  H22      1.0000 0.98770  0.55530  0.92710  Biso   1.000  H
  H23      1.0000 0.89740  0.53630  0.07910  Biso   1.000  H
  H24      1.0000 0.10260  0.46370  0.92090  Biso   1.000  H
  C29      1.0000 0.83300  0.41260  0.22500  Biso   1.000  C
  C30      1.0000 0.16700  0.58740  0.77500  Biso   1.000  C
  H25      1.0000 0.85860  0.36610  0.19090  Biso   1.000  H
  H26      1.0000 0.14140  0.63390  0.80910  Biso   1.000  H
  H27      1.0000 0.82440  0.37410  0.27990  Biso   1.000  H
  H28      1.0000 0.17560  0.62590  0.72010  Biso   1.000  H
  C31      1.0000 0.71780  0.48830  0.21480  Biso   1.000  C
  C32      1.0000 0.28220  0.51170  0.78520  Biso   1.000  C
  H29      1.0000 0.69860  0.54430  0.23820  Biso   1.000  H
  H30      1.0000 0.30140  0.45570  0.76180  Biso   1.000  H
  H31      1.0000 0.71930  0.51430  0.15840  Biso   1.000  H
  H32      1.0000 0.28070  0.48570  0.84160  Biso   1.000  H
  C33      1.0000 0.53000  0.49800  0.24440  Biso   1.000  C
  C34      1.0000 0.47000  0.50200  0.75560  Biso   1.000  C
  H33      1.0000 0.50920  0.56100  0.25910  Biso   1.000  H
  H34      1.0000 0.49080  0.43900  0.74090  Biso   1.000  H
  H35      1.0000 0.47960  0.46270  0.28400  Biso   1.000  H
  H36      1.0000 0.52040  0.53730  0.71600  Biso   1.000  H
  C35      1.0000 0.50400  0.52200  0.17160  Biso   1.000  C
  C36      1.0000 0.49600  0.47800  0.82840  Biso   1.000  C
  H37      1.0000 0.53420  0.46160  0.15120  Biso   1.000  H
  H38      1.0000 0.46580  0.53840  0.84880  Biso   1.000  H
  H39      1.0000 0.42210  0.54840  0.17900  Biso   1.000  H
  H40      1.0000 0.57790  0.45160  0.82100  Biso   1.000  H
  C37      1.0000 0.50700  0.63900  0.04850  Biso   1.000  C
  C38      1.0000 0.49300  0.36100  0.95150  Biso   1.000  C
  H41      1.0000 0.42580  0.67470  0.06370  Biso   1.000  H
  H42      1.0000 0.57420  0.32530  0.93630  Biso   1.000  H
  H43      1.0000 0.51980  0.58870  0.02110  Biso   1.000  H
  H44      1.0000 0.48020  0.41130  0.97890  Biso   1.000  H
  C39      1.0000 0.56910  0.71120  0.99510  Biso   1.000  C
  C40      1.0000 0.43090  0.28880  0.00490  Biso   1.000  C
  H45      1.0000 0.65040  0.67420  0.98150  Biso   1.000  H
  H46      1.0000 0.34960  0.32580  0.01850  Biso   1.000  H
  H47      1.0000 0.55700  0.75970  0.02400  Biso   1.000  H
  H48      1.0000 0.44300  0.24030  0.97600  Biso   1.000  H
  C41      1.0000 0.46510  0.90080  0.92040  Biso   1.000  C
  C42      1.0000 0.53490  0.09920  0.07960  Biso   1.000  C
  H49      1.0000 0.51110  0.91120  0.94550  Biso   1.000  H
  H50      1.0000 0.48890  0.08880  0.05450  Biso   1.000  H
  H51      1.0000 0.46750  0.94640  0.86800  Biso   1.000  H
  H52      1.0000 0.53250  0.05360  0.13200  Biso   1.000  H
  C43      1.0000 0.34500  0.92510  0.96970  Biso   1.000  C
  C44      1.0000 0.65500  0.07490  0.03030  Biso   1.000  C
  C45      1.0000 0.26210  0.94030  0.94020  Biso   1.000  C
  C46      1.0000 0.73790  0.05970  0.05980  Biso   1.000  C
  H53      1.0000 0.27940  0.93370  0.88810  Biso   1.000  H
  H54      1.0000 0.72060  0.06630  0.11190  Biso   1.000  H
  C47      1.0000 0.14970  0.96580  0.98330  Biso   1.000  C
  C48      1.0000 0.85030  0.03420  0.01670  Biso   1.000  C
  H55      1.0000 0.09250  0.97600  0.96040  Biso   1.000  H
  H56      1.0000 0.90750  0.02400  0.03960  Biso   1.000  H
  C49      1.0000 0.12260  0.97610  0.05960  Biso   1.000  C
  C50      1.0000 0.87740  0.02390  0.94040  Biso   1.000  C
  H57      1.0000 0.04720  0.99030  0.09000  Biso   1.000  H
  H58      1.0000 0.95280  0.00970  0.91000  Biso   1.000  H
  C51      1.0000 0.20740  0.96530  0.09140  Biso   1.000  C
  C52      1.0000 0.79260  0.03470  0.90860  Biso   1.000  C
  H59      1.0000 0.18950  0.97860  0.14130  Biso   1.000  H
  H60      1.0000 0.81050  0.02140  0.85870  Biso   1.000  H
  C53      1.0000 0.31730  0.93500  0.04890  Biso   1.000  C
  C54      1.0000 0.68270  0.06500  0.95110  Biso   1.000  C
  C55      1.0000 0.38670  0.91290  0.15640  Biso   1.000  C
  C56      1.0000 0.61330  0.08710  0.84360  Biso   1.000  C
  H61      1.0000 0.32970  0.88110  0.18850  Biso   1.000  H
  H62      1.0000 0.67030  0.11890  0.81150  Biso   1.000  H
  H63      1.0000 0.35720  0.98130  0.16360  Biso   1.000  H
  H64      1.0000 0.64280  0.01870  0.83640  Biso   1.000  H
  C57      1.0000 0.10780  0.63030  0.36740  Biso   1.000  C
  C58      1.0000 0.89220  0.36970  0.63260  Biso   1.000  C
  H65      1.0000 0.07910  0.60760  0.42190  Biso   1.000  H
  H66      1.0000 0.92090  0.39240  0.57810  Biso   1.000  H
  C59      1.0000 0.06030  0.62480  0.31550  Biso   1.000  C
  C60      1.0000 0.93970  0.37520  0.68450  Biso   1.000  C
  C61      1.0000 0.10600  0.66520  0.23340  Biso   1.000  C
  C62      1.0000 0.89400  0.33480  0.76660  Biso   1.000  C
  H67      1.0000 0.07520  0.66590  0.19460  Biso   1.000  H
  H68      1.0000 0.92480  0.33410  0.80540  Biso   1.000  H
  C63      1.0000 0.19100  0.70190  0.21100  Biso   1.000  C
  C64      1.0000 0.80900  0.29810  0.78900  Biso   1.000  C
  H69      1.0000 0.21920  0.72720  0.15700  Biso   1.000  H
  H70      1.0000 0.78080  0.27280  0.84300  Biso   1.000  H
  C65      1.0000 0.23500  0.70250  0.26550  Biso   1.000  C
  C66      1.0000 0.76500  0.29750  0.73450  Biso   1.000  C
  H71      1.0000 0.29430  0.72790  0.24920  Biso   1.000  H
  H72      1.0000 0.70570  0.27210  0.75080  Biso   1.000  H
  C67      1.0000 0.19350  0.66650  0.34510  Biso   1.000  C
  C68      1.0000 0.80650  0.33350  0.65490  Biso   1.000  C
  C69      1.0000 0.24070  0.67400  0.40390  Biso   1.000  C
  C70      1.0000 0.75930  0.32600  0.59610  Biso   1.000  C
  H73      1.0000 0.22110  0.63000  0.45540  Biso   1.000  H
  H74      1.0000 0.77890  0.37000  0.54460  Biso   1.000  H
  H75      1.0000 0.32330  0.65500  0.38570  Biso   1.000  H
  H76      1.0000 0.67670  0.34500  0.61430  Biso   1.000  H
  C71      1.0000 0.23250  0.80700  0.44920  Biso   1.000  C
  C72      1.0000 0.76750  0.19300  0.55080  Biso   1.000  C
  C73      1.0000 0.31700  0.74810  0.48600  Biso   1.000  C
  C74      1.0000 0.68300  0.25190  0.51400  Biso   1.000  C
  H77      1.0000 0.35280  0.68030  0.48430  Biso   1.000  H
  H78      1.0000 0.64720  0.31970  0.51570  Biso   1.000  H
  C75      1.0000 0.35200  0.78990  0.52670  Biso   1.000  C
  C76      1.0000 0.64800  0.21010  0.47330  Biso   1.000  C
  H79      1.0000 0.41010  0.75010  0.55270  Biso   1.000  H
  H80      1.0000 0.58990  0.24990  0.44730  Biso   1.000  H
  C77      1.0000 0.29900  0.88940  0.52790  Biso   1.000  C
  C78      1.0000 0.70100  0.11060  0.47210  Biso   1.000  C
  H81      1.0000 0.32110  0.91770  0.55520  Biso   1.000  H
  H82      1.0000 0.67890  0.08230  0.44480  Biso   1.000  H
  C79      1.0000 0.21600  0.94690  0.48990  Biso   1.000  C
  C80      1.0000 0.78400  0.05310  0.51010  Biso   1.000  C
  H83      1.0000 0.18190  0.01530  0.48960  Biso   1.000  H
  H84      1.0000 0.81810  0.98470  0.51040  Biso   1.000  H
  C81      1.0000 0.18030  0.90600  0.45180  Biso   1.000  C
  C82      1.0000 0.81970  0.09400  0.54820  Biso   1.000  C
  C83      1.0000 0.08320  0.96560  0.41510  Biso   1.000  C
  C84      1.0000 0.91680  0.03440  0.58490  Biso   1.000  C
  H85      1.0000 0.04160  0.02720  0.43430  Biso   1.000  H
  H86      1.0000 0.95840  0.97280  0.56570  Biso   1.000  H
  H87      1.0000 0.03170  0.92770  0.43200  Biso   1.000  H
  H88      1.0000 0.96830  0.07230  0.56800  Biso   1.000  H
  C85      1.0000 0.99030  0.03510  0.29130  Biso   1.000  C
  C86      1.0000 0.00970  0.96490  0.70870  Biso   1.000  C
  H89      1.0000 0.93270  0.07070  0.33150  Biso   1.000  H
  H90      1.0000 0.06730  0.92930  0.66850  Biso   1.000  H
  H91      1.0000 0.98880  0.08120  0.23930  Biso   1.000  H
  H92      1.0000 0.01120  0.91880  0.76070  Biso   1.000  H
  C87      1.0000 0.96260  0.94710  0.29400  Biso   1.000  C
  C88      1.0000 0.03740  0.05290  0.70600  Biso   1.000  C
  H93      1.0000 0.00640  0.92160  0.24590  Biso   1.000  H
  H94      1.0000 0.99360  0.07840  0.75410  Biso   1.000  H
  H95      1.0000 0.98130  0.89350  0.34000  Biso   1.000  H
  H96      1.0000 0.01870  0.10650  0.66000  Biso   1.000  H
  C89      1.0000 0.81300  0.90600  0.29640  Biso   1.000  C
  C90      1.0000 0.18700  0.09400  0.70360  Biso   1.000  C
  H97      1.0000 0.84260  0.84260  0.33230  Biso   1.000  H
  H98      1.0000 0.15740  0.15740  0.66770  Biso   1.000  H
  H99      1.0000 0.83820  0.89590  0.24260  Biso   1.000  H
  H100     1.0000 0.16180  0.10410  0.75740  Biso   1.000  H
  C91      1.0000 0.68700  0.94700  0.32200  Biso   1.000  C
  C92      1.0000 0.31300  0.05300  0.67800  Biso   1.000  C
  H101     1.0000 0.65990  0.01740  0.29510  Biso   1.000  H
  H102     1.0000 0.34010  0.98260  0.70490  Biso   1.000  H
  H103     1.0000 0.65430  0.91030  0.30760  Biso   1.000  H
  H104     1.0000 0.34570  0.08970  0.69240  Biso   1.000  H
  C93      1.0000 0.61500  0.85800  0.44610  Biso   1.000  C
  C94      1.0000 0.38500  0.14200  0.55390  Biso   1.000  C
  H105     1.0000 0.66000  0.80210  0.41960  Biso   1.000  H
  H106     1.0000 0.34000  0.19790  0.58040  Biso   1.000  H
  H107     1.0000 0.53610  0.87680  0.44570  Biso   1.000  H
  H108     1.0000 0.46390  0.12320  0.55430  Biso   1.000  H
  C95      1.0000 0.62500  0.82300  0.53270  Biso   1.000  C
  C96      1.0000 0.37500  0.17700  0.46730  Biso   1.000  C
  H109     1.0000 0.58190  0.77740  0.56310  Biso   1.000  H
  H110     1.0000 0.41810  0.22260  0.43690  Biso   1.000  H
  H111     1.0000 0.59160  0.88090  0.55660  Biso   1.000  H
  H112     1.0000 0.40840  0.11910  0.44340  Biso   1.000  H
  C97      1.0000 0.78200  0.63130  0.56080  Biso   1.000  C
  C98      1.0000 0.21800  0.36870  0.43920  Biso   1.000  C
  H113     1.0000 0.86130  0.59060  0.55810  Biso   1.000  H
  H114     1.0000 0.13870  0.40940  0.44190  Biso   1.000  H
  H115     1.0000 0.73920  0.61500  0.61590  Biso   1.000  H
  H116     1.0000 0.26080  0.38500  0.38410  Biso   1.000  H
  C99      1.0000 0.74140  0.60050  0.51050  Biso   1.000  C
  C100     1.0000 0.25860  0.39950  0.48950  Biso   1.000  C
  C101     1.0000 0.63970  0.58650  0.53820  Biso   1.000  C
  C102     1.0000 0.36030  0.41350  0.46180  Biso   1.000  C
  H117     1.0000 0.59450  0.59900  0.58800  Biso   1.000  H
  H118     1.0000 0.40550  0.40100  0.41200  Biso   1.000  H
  C103     1.0000 0.60120  0.55500  0.49620  Biso   1.000  C
  C104     1.0000 0.39880  0.44500  0.50380  Biso   1.000  C
  H119     1.0000 0.52820  0.55050  0.51520  Biso   1.000  H
  H120     1.0000 0.47180  0.44950  0.48480  Biso   1.000  H
  C105     1.0000 0.66730  0.53070  0.42820  Biso   1.000  C
  C106     1.0000 0.33270  0.46930  0.57180  Biso   1.000  C
  H121     1.0000 0.64280  0.50410  0.40130  Biso   1.000  H
  H122     1.0000 0.35720  0.49590  0.59870  Biso   1.000  H
  C107     1.0000 0.76750  0.54340  0.39720  Biso   1.000  C
  C108     1.0000 0.23250  0.45660  0.60280  Biso   1.000  C
  H123     1.0000 0.81160  0.52700  0.34830  Biso   1.000  H
  H124     1.0000 0.18840  0.47300  0.65170  Biso   1.000  H
  C109     1.0000 0.80940  0.58120  0.43660  Biso   1.000  C
  C110     1.0000 0.19060  0.41880  0.56340  Biso   1.000  C
  C111     1.0000 0.97290  0.58280  0.33750  Biso   1.000  C
  C112     1.0000 0.02710  0.41720  0.66250  Biso   1.000  C
  H125     1.0000 0.92860  0.61380  0.29780  Biso   1.000  H
  H126     1.0000 0.07140  0.38620  0.70220  Biso   1.000  H
  H127     1.0000 0.00680  0.51110  0.33960  Biso   1.000  H
  H128     1.0000 0.99320  0.48890  0.66040  Biso   1.000  H
  C113     1.0000 0.70400  0.20700  0.27320  Biso   1.000  C
  C114     1.0000 0.29600  0.79300  0.72680  Biso   1.000  C
  Cl1      1.0000 0.56690  0.23290  0.26920  Biso   1.000  Cl
  Cl2      1.0000 0.43310  0.76710  0.73080  Biso   1.000  Cl
  Cl3      1.0000 0.78680  0.21620  0.17190  Biso   1.000  Cl
  Cl4      1.0000 0.21320  0.78380  0.82810  Biso   1.000  Cl
  C115     1.0000 0.69700  0.83400  0.50100  Biso   1.000  C
  C116     1.0000 0.30300  0.16600  0.49900  Biso   1.000  C
  H129     1.0000 0.63800  0.80720  0.41620  Biso   1.000  H
  H130     1.0000 0.36200  0.19280  0.58380  Biso   1.000  H
  H131     1.0000 0.53440  0.87610  0.47300  Biso   1.000  H
  H132     1.0000 0.46560  0.12390  0.52700  Biso   1.000  H
  H133     1.0000 0.68190  0.89650  0.51420  Biso   1.000  H
  H134     1.0000 0.31810  0.10350  0.48580  Biso   1.000  H
  H135     1.0000 0.77500  0.81460  0.46860  Biso   1.000  H
  H136     1.0000 0.22500  0.18540  0.53140  Biso   1.000  H
  H137     1.0000 0.85590  0.63810  0.53200  Biso   1.000  H
  H138     1.0000 0.14410  0.36190  0.46800  Biso   1.000  H
  H139     1.0000 0.79030  0.57920  0.60930  Biso   1.000  H
  H140     1.0000 0.20970  0.42080  0.39070  Biso   1.000  H
  S9       1.0000 0.68730  0.74490  0.58630  Biso   1.000  S
  S10      1.0000 0.31270  0.25510  0.41370  Biso   1.000  S
