data_image0
_cell_length_a       13.7364
_cell_length_b       7.6683
_cell_length_c       11.128
_cell_angle_alpha    90
_cell_angle_beta     104.452
_cell_angle_gamma    90

_symmetry_space_group_name_H-M    "P 1"
_symmetry_int_tables_number       1

loop_
  _symmetry_equiv_pos_as_xyz
  'x, y, z'

loop_
  _atom_site_label
  _atom_site_occupancy
  _atom_site_fract_x
  _atom_site_fract_y
  _atom_site_fract_z
  _atom_site_thermal_displace_type
  _atom_site_B_iso_or_equiv
  _atom_site_type_symbol
  Cu1      1.0000 0.32030  0.61975  0.47676  Biso   1.000  Cu
  Cu2      1.0000 0.82030  0.11975  0.47676  Biso   1.000  Cu
  Cu3      1.0000 0.32030  0.38025  0.97676  Biso   1.000  Cu
  Cu4      1.0000 0.82030  0.88025  0.97676  Biso   1.000  Cu
  Cu5      1.0000 0.67970  0.38025  0.52324  Biso   1.000  Cu
  Cu6      1.0000 0.17970  0.88025  0.52324  Biso   1.000  Cu
  Cu7      1.0000 0.67970  0.61975  0.02324  Biso   1.000  Cu
  Cu8      1.0000 0.17970  0.11975  0.02324  Biso   1.000  Cu
  S1       1.0000 0.17777  0.56501  0.57047  Biso   1.000  S
  S2       1.0000 0.67777  0.06501  0.57047  Biso   1.000  S
  S3       1.0000 0.17777  0.43499  0.07047  Biso   1.000  S
  S4       1.0000 0.67777  0.93499  0.07047  Biso   1.000  S
  S5       1.0000 0.82223  0.43499  0.42953  Biso   1.000  S
  S6       1.0000 0.32223  0.93499  0.42953  Biso   1.000  S
  S7       1.0000 0.82223  0.56501  0.92953  Biso   1.000  S
  S8       1.0000 0.32223  0.06501  0.92953  Biso   1.000  S
  N1       1.0000 0.27820  0.49500  0.81750  Biso   1.000  N
  N2       1.0000 0.77820  0.99500  0.81750  Biso   1.000  N
  N3       1.0000 0.27820  0.50500  0.31750  Biso   1.000  N
  N4       1.0000 0.77820  0.00500  0.31750  Biso   1.000  N
  N5       1.0000 0.72180  0.50500  0.18250  Biso   1.000  N
  N6       1.0000 0.22180  0.00500  0.18250  Biso   1.000  N
  N7       1.0000 0.72180  0.49500  0.68250  Biso   1.000  N
  N8       1.0000 0.22180  0.99500  0.68250  Biso   1.000  N
  C1       1.0000 0.23680  0.52790  0.71690  Biso   1.000  C
  C2       1.0000 0.73680  0.02790  0.71690  Biso   1.000  C
  C3       1.0000 0.23680  0.47210  0.21690  Biso   1.000  C
  C4       1.0000 0.73680  0.97210  0.21690  Biso   1.000  C
  C5       1.0000 0.76320  0.47210  0.28310  Biso   1.000  C
  C6       1.0000 0.26320  0.97210  0.28310  Biso   1.000  C
  C7       1.0000 0.76320  0.52790  0.78310  Biso   1.000  C
  C8       1.0000 0.26320  0.02790  0.78310  Biso   1.000  C
  N9       1.0000 0.43580  0.60890  0.63140  Biso   1.000  N
  N10      1.0000 0.93580  0.10890  0.63140  Biso   1.000  N
  N11      1.0000 0.43580  0.39110  0.13140  Biso   1.000  N
  N12      1.0000 0.93580  0.89110  0.13140  Biso   1.000  N
  N13      1.0000 0.56420  0.39110  0.36860  Biso   1.000  N
  N14      1.0000 0.06420  0.89110  0.36860  Biso   1.000  N
  N15      1.0000 0.56420  0.60890  0.86860  Biso   1.000  N
  N16      1.0000 0.06420  0.10890  0.86860  Biso   1.000  N
  C9       1.0000 0.46720  0.46010  0.68930  Biso   1.000  C
  C10      1.0000 0.96720  0.96010  0.68930  Biso   1.000  C
  C11      1.0000 0.46720  0.53990  0.18930  Biso   1.000  C
  C12      1.0000 0.96720  0.03990  0.18930  Biso   1.000  C
  C13      1.0000 0.53280  0.53990  0.31070  Biso   1.000  C
  C14      1.0000 0.03280  0.03990  0.31070  Biso   1.000  C
  C15      1.0000 0.53280  0.46010  0.81070  Biso   1.000  C
  C16      1.0000 0.03280  0.96010  0.81070  Biso   1.000  C
  C17      1.0000 0.46880  0.75860  0.69120  Biso   1.000  C
  C18      1.0000 0.96880  0.25860  0.69120  Biso   1.000  C
  C19      1.0000 0.46880  0.24140  0.19120  Biso   1.000  C
  C20      1.0000 0.96880  0.74140  0.19120  Biso   1.000  C
  C21      1.0000 0.53120  0.24140  0.30880  Biso   1.000  C
  C22      1.0000 0.03120  0.74140  0.30880  Biso   1.000  C
  C23      1.0000 0.53120  0.75860  0.80880  Biso   1.000  C
  C24      1.0000 0.03120  0.25860  0.80880  Biso   1.000  C
  H1       1.0000 0.44890  0.86450  0.65190  Biso   1.000  H
  H2       1.0000 0.94890  0.36450  0.65190  Biso   1.000  H
  H3       1.0000 0.44890  0.13550  0.15190  Biso   1.000  H
  H4       1.0000 0.94890  0.63550  0.15190  Biso   1.000  H
  H5       1.0000 0.55110  0.13550  0.34810  Biso   1.000  H
  H6       1.0000 0.05110  0.63550  0.34810  Biso   1.000  H
  H7       1.0000 0.55110  0.86450  0.84810  Biso   1.000  H
  H8       1.0000 0.05110  0.36450  0.84810  Biso   1.000  H
  C25      1.0000 0.43030  0.29370  0.62310  Biso   1.000  C
  C26      1.0000 0.93030  0.79370  0.62310  Biso   1.000  C
  C27      1.0000 0.43030  0.70630  0.12310  Biso   1.000  C
  C28      1.0000 0.93030  0.20630  0.12310  Biso   1.000  C
  C29      1.0000 0.56970  0.70630  0.37690  Biso   1.000  C
  C30      1.0000 0.06970  0.20630  0.37690  Biso   1.000  C
  C31      1.0000 0.56970  0.29370  0.87690  Biso   1.000  C
  C32      1.0000 0.06970  0.79370  0.87690  Biso   1.000  C
  H9       1.0000 0.39550  0.31900  0.53890  Biso   1.000  H
  H10      1.0000 0.89550  0.81900  0.53890  Biso   1.000  H
  H11      1.0000 0.39550  0.68100  0.03890  Biso   1.000  H
  H12      1.0000 0.89550  0.18100  0.03890  Biso   1.000  H
  H13      1.0000 0.60450  0.68100  0.46110  Biso   1.000  H
  H14      1.0000 0.10450  0.18100  0.46110  Biso   1.000  H
  H15      1.0000 0.60450  0.31900  0.96110  Biso   1.000  H
  H16      1.0000 0.10450  0.81900  0.96110  Biso   1.000  H
  H17      1.0000 0.38530  0.23670  0.66410  Biso   1.000  H
  H18      1.0000 0.88530  0.73670  0.66410  Biso   1.000  H
  H19      1.0000 0.38530  0.76330  0.16410  Biso   1.000  H
  H20      1.0000 0.88530  0.26330  0.16410  Biso   1.000  H
  H21      1.0000 0.61470  0.76330  0.33590  Biso   1.000  H
  H22      1.0000 0.11470  0.26330  0.33590  Biso   1.000  H
  H23      1.0000 0.61470  0.23670  0.83590  Biso   1.000  H
  H24      1.0000 0.11470  0.73670  0.83590  Biso   1.000  H
  H25      1.0000 0.48640  0.21870  0.62400  Biso   1.000  H
  H26      1.0000 0.98640  0.71870  0.62400  Biso   1.000  H
  H27      1.0000 0.48640  0.78130  0.12400  Biso   1.000  H
  H28      1.0000 0.98640  0.28130  0.12400  Biso   1.000  H
  H29      1.0000 0.51360  0.78130  0.37600  Biso   1.000  H
  H30      1.0000 0.01360  0.28130  0.37600  Biso   1.000  H
  H31      1.0000 0.51360  0.21870  0.87600  Biso   1.000  H
  H32      1.0000 0.01360  0.71870  0.87600  Biso   1.000  H
