data_image0
_cell_length_a       11.5407
_cell_length_b       14.5687
_cell_length_c       23.5786
_cell_angle_alpha    74.203
_cell_angle_beta     80.53
_cell_angle_gamma    83.998

_symmetry_space_group_name_H-M    "P 1"
_symmetry_int_tables_number       1

loop_
  _symmetry_equiv_pos_as_xyz
  'x, y, z'

loop_
  _atom_site_label
  _atom_site_occupancy
  _atom_site_fract_x
  _atom_site_fract_y
  _atom_site_fract_z
  _atom_site_thermal_displace_type
  _atom_site_B_iso_or_equiv
  _atom_site_type_symbol
  Cu1      1.0000 0.33717  0.28428  0.33916  Biso   1.000  Cu
  Cu2      1.0000 0.66283  0.71572  0.66084  Biso   1.000  Cu
  P1       1.0000 0.51804  0.22554  0.32234  Biso   1.000  P
  P2       1.0000 0.48196  0.77446  0.67766  Biso   1.000  P
  F1       1.0000 0.88300  0.70160  0.43865  Biso   1.000  F
  F2       1.0000 0.11700  0.29840  0.56135  Biso   1.000  F
  O1       1.0000 0.79390  0.38960  0.39480  Biso   1.000  O
  O2       1.0000 0.20610  0.61040  0.60520  Biso   1.000  O
  N1       1.0000 0.24040  0.39520  0.35969  Biso   1.000  N
  N2       1.0000 0.75960  0.60480  0.64031  Biso   1.000  N
  C1       1.0000 0.63440  0.30360  0.28080  Biso   1.000  C
  C2       1.0000 0.36560  0.69640  0.71920  Biso   1.000  C
  B1       1.0000 0.81780  0.78640  0.43240  Biso   1.000  B
  B2       1.0000 0.18220  0.21360  0.56760  Biso   1.000  B
  Cu3      1.0000 0.05060  0.14872  0.09798  Biso   1.000  Cu
  Cu4      1.0000 0.94940  0.85128  0.90202  Biso   1.000  Cu
  F3       1.0000 0.78720  0.81860  0.37512  Biso   1.000  F
  F4       1.0000 0.21280  0.18140  0.62488  Biso   1.000  F
  O3       1.0000 0.20570  0.78330  0.23290  Biso   1.000  O
  O4       1.0000 0.79430  0.21670  0.76710  Biso   1.000  O
  N3       1.0000 0.98470  0.63730  0.19070  Biso   1.000  N
  N4       1.0000 0.01530  0.36270  0.80930  Biso   1.000  N
  C3       1.0000 0.60590  0.39400  0.25080  Biso   1.000  C
  C4       1.0000 0.39410  0.60600  0.74920  Biso   1.000  C
  H1       1.0000 0.52550  0.41630  0.25080  Biso   1.000  H
  H2       1.0000 0.47450  0.58370  0.74920  Biso   1.000  H
  B3       1.0000 0.74860  0.92110  0.08890  Biso   1.000  B
  B4       1.0000 0.25140  0.07890  0.91110  Biso   1.000  B
  Cu5      1.0000 0.04522  0.65184  0.10005  Biso   1.000  Cu
  Cu6      1.0000 0.95478  0.34816  0.89995  Biso   1.000  Cu
  F5       1.0000 0.88320  0.85610  0.44186  Biso   1.000  F
  F6       1.0000 0.11680  0.14390  0.55814  Biso   1.000  F
  N5       1.0000 0.21260  0.18430  0.36009  Biso   1.000  N
  N6       1.0000 0.78740  0.81570  0.63991  Biso   1.000  N
  C5       1.0000 0.69460  0.45490  0.21960  Biso   1.000  C
  C6       1.0000 0.30540  0.54510  0.78040  Biso   1.000  C
  H3       1.0000 0.67350  0.51810  0.19820  Biso   1.000  H
  H4       1.0000 0.32650  0.48190  0.80180  Biso   1.000  H
  B5       1.0000 0.38610  0.37350  0.11330  Biso   1.000  B
  B6       1.0000 0.61390  0.62650  0.88670  Biso   1.000  B
  F7       1.0000 0.71760  0.77610  0.47441  Biso   1.000  F
  F8       1.0000 0.28240  0.22390  0.52559  Biso   1.000  F
  N7       1.0000 0.99440  0.09750  0.18951  Biso   1.000  N
  N8       1.0000 0.00560  0.90250  0.81049  Biso   1.000  N
  C7       1.0000 0.80850  0.42570  0.21940  Biso   1.000  C
  C8       1.0000 0.19150  0.57430  0.78060  Biso   1.000  C
  H5       1.0000 0.86780  0.46880  0.20000  Biso   1.000  H
  H6       1.0000 0.13220  0.53120  0.80000  Biso   1.000  H
  F9       1.0000 0.84970  0.90640  0.05129  Biso   1.000  F
  F10      1.0000 0.15030  0.09360  0.94871  Biso   1.000  F
  N9       1.0000 0.20340  0.08600  0.07949  Biso   1.000  N
  N10      1.0000 0.79660  0.91400  0.92051  Biso   1.000  N
  C9       1.0000 0.83800  0.33450  0.24700  Biso   1.000  C
  C10      1.0000 0.16200  0.66550  0.75300  Biso   1.000  C
  H7       1.0000 0.91850  0.31230  0.24540  Biso   1.000  H
  H8       1.0000 0.08150  0.68770  0.75460  Biso   1.000  H
  F11      1.0000 0.77820  0.91180  0.14370  Biso   1.000  F
  F12      1.0000 0.22180  0.08820  0.85630  Biso   1.000  F
  N11      1.0000 0.20010  0.70130  0.08776  Biso   1.000  N
  N12      1.0000 0.79990  0.29870  0.91224  Biso   1.000  N
  C11      1.0000 0.75120  0.27270  0.27780  Biso   1.000  C
  C12      1.0000 0.24880  0.72730  0.72220  Biso   1.000  C
  H9       1.0000 0.77310  0.20840  0.29700  Biso   1.000  H
  H10      1.0000 0.22690  0.79160  0.70300  Biso   1.000  H
  F13      1.0000 0.69530  0.01060  0.06839  Biso   1.000  F
  F14      1.0000 0.30470  0.98940  0.93161  Biso   1.000  F
  N13      1.0000 0.91560  0.23270  0.07219  Biso   1.000  N
  N14      1.0000 0.08440  0.76730  0.92781  Biso   1.000  N
  C13      1.0000 0.56740  0.16750  0.39380  Biso   1.000  C
  C14      1.0000 0.43260  0.83250  0.60620  Biso   1.000  C
  F15      1.0000 0.67380  0.85280  0.09090  Biso   1.000  F
  F16      1.0000 0.32620  0.14720  0.90910  Biso   1.000  F
  N15      1.0000 0.91900  0.61580  0.06667  Biso   1.000  N
  N16      1.0000 0.08100  0.38420  0.93333  Biso   1.000  N
  C15      1.0000 0.52400  0.20180  0.44210  Biso   1.000  C
  C16      1.0000 0.47600  0.79820  0.55790  Biso   1.000  C
  H11      1.0000 0.46880  0.25550  0.43740  Biso   1.000  H
  H12      1.0000 0.53120  0.74450  0.56260  Biso   1.000  H
  F17      1.0000 0.40310  0.34720  0.17177  Biso   1.000  F
  F18      1.0000 0.59690  0.65280  0.82823  Biso   1.000  F
  C17      1.0000 0.55770  0.16120  0.49740  Biso   1.000  C
  C18      1.0000 0.44230  0.83880  0.50260  Biso   1.000  C
  H13      1.0000 0.52670  0.18750  0.52990  Biso   1.000  H
  H14      1.0000 0.47330  0.81250  0.47010  Biso   1.000  H
  F19      1.0000 0.44270  0.45330  0.08330  Biso   1.000  F
  F20      1.0000 0.55730  0.54670  0.91670  Biso   1.000  F
  C19      1.0000 0.63430  0.08430  0.50530  Biso   1.000  C
  C20      1.0000 0.36570  0.91570  0.49470  Biso   1.000  C
  H15      1.0000 0.65840  0.05740  0.54330  Biso   1.000  H
  H16      1.0000 0.34160  0.94260  0.45670  Biso   1.000  H
  F21      1.0000 0.42790  0.30110  0.08620  Biso   1.000  F
  F22      1.0000 0.57210  0.69890  0.91380  Biso   1.000  F
  C21      1.0000 0.67990  0.04260  0.45730  Biso   1.000  C
  C22      1.0000 0.32010  0.95740  0.54270  Biso   1.000  C
  H17      1.0000 0.73310  0.98750  0.46290  Biso   1.000  H
  H18      1.0000 0.26690  0.01250  0.53710  Biso   1.000  H
  F23      1.0000 0.26510  0.39120  0.11213  Biso   1.000  F
  F24      1.0000 0.73490  0.60880  0.88787  Biso   1.000  F
  C23      1.0000 0.64420  0.08480  0.40230  Biso   1.000  C
  C24      1.0000 0.35580  0.91520  0.59770  Biso   1.000  C
  H19      1.0000 0.67200  0.05760  0.36990  Biso   1.000  H
  H20      1.0000 0.32800  0.94240  0.63010  Biso   1.000  H
  C25      1.0000 0.53000  0.13100  0.28390  Biso   1.000  C
  C26      1.0000 0.47000  0.86900  0.71610  Biso   1.000  C
  C27      1.0000 0.47870  0.04590  0.31290  Biso   1.000  C
  C28      1.0000 0.52130  0.95410  0.68710  Biso   1.000  C
  H21      1.0000 0.43810  0.03740  0.35230  Biso   1.000  H
  H22      1.0000 0.56190  0.96260  0.64770  Biso   1.000  H
  C29      1.0000 0.48630  0.97230  0.28450  Biso   1.000  C
  C30      1.0000 0.51370  0.02770  0.71550  Biso   1.000  C
  H23      1.0000 0.45360  0.91320  0.30550  Biso   1.000  H
  H24      1.0000 0.54640  0.08680  0.69450  Biso   1.000  H
  C31      1.0000 0.53860  0.98350  0.22850  Biso   1.000  C
  C32      1.0000 0.46140  0.01650  0.77150  Biso   1.000  C
  H25      1.0000 0.54650  0.93230  0.21000  Biso   1.000  H
  H26      1.0000 0.45350  0.06770  0.79000  Biso   1.000  H
  C33      1.0000 0.58010  0.06920  0.19870  Biso   1.000  C
  C34      1.0000 0.41990  0.93080  0.80130  Biso   1.000  C
  H27      1.0000 0.61200  0.07970  0.15780  Biso   1.000  H
  H28      1.0000 0.38800  0.92030  0.84220  Biso   1.000  H
  C35      1.0000 0.57730  0.14160  0.22590  Biso   1.000  C
  C36      1.0000 0.42270  0.85840  0.77410  Biso   1.000  C
  H29      1.0000 0.60910  0.20050  0.20370  Biso   1.000  H
  H30      1.0000 0.39090  0.79950  0.79630  Biso   1.000  H
  C37      1.0000 0.22260  0.40120  0.41600  Biso   1.000  C
  C38      1.0000 0.77740  0.59880  0.58400  Biso   1.000  C
  H31      1.0000 0.26770  0.35880  0.44370  Biso   1.000  H
  H32      1.0000 0.73230  0.64120  0.55630  Biso   1.000  H
  C39      1.0000 0.14050  0.46710  0.43580  Biso   1.000  C
  C40      1.0000 0.85950  0.53290  0.56420  Biso   1.000  C
  H33      1.0000 0.13130  0.46900  0.47620  Biso   1.000  H
  H34      1.0000 0.86870  0.53100  0.52380  Biso   1.000  H
  C41      1.0000 0.07430  0.52780  0.39810  Biso   1.000  C
  C42      1.0000 0.92570  0.47220  0.60190  Biso   1.000  C
  H35      1.0000 0.01860  0.57260  0.41190  Biso   1.000  H
  H36      1.0000 0.98140  0.42740  0.58810  Biso   1.000  H
  C43      1.0000 0.08820  0.52450  0.33760  Biso   1.000  C
  C44      1.0000 0.91180  0.47550  0.66240  Biso   1.000  C
  C45      1.0000 0.17320  0.45810  0.32020  Biso   1.000  C
  C46      1.0000 0.82680  0.54190  0.67980  Biso   1.000  C
  C47      1.0000 0.19430  0.45190  0.25990  Biso   1.000  C
  C48      1.0000 0.80570  0.54810  0.74010  Biso   1.000  C
  H37      1.0000 0.25270  0.40690  0.24830  Biso   1.000  H
  H38      1.0000 0.74730  0.59310  0.75170  Biso   1.000  H
  C49      1.0000 0.13070  0.51030  0.21930  Biso   1.000  C
  C50      1.0000 0.86930  0.48970  0.78070  Biso   1.000  C
  H39      1.0000 0.14460  0.50520  0.17940  Biso   1.000  H
  H40      1.0000 0.85540  0.49480  0.82060  Biso   1.000  H
  C51      1.0000 0.04390  0.57860  0.23510  Biso   1.000  C
  C52      1.0000 0.95610  0.42140  0.76490  Biso   1.000  C
  C53      1.0000 0.02090  0.58570  0.29410  Biso   1.000  C
  C54      1.0000 0.97910  0.41430  0.70590  Biso   1.000  C
  C55      1.0000 0.93020  0.65400  0.30780  Biso   1.000  C
  C56      1.0000 0.06980  0.34600  0.69220  Biso   1.000  C
  H41      1.0000 0.90990  0.65970  0.34750  Biso   1.000  H
  H42      1.0000 0.09010  0.34030  0.65250  Biso   1.000  H
  C57      1.0000 0.87330  0.71080  0.26350  Biso   1.000  C
  C58      1.0000 0.12670  0.28920  0.73650  Biso   1.000  C
  H43      1.0000 0.81420  0.75770  0.27180  Biso   1.000  H
  H44      1.0000 0.18580  0.24230  0.72820  Biso   1.000  H
  C59      1.0000 0.90230  0.69950  0.20550  Biso   1.000  C
  C60      1.0000 0.09770  0.30050  0.79450  Biso   1.000  C
  H45      1.0000 0.86030  0.73880  0.17530  Biso   1.000  H
  H46      1.0000 0.13970  0.26120  0.82470  Biso   1.000  H
  C61      1.0000 0.17840  0.14790  0.41820  Biso   1.000  C
  C62      1.0000 0.82160  0.85210  0.58180  Biso   1.000  C
  H47      1.0000 0.21530  0.16710  0.44580  Biso   1.000  H
  H48      1.0000 0.78470  0.83290  0.55420  Biso   1.000  H
  C63      1.0000 0.09090  0.08280  0.44010  Biso   1.000  C
  C64      1.0000 0.90910  0.91720  0.55990  Biso   1.000  C
  H49      1.0000 0.06980  0.05760  0.48170  Biso   1.000  H
  H50      1.0000 0.93020  0.94240  0.51830  Biso   1.000  H
  C65      1.0000 0.03550  0.05550  0.40010  Biso   1.000  C
  C66      1.0000 0.96450  0.94450  0.59990  Biso   1.000  C
  H51      1.0000 0.97720  0.01000  0.41420  Biso   1.000  H
  H52      1.0000 0.02280  0.99000  0.58580  Biso   1.000  H
  C67      1.0000 0.06530  0.09490  0.33870  Biso   1.000  C
  C68      1.0000 0.93470  0.90510  0.66130  Biso   1.000  C
  C69      1.0000 0.15850  0.15840  0.32060  Biso   1.000  C
  C70      1.0000 0.84150  0.84160  0.67940  Biso   1.000  C
  C71      1.0000 0.19620  0.19620  0.25830  Biso   1.000  C
  C72      1.0000 0.80380  0.80380  0.74170  Biso   1.000  C
  H53      1.0000 0.25960  0.23710  0.24580  Biso   1.000  H
  H54      1.0000 0.74040  0.76290  0.75420  Biso   1.000  H
  C73      1.0000 0.14240  0.17450  0.21660  Biso   1.000  C
  C74      1.0000 0.85760  0.82550  0.78340  Biso   1.000  C
  H55      1.0000 0.16950  0.19970  0.17540  Biso   1.000  H
  H56      1.0000 0.83050  0.80030  0.82460  Biso   1.000  H
  C75      1.0000 0.04650  0.11450  0.23400  Biso   1.000  C
  C76      1.0000 0.95350  0.88550  0.76600  Biso   1.000  C
  C77      1.0000 0.00800  0.07290  0.29420  Biso   1.000  C
  C78      1.0000 0.99200  0.92710  0.70580  Biso   1.000  C
  C79      1.0000 0.91410  0.01170  0.30860  Biso   1.000  C
  C80      1.0000 0.08590  0.98830  0.69140  Biso   1.000  C
  H57      1.0000 0.88780  0.98070  0.34900  Biso   1.000  H
  H58      1.0000 0.11220  0.01930  0.65100  Biso   1.000  H
  C81      1.0000 0.86180  0.99750  0.26440  Biso   1.000  C
  C82      1.0000 0.13820  0.00250  0.73560  Biso   1.000  C
  H59      1.0000 0.79720  0.95800  0.27380  Biso   1.000  H
  H60      1.0000 0.20280  0.04200  0.72620  Biso   1.000  H
  C83      1.0000 0.90300  0.04090  0.20590  Biso   1.000  C
  C84      1.0000 0.09700  0.95910  0.79410  Biso   1.000  C
  H61      1.0000 0.86510  0.03030  0.17560  Biso   1.000  H
  H62      1.0000 0.13490  0.96970  0.82440  Biso   1.000  H
  C85      1.0000 0.30360  0.12640  0.07700  Biso   1.000  C
  C86      1.0000 0.69640  0.87360  0.92300  Biso   1.000  C
  H63      1.0000 0.30000  0.19170  0.07720  Biso   1.000  H
  H64      1.0000 0.70000  0.80830  0.92280  Biso   1.000  H
  C87      1.0000 0.41240  0.07660  0.07410  Biso   1.000  C
  C88      1.0000 0.58760  0.92340  0.92590  Biso   1.000  C
  H65      1.0000 0.48170  0.10830  0.07150  Biso   1.000  H
  H66      1.0000 0.51830  0.89170  0.92850  Biso   1.000  H
  C89      1.0000 0.42060  0.98150  0.07490  Biso   1.000  C
  C90      1.0000 0.57940  0.01850  0.92510  Biso   1.000  C
  H67      1.0000 0.49490  0.94670  0.07380  Biso   1.000  H
  H68      1.0000 0.50510  0.05330  0.92620  Biso   1.000  H
  C91      1.0000 0.31710  0.93650  0.07740  Biso   1.000  C
  C92      1.0000 0.68290  0.06350  0.92260  Biso   1.000  C
  C93      1.0000 0.21040  0.99200  0.07810  Biso   1.000  C
  C94      1.0000 0.78960  0.00800  0.92190  Biso   1.000  C
  C95      1.0000 0.10350  0.95040  0.07820  Biso   1.000  C
  C96      1.0000 0.89650  0.04960  0.92180  Biso   1.000  C
  H69      1.0000 0.03170  0.98890  0.07710  Biso   1.000  H
  H70      1.0000 0.96830  0.01110  0.92290  Biso   1.000  H
  C97      1.0000 0.10330  0.85750  0.07970  Biso   1.000  C
  C98      1.0000 0.89670  0.14250  0.92030  Biso   1.000  C
  H71      1.0000 0.03150  0.83180  0.07870  Biso   1.000  H
  H72      1.0000 0.96850  0.16820  0.92130  Biso   1.000  H
  C99      1.0000 0.20720  0.79750  0.08290  Biso   1.000  C
  C100     1.0000 0.79280  0.20250  0.91710  Biso   1.000  C
  C101     1.0000 0.31620  0.83490  0.08060  Biso   1.000  C
  C102     1.0000 0.68380  0.16510  0.91940  Biso   1.000  C
  C103     1.0000 0.41670  0.77270  0.08450  Biso   1.000  C
  C104     1.0000 0.58330  0.22730  0.91550  Biso   1.000  C
  H73      1.0000 0.49100  0.79560  0.08410  Biso   1.000  H
  H74      1.0000 0.50900  0.20440  0.91590  Biso   1.000  H
  C105     1.0000 0.40630  0.67770  0.08900  Biso   1.000  C
  C106     1.0000 0.59370  0.32230  0.91100  Biso   1.000  C
  H75      1.0000 0.47390  0.63440  0.09150  Biso   1.000  H
  H76      1.0000 0.52610  0.36560  0.90850  Biso   1.000  H
  C107     1.0000 0.29780  0.64540  0.08990  Biso   1.000  C
  C108     1.0000 0.70220  0.35460  0.91010  Biso   1.000  C
  H77      1.0000 0.29310  0.57970  0.09220  Biso   1.000  H
  H78      1.0000 0.70690  0.42030  0.90780  Biso   1.000  H
  C109     1.0000 0.82030  0.19620  0.06430  Biso   1.000  C
  C110     1.0000 0.17970  0.80380  0.93570  Biso   1.000  C
  H79      1.0000 0.82470  0.13090  0.06400  Biso   1.000  H
  H80      1.0000 0.17530  0.86910  0.93600  Biso   1.000  H
  C111     1.0000 0.71420  0.25040  0.05620  Biso   1.000  C
  C112     1.0000 0.28580  0.74960  0.94380  Biso   1.000  C
  H81      1.0000 0.64710  0.22110  0.05250  Biso   1.000  H
  H82      1.0000 0.35290  0.77890  0.94750  Biso   1.000  H
  C113     1.0000 0.70710  0.34480  0.05390  Biso   1.000  C
  C114     1.0000 0.29290  0.65520  0.94610  Biso   1.000  C
  H83      1.0000 0.63540  0.38210  0.04810  Biso   1.000  H
  H84      1.0000 0.36460  0.61790  0.95190  Biso   1.000  H
  C115     1.0000 0.80780  0.38750  0.06010  Biso   1.000  C
  C116     1.0000 0.19220  0.61250  0.93990  Biso   1.000  C
  C117     1.0000 0.90940  0.32760  0.07090  Biso   1.000  C
  C118     1.0000 0.09060  0.67240  0.92910  Biso   1.000  C
  C119     1.0000 0.01250  0.36540  0.08020  Biso   1.000  C
  C120     1.0000 0.98750  0.63460  0.91980  Biso   1.000  C
  H85      1.0000 0.08150  0.32480  0.08700  Biso   1.000  H
  H86      1.0000 0.91850  0.67520  0.91300  Biso   1.000  H
  C121     1.0000 0.01210  0.45760  0.07920  Biso   1.000  C
  C122     1.0000 0.98790  0.54240  0.92080  Biso   1.000  C
  H87      1.0000 0.08070  0.48080  0.08640  Biso   1.000  H
  H88      1.0000 0.91930  0.51920  0.91360  Biso   1.000  H
  C123     1.0000 0.91170  0.52220  0.06780  Biso   1.000  C
  C124     1.0000 0.08830  0.47780  0.93220  Biso   1.000  C
  C125     1.0000 0.80920  0.48830  0.05670  Biso   1.000  C
  C126     1.0000 0.19080  0.51170  0.94330  Biso   1.000  C
  C127     1.0000 0.71460  0.55600  0.04180  Biso   1.000  C
  C128     1.0000 0.28540  0.44400  0.95820  Biso   1.000  C
  H89      1.0000 0.64420  0.53680  0.03370  Biso   1.000  H
  H90      1.0000 0.35580  0.46320  0.96630  Biso   1.000  H
  C129     1.0000 0.72630  0.64990  0.03930  Biso   1.000  C
  C130     1.0000 0.27370  0.35010  0.96070  Biso   1.000  C
  H91      1.0000 0.66430  0.69650  0.02840  Biso   1.000  H
  H92      1.0000 0.33570  0.30350  0.97160  Biso   1.000  H
  C131     1.0000 0.82660  0.67630  0.05230  Biso   1.000  C
  C132     1.0000 0.17340  0.32370  0.94770  Biso   1.000  C
  H93      1.0000 0.83120  0.74160  0.05110  Biso   1.000  H
  H94      1.0000 0.16880  0.25840  0.94890  Biso   1.000  H
  C133     1.0000 0.88340  0.30390  0.40660  Biso   1.000  C
  C134     1.0000 0.11660  0.69610  0.59340  Biso   1.000  C
  H95      1.0000 0.85770  0.25140  0.39330  Biso   1.000  H
  H96      1.0000 0.14230  0.74860  0.60670  Biso   1.000  H
  H97      1.0000 0.96060  0.32240  0.38310  Biso   1.000  H
  H98      1.0000 0.03940  0.67760  0.61690  Biso   1.000  H
  C135     1.0000 0.89660  0.26970  0.47020  Biso   1.000  C
  C136     1.0000 0.10340  0.73030  0.52980  Biso   1.000  C
  H99      1.0000 0.86160  0.20730  0.48820  Biso   1.000  H
  H100     1.0000 0.13840  0.79270  0.51180  Biso   1.000  H
  H101     1.0000 0.98070  0.26260  0.47550  Biso   1.000  H
  H102     1.0000 0.01930  0.73740  0.52450  Biso   1.000  H
  C137     1.0000 0.83370  0.34350  0.49720  Biso   1.000  C
  C138     1.0000 0.16630  0.65650  0.50280  Biso   1.000  C
  H103     1.0000 0.76540  0.31690  0.52610  Biso   1.000  H
  H104     1.0000 0.23460  0.68310  0.47390  Biso   1.000  H
  H105     1.0000 0.88650  0.36720  0.51840  Biso   1.000  H
  H106     1.0000 0.11350  0.63280  0.48160  Biso   1.000  H
  C139     1.0000 0.79450  0.42030  0.44980  Biso   1.000  C
  C140     1.0000 0.20550  0.57970  0.55020  Biso   1.000  C
  H107     1.0000 0.84700  0.47360  0.44080  Biso   1.000  H
  H108     1.0000 0.15300  0.52640  0.55920  Biso   1.000  H
  H109     1.0000 0.71410  0.44440  0.46320  Biso   1.000  H
  H110     1.0000 0.28590  0.55560  0.53680  Biso   1.000  H
  C141     1.0000 0.28700  0.73000  0.27050  Biso   1.000  C
  C142     1.0000 0.71300  0.27000  0.72950  Biso   1.000  C
  H111     1.0000 0.36720  0.75370  0.25720  Biso   1.000  H
  H112     1.0000 0.63280  0.24630  0.74280  Biso   1.000  H
  H113     1.0000 0.29090  0.66110  0.27220  Biso   1.000  H
  H114     1.0000 0.70910  0.33890  0.72780  Biso   1.000  H
  C143     1.0000 0.23500  0.74830  0.32950  Biso   1.000  C
  C144     1.0000 0.76500  0.25170  0.67050  Biso   1.000  C
  H115     1.0000 0.17990  0.69930  0.35220  Biso   1.000  H
  H116     1.0000 0.82010  0.30070  0.64780  Biso   1.000  H
  H117     1.0000 0.29760  0.74860  0.35370  Biso   1.000  H
  H118     1.0000 0.70240  0.25140  0.64630  Biso   1.000  H
  C145     1.0000 0.17240  0.84480  0.31310  Biso   1.000  C
  C146     1.0000 0.82760  0.15520  0.68690  Biso   1.000  C
  H119     1.0000 0.20540  0.89080  0.32930  Biso   1.000  H
  H120     1.0000 0.79460  0.10920  0.67070  Biso   1.000  H
  H121     1.0000 0.08730  0.84150  0.32830  Biso   1.000  H
  H122     1.0000 0.91270  0.15850  0.67170  Biso   1.000  H
  C147     1.0000 0.19280  0.87330  0.24590  Biso   1.000  C
  C148     1.0000 0.80720  0.12670  0.75410  Biso   1.000  C
  H123     1.0000 0.12480  0.91270  0.22940  Biso   1.000  H
  H124     1.0000 0.87520  0.08730  0.77060  Biso   1.000  H
  H125     1.0000 0.26490  0.90890  0.23030  Biso   1.000  H
  H126     1.0000 0.73510  0.09110  0.76970  Biso   1.000  H
