data_image0
_cell_length_a       11.7867
_cell_length_b       14.5764
_cell_length_c       15.946
_cell_angle_alpha    100.076
_cell_angle_beta     109.637
_cell_angle_gamma    95.612

_symmetry_space_group_name_H-M    "P 1"
_symmetry_int_tables_number       1

loop_
  _symmetry_equiv_pos_as_xyz
  'x, y, z'

loop_
  _atom_site_label
  _atom_site_occupancy
  _atom_site_fract_x
  _atom_site_fract_y
  _atom_site_fract_z
  _atom_site_thermal_displace_type
  _atom_site_B_iso_or_equiv
  _atom_site_type_symbol
  Cu1      1.0000 0.45734  0.59444  0.13879  Biso   1.000  Cu
  Cu2      1.0000 0.54266  0.40556  0.86121  Biso   1.000  Cu
  F1       1.0000 0.85620  0.30220  0.15980  Biso   1.000  F
  F2       1.0000 0.14380  0.69780  0.84020  Biso   1.000  F
  N1       1.0000 0.58470  0.65140  0.10430  Biso   1.000  N
  N2       1.0000 0.41530  0.34860  0.89570  Biso   1.000  N
  C1       1.0000 0.68160  0.61100  0.10330  Biso   1.000  C
  C2       1.0000 0.31840  0.38900  0.89670  Biso   1.000  C
  H1       1.0000 0.67690  0.54540  0.10270  Biso   1.000  H
  H2       1.0000 0.32310  0.45460  0.89730  Biso   1.000  H
  B1       1.0000 0.78820  0.37360  0.15300  Biso   1.000  B
  B2       1.0000 0.21180  0.62640  0.84700  Biso   1.000  B
  Cu3      1.0000 0.97641  0.46613  0.51747  Biso   1.000  Cu
  Cu4      1.0000 0.02359  0.53387  0.48253  Biso   1.000  Cu
  F3       1.0000 0.67380  0.33900  0.12000  Biso   1.000  F
  F4       1.0000 0.32620  0.66100  0.88000  Biso   1.000  F
  N3       1.0000 0.59500  0.03530  0.11390  Biso   1.000  N
  N4       1.0000 0.40500  0.96470  0.88610  Biso   1.000  N
  C3       1.0000 0.78790  0.65970  0.10300  Biso   1.000  C
  C4       1.0000 0.21210  0.34030  0.89700  Biso   1.000  C
  H3       1.0000 0.85450  0.62780  0.10330  Biso   1.000  H
  H4       1.0000 0.14550  0.37220  0.89670  Biso   1.000  H
  B3       1.0000 0.13580  0.81590  0.11730  Biso   1.000  B
  B4       1.0000 0.86420  0.18410  0.88270  Biso   1.000  B
  Cu5      1.0000 0.47516  0.09035  0.14992  Biso   1.000  Cu
  Cu6      1.0000 0.52484  0.90965  0.85008  Biso   1.000  Cu
  F5       1.0000 0.80700  0.41350  0.08060  Biso   1.000  F
  F6       1.0000 0.19300  0.58650  0.91940  Biso   1.000  F
  N5       1.0000 0.30620  0.51200  0.11450  Biso   1.000  N
  N6       1.0000 0.69380  0.48800  0.88550  Biso   1.000  N
  C5       1.0000 0.79770  0.75330  0.10220  Biso   1.000  C
  C6       1.0000 0.20230  0.24670  0.89780  Biso   1.000  C
  H5       1.0000 0.87090  0.78720  0.10230  Biso   1.000  H
  H6       1.0000 0.12910  0.21280  0.89770  Biso   1.000  H
  F7       1.0000 0.83300  0.45160  0.21850  Biso   1.000  F
  F8       1.0000 0.16700  0.54840  0.78150  Biso   1.000  F
  N7       1.0000 0.32680  0.13730  0.13550  Biso   1.000  N
  N8       1.0000 0.67320  0.86270  0.86450  Biso   1.000  N
  C7       1.0000 0.69830  0.79900  0.10140  Biso   1.000  C
  C8       1.0000 0.30170  0.20100  0.89860  Biso   1.000  C
  F9       1.0000 0.06910  0.88240  0.12940  Biso   1.000  F
  F10      1.0000 0.93090  0.11760  0.87060  Biso   1.000  F
  C9       1.0000 0.59230  0.74590  0.10180  Biso   1.000  C
  C10      1.0000 0.40770  0.25410  0.89820  Biso   1.000  C
  F11      1.0000 0.24220  0.82880  0.18080  Biso   1.000  F
  F12      1.0000 0.75780  0.17120  0.81920  Biso   1.000  F
  C11      1.0000 0.48940  0.78920  0.10110  Biso   1.000  C
  C12      1.0000 0.51060  0.21080  0.89890  Biso   1.000  C
  H7       1.0000 0.41680  0.75110  0.09710  Biso   1.000  H
  H8       1.0000 0.58320  0.24890  0.90290  Biso   1.000  H
  F13      1.0000 0.06850  0.73080  0.09820  Biso   1.000  F
  F14      1.0000 0.93150  0.26920  0.90180  Biso   1.000  F
  C13      1.0000 0.49170  0.88200  0.10610  Biso   1.000  C
  C14      1.0000 0.50830  0.11800  0.89390  Biso   1.000  C
  H9       1.0000 0.42230  0.90920  0.10810  Biso   1.000  H
  H10      1.0000 0.57770  0.09080  0.89190  Biso   1.000  H
  F15      1.0000 0.16740  0.82940  0.04540  Biso   1.000  F
  F16      1.0000 0.83260  0.17060  0.95460  Biso   1.000  F
  C15      1.0000 0.59730  0.94030  0.10830  Biso   1.000  C
  C16      1.0000 0.40270  0.05970  0.89170  Biso   1.000  C
  C17      1.0000 0.69920  0.89950  0.10110  Biso   1.000  C
  C18      1.0000 0.30080  0.10050  0.89890  Biso   1.000  C
  C19      1.0000 0.79450  0.95770  0.09410  Biso   1.000  C
  C20      1.0000 0.20550  0.04230  0.90590  Biso   1.000  C
  H11      1.0000 0.86370  0.93260  0.08870  Biso   1.000  H
  H12      1.0000 0.13630  0.06740  0.91130  Biso   1.000  H
  C21      1.0000 0.78910  0.05070  0.09500  Biso   1.000  C
  C22      1.0000 0.21090  0.94930  0.90500  Biso   1.000  C
  H13      1.0000 0.85300  0.09010  0.08800  Biso   1.000  H
  H14      1.0000 0.14700  0.90990  0.91200  Biso   1.000  H
  C23      1.0000 0.68920  0.08780  0.10610  Biso   1.000  C
  C24      1.0000 0.31080  0.91220  0.89390  Biso   1.000  C
  H15      1.0000 0.68780  0.15320  0.10830  Biso   1.000  H
  H16      1.0000 0.31220  0.84680  0.89170  Biso   1.000  H
  C25      1.0000 0.20390  0.54720  0.10700  Biso   1.000  C
  C26      1.0000 0.79610  0.45280  0.89300  Biso   1.000  C
  H17      1.0000 0.20370  0.61140  0.10280  Biso   1.000  H
  H18      1.0000 0.79630  0.38860  0.89720  Biso   1.000  H
  C27      1.0000 0.09820  0.49510  0.10490  Biso   1.000  C
  C28      1.0000 0.90180  0.50490  0.89510  Biso   1.000  C
  H19      1.0000 0.02830  0.52400  0.10080  Biso   1.000  H
  H20      1.0000 0.97170  0.47600  0.89920  Biso   1.000  H
  C29      1.0000 0.09410  0.40190  0.10860  Biso   1.000  C
  C30      1.0000 0.90590  0.59810  0.89140  Biso   1.000  C
  H21      1.0000 0.02120  0.36530  0.10590  Biso   1.000  H
  H22      1.0000 0.97880  0.63470  0.89410  Biso   1.000  H
  C31      1.0000 0.19910  0.36080  0.11660  Biso   1.000  C
  C32      1.0000 0.80090  0.63920  0.88340  Biso   1.000  C
  C33      1.0000 0.30380  0.41820  0.11950  Biso   1.000  C
  C34      1.0000 0.69620  0.58180  0.88050  Biso   1.000  C
  C35      1.0000 0.41180  0.38030  0.12610  Biso   1.000  C
  C36      1.0000 0.58820  0.61970  0.87390  Biso   1.000  C
  H23      1.0000 0.48180  0.41960  0.12730  Biso   1.000  H
  H24      1.0000 0.51820  0.58040  0.87270  Biso   1.000  H
  C37      1.0000 0.41670  0.28930  0.13060  Biso   1.000  C
  C38      1.0000 0.58330  0.71070  0.86940  Biso   1.000  C
  H25      1.0000 0.48990  0.26520  0.13410  Biso   1.000  H
  H26      1.0000 0.51010  0.73480  0.86590  Biso   1.000  H
  C39      1.0000 0.31560  0.22930  0.13020  Biso   1.000  C
  C40      1.0000 0.68440  0.77070  0.86980  Biso   1.000  C
  C41      1.0000 0.20360  0.26370  0.12120  Biso   1.000  C
  C42      1.0000 0.79640  0.73630  0.87880  Biso   1.000  C
  C43      1.0000 0.10480  0.19960  0.11620  Biso   1.000  C
  C44      1.0000 0.89520  0.80040  0.88380  Biso   1.000  C
  H27      1.0000 0.02800  0.21920  0.10840  Biso   1.000  H
  H28      1.0000 0.97200  0.78080  0.89160  Biso   1.000  H
  C45      1.0000 0.11780  0.10790  0.12260  Biso   1.000  C
  C46      1.0000 0.88220  0.89210  0.87740  Biso   1.000  C
  H29      1.0000 0.05040  0.06410  0.11940  Biso   1.000  H
  H30      1.0000 0.94960  0.93590  0.88060  Biso   1.000  H
  C47      1.0000 0.22920  0.08040  0.13380  Biso   1.000  C
  C48      1.0000 0.77080  0.91960  0.86620  Biso   1.000  C
  H31      1.0000 0.23740  0.01770  0.14070  Biso   1.000  H
  H32      1.0000 0.76260  0.98230  0.85930  Biso   1.000  H
  F17      1.0000 0.86200  0.45350  0.17800  Biso   1.000  F
  F18      1.0000 0.13800  0.54650  0.82200  Biso   1.000  F
  F19      1.0000 0.74200  0.38000  0.22660  Biso   1.000  F
  F20      1.0000 0.25800  0.62000  0.77340  Biso   1.000  F
  F21      1.0000 0.69000  0.36800  0.07910  Biso   1.000  F
  F22      1.0000 0.31000  0.63200  0.92090  Biso   1.000  F
  N9       1.0000 0.88990  0.35790  0.56050  Biso   1.000  N
  N10      1.0000 0.11010  0.64210  0.43950  Biso   1.000  N
  C49      1.0000 0.92200  0.35630  0.64550  Biso   1.000  C
  C50      1.0000 0.07800  0.64370  0.35450  Biso   1.000  C
  H33      1.0000 0.98190  0.40770  0.68720  Biso   1.000  H
  H34      1.0000 0.01810  0.59230  0.31280  Biso   1.000  H
  C51      1.0000 0.88210  0.29090  0.68120  Biso   1.000  C
  C52      1.0000 0.11790  0.70910  0.31880  Biso   1.000  C
  H35      1.0000 0.91510  0.29440  0.74500  Biso   1.000  H
  H36      1.0000 0.08490  0.70560  0.25500  Biso   1.000  H
  C53      1.0000 0.79400  0.21930  0.62570  Biso   1.000  C
  C54      1.0000 0.20600  0.78070  0.37430  Biso   1.000  C
  H37      1.0000 0.75950  0.17170  0.64830  Biso   1.000  H
  H38      1.0000 0.24050  0.82830  0.35170  Biso   1.000  H
  C55      1.0000 0.75300  0.21920  0.52780  Biso   1.000  C
  C56      1.0000 0.24700  0.78080  0.47220  Biso   1.000  C
  C57      1.0000 0.80450  0.29210  0.49970  Biso   1.000  C
  C58      1.0000 0.19550  0.70790  0.50030  Biso   1.000  C
  C59      1.0000 0.76060  0.29450  0.40490  Biso   1.000  C
  C60      1.0000 0.23940  0.70550  0.59510  Biso   1.000  C
  H39      1.0000 0.79490  0.34610  0.38700  Biso   1.000  H
  H40      1.0000 0.20510  0.65390  0.61300  Biso   1.000  H
  C61      1.0000 0.67620  0.23010  0.34170  Biso   1.000  C
  C62      1.0000 0.32380  0.76990  0.65830  Biso   1.000  C
  H41      1.0000 0.65180  0.23410  0.27940  Biso   1.000  H
  H42      1.0000 0.34820  0.76590  0.72060  Biso   1.000  H
  C63      1.0000 0.62070  0.15280  0.36760  Biso   1.000  C
  C64      1.0000 0.37930  0.84720  0.63240  Biso   1.000  C
  C65      1.0000 0.65170  0.14450  0.45750  Biso   1.000  C
  C66      1.0000 0.34830  0.85550  0.54250  Biso   1.000  C
  C67      1.0000 0.59240  0.06990  0.47840  Biso   1.000  C
  C68      1.0000 0.40760  0.93010  0.52160  Biso   1.000  C
  H43      1.0000 0.61360  0.06420  0.54000  Biso   1.000  H
  H44      1.0000 0.38640  0.93580  0.46000  Biso   1.000  H
  C69      1.0000 0.50200  0.00350  0.40940  Biso   1.000  C
  C70      1.0000 0.49800  0.99650  0.59060  Biso   1.000  C
  H45      1.0000 0.46130  0.95230  0.42370  Biso   1.000  H
  H46      1.0000 0.53870  0.04770  0.57630  Biso   1.000  H
  C71      1.0000 0.47100  0.01180  0.31950  Biso   1.000  C
  C72      1.0000 0.52900  0.98820  0.68050  Biso   1.000  C
  H47      1.0000 0.40900  0.96630  0.27220  Biso   1.000  H
  H48      1.0000 0.59100  0.03370  0.72780  Biso   1.000  H
  N11      1.0000 0.53030  0.08640  0.29860  Biso   1.000  N
  N12      1.0000 0.46970  0.91360  0.70140  Biso   1.000  N
  B5       1.0000 0.47320  0.06280  0.34130  Biso   1.000  B
  B6       1.0000 0.52680  0.93720  0.65870  Biso   1.000  B
  F23      1.0000 0.49630  0.02820  0.27900  Biso   1.000  F
  F24      1.0000 0.50370  0.97180  0.72100  Biso   1.000  F
  F25      1.0000 0.37800  0.02130  0.34740  Biso   1.000  F
  F26      1.0000 0.62200  0.97870  0.65260  Biso   1.000  F
  F27      1.0000 0.55970  0.07130  0.43370  Biso   1.000  F
  F28      1.0000 0.44030  0.92870  0.56630  Biso   1.000  F
  F29      1.0000 0.43560  0.15830  0.33890  Biso   1.000  F
  F30      1.0000 0.56440  0.84170  0.66110  Biso   1.000  F
  N13      1.0000 0.80280  0.85630  0.37100  Biso   1.000  N
  N14      1.0000 0.19720  0.14370  0.62900  Biso   1.000  N
  O1       1.0000 0.70650  0.88280  0.34440  Biso   1.000  O
  O2       1.0000 0.29350  0.11720  0.65560  Biso   1.000  O
  O3       1.0000 0.86010  0.80700  0.33720  Biso   1.000  O
  O4       1.0000 0.13990  0.19300  0.66280  Biso   1.000  O
  C73      1.0000 0.87170  0.88610  0.47940  Biso   1.000  C
  C74      1.0000 0.12830  0.11390  0.52060  Biso   1.000  C
  C75      1.0000 0.99510  0.88500  0.52170  Biso   1.000  C
  C76      1.0000 0.00490  0.11500  0.47830  Biso   1.000  C
  H49      1.0000 0.03900  0.85440  0.48810  Biso   1.000  H
  H50      1.0000 0.96100  0.14560  0.51190  Biso   1.000  H
  C77      1.0000 0.05450  0.92860  0.61310  Biso   1.000  C
  C78      1.0000 0.94550  0.07140  0.38690  Biso   1.000  C
  H51      1.0000 0.13910  0.92790  0.64210  Biso   1.000  H
  H52      1.0000 0.86090  0.07210  0.35790  Biso   1.000  H
  C79      1.0000 0.99050  0.97330  0.66210  Biso   1.000  C
  C80      1.0000 0.00950  0.02670  0.33790  Biso   1.000  C
  H53      1.0000 0.03120  0.00320  0.72470  Biso   1.000  H
  H54      1.0000 0.96880  0.99680  0.27530  Biso   1.000  H
  C81      1.0000 0.86710  0.97440  0.61980  Biso   1.000  C
  C82      1.0000 0.13290  0.02560  0.38020  Biso   1.000  C
  H55      1.0000 0.82320  0.00500  0.65340  Biso   1.000  H
  H56      1.0000 0.17680  0.99500  0.34660  Biso   1.000  H
  C83      1.0000 0.80770  0.93070  0.52840  Biso   1.000  C
  C84      1.0000 0.19230  0.06930  0.47160  Biso   1.000  C
  H57      1.0000 0.72310  0.93150  0.49940  Biso   1.000  H
  H58      1.0000 0.27690  0.06850  0.50060  Biso   1.000  H
  N15      1.0000 0.35500  0.53810  0.42930  Biso   1.000  N
  N16      1.0000 0.64500  0.46190  0.57070  Biso   1.000  N
  O5       1.0000 0.33810  0.47730  0.36160  Biso   1.000  O
  O6       1.0000 0.66190  0.52270  0.63840  Biso   1.000  O
  O7       1.0000 0.27020  0.58480  0.44400  Biso   1.000  O
  O8       1.0000 0.72980  0.41520  0.55600  Biso   1.000  O
  C85      1.0000 0.46450  0.53360  0.48820  Biso   1.000  C
  C86      1.0000 0.53550  0.46640  0.51180  Biso   1.000  C
  C87      1.0000 0.49900  0.60300  0.56760  Biso   1.000  C
  C88      1.0000 0.50100  0.39700  0.43240  Biso   1.000  C
  H59      1.0000 0.45290  0.65250  0.57110  Biso   1.000  H
  H60      1.0000 0.54710  0.34750  0.42890  Biso   1.000  H
  C89      1.0000 0.60080  0.60020  0.64210  Biso   1.000  C
  C90      1.0000 0.39920  0.39980  0.35790  Biso   1.000  C
  H61      1.0000 0.62440  0.64780  0.69660  Biso   1.000  H
  H62      1.0000 0.37560  0.35220  0.30340  Biso   1.000  H
  C91      1.0000 0.66800  0.52800  0.63710  Biso   1.000  C
  C92      1.0000 0.33200  0.47200  0.36290  Biso   1.000  C
  H63      1.0000 0.73780  0.52610  0.68810  Biso   1.000  H
  H64      1.0000 0.26220  0.47390  0.31190  Biso   1.000  H
  C93      1.0000 0.63350  0.45860  0.55760  Biso   1.000  C
  C94      1.0000 0.36650  0.54140  0.44240  Biso   1.000  C
  H65      1.0000 0.67960  0.40900  0.55420  Biso   1.000  H
  H66      1.0000 0.32040  0.59100  0.44580  Biso   1.000  H
  C95      1.0000 0.53170  0.46140  0.48320  Biso   1.000  C
  C96      1.0000 0.46830  0.53860  0.51680  Biso   1.000  C
  H67      1.0000 0.50810  0.41370  0.42870  Biso   1.000  H
  H68      1.0000 0.49190  0.58630  0.57130  Biso   1.000  H
  N17      1.0000 0.50580  0.65170  0.27470  Biso   1.000  N
  N18      1.0000 0.49420  0.34830  0.72530  Biso   1.000  N
  C97      1.0000 0.42970  0.71030  0.29720  Biso   1.000  C
  C98      1.0000 0.57030  0.28970  0.70280  Biso   1.000  C
  H69      1.0000 0.35880  0.71930  0.25090  Biso   1.000  H
  H70      1.0000 0.64120  0.28070  0.74910  Biso   1.000  H
  C99      1.0000 0.45690  0.75560  0.38730  Biso   1.000  C
  C100     1.0000 0.54310  0.24440  0.61270  Biso   1.000  C
  H71      1.0000 0.40480  0.79570  0.40270  Biso   1.000  H
  H72      1.0000 0.59520  0.20430  0.59730  Biso   1.000  H
  C101     1.0000 0.56030  0.74240  0.45490  Biso   1.000  C
  C102     1.0000 0.43970  0.25760  0.54510  Biso   1.000  C
  H73      1.0000 0.57900  0.77340  0.51670  Biso   1.000  H
  H74      1.0000 0.42100  0.22660  0.48330  Biso   1.000  H
  C103     1.0000 0.63640  0.68390  0.43240  Biso   1.000  C
  C104     1.0000 0.36360  0.31610  0.56760  Biso   1.000  C
  C105     1.0000 0.60910  0.63850  0.34230  Biso   1.000  C
  C106     1.0000 0.39090  0.36150  0.65770  Biso   1.000  C
  C107     1.0000 0.66600  0.57990  0.32430  Biso   1.000  C
  C108     1.0000 0.33400  0.42010  0.67570  Biso   1.000  C
  H75      1.0000 0.63230  0.53870  0.26550  Biso   1.000  H
  H76      1.0000 0.36770  0.46130  0.73450  Biso   1.000  H
  C109     1.0000 0.77720  0.56730  0.38250  Biso   1.000  C
  C110     1.0000 0.22280  0.43270  0.61750  Biso   1.000  C
  H77      1.0000 0.82820  0.53010  0.36150  Biso   1.000  H
  H78      1.0000 0.17180  0.46990  0.63850  Biso   1.000  H
  C111     1.0000 0.81090  0.61300  0.47540  Biso   1.000  C
  C112     1.0000 0.18910  0.38700  0.52460  Biso   1.000  C
  C113     1.0000 0.74440  0.67550  0.50580  Biso   1.000  C
  C114     1.0000 0.25560  0.32450  0.49420  Biso   1.000  C
  C115     1.0000 0.78330  0.71910  0.59750  Biso   1.000  C
  C116     1.0000 0.21670  0.28090  0.40250  Biso   1.000  C
  H79      1.0000 0.73770  0.76200  0.61840  Biso   1.000  H
  H80      1.0000 0.26230  0.23800  0.38160  Biso   1.000  H
  C117     1.0000 0.88870  0.70030  0.65880  Biso   1.000  C
  C118     1.0000 0.11130  0.29970  0.34120  Biso   1.000  C
  H81      1.0000 0.91540  0.73020  0.72170  Biso   1.000  H
  H82      1.0000 0.08460  0.26980  0.27830  Biso   1.000  H
  C119     1.0000 0.95520  0.63780  0.62840  Biso   1.000  C
  C120     1.0000 0.04480  0.36220  0.37160  Biso   1.000  C
  H83      1.0000 0.02750  0.62490  0.67050  Biso   1.000  H
  H84      1.0000 0.97250  0.37510  0.32950  Biso   1.000  H
  N19      1.0000 0.91630  0.59420  0.53670  Biso   1.000  N
  N20      1.0000 0.08370  0.40580  0.46330  Biso   1.000  N
  N21      1.0000 0.51290  0.67740  0.28700  Biso   1.000  N
  N22      1.0000 0.48710  0.32260  0.71300  Biso   1.000  N
  C121     1.0000 0.47990  0.76580  0.30200  Biso   1.000  C
  C122     1.0000 0.52010  0.23420  0.69800  Biso   1.000  C
  H85      1.0000 0.41270  0.78130  0.25700  Biso   1.000  H
  H86      1.0000 0.58730  0.21870  0.74300  Biso   1.000  H
  C123     1.0000 0.54490  0.83150  0.38260  Biso   1.000  C
  C124     1.0000 0.45510  0.16850  0.61740  Biso   1.000  C
  H87      1.0000 0.52230  0.89210  0.39290  Biso   1.000  H
  H88      1.0000 0.47770  0.10790  0.60710  Biso   1.000  H
  C125     1.0000 0.64280  0.80890  0.44820  Biso   1.000  C
  C126     1.0000 0.35720  0.19110  0.55180  Biso   1.000  C
  H89      1.0000 0.68740  0.85400  0.50340  Biso   1.000  H
  H90      1.0000 0.31260  0.14600  0.49660  Biso   1.000  H
  C127     1.0000 0.67580  0.72050  0.43320  Biso   1.000  C
  C128     1.0000 0.32420  0.27950  0.56680  Biso   1.000  C
  C129     1.0000 0.61080  0.65480  0.35260  Biso   1.000  C
  C130     1.0000 0.38920  0.34520  0.64740  Biso   1.000  C
  H91      1.0000 0.64190  0.55050  0.26150  Biso   1.000  H
  H92      1.0000 0.35810  0.44950  0.73850  Biso   1.000  H
  C131     1.0000 0.76040  0.54850  0.39300  Biso   1.000  C
  C132     1.0000 0.23960  0.45150  0.60700  Biso   1.000  C
  H93      1.0000 0.78750  0.49000  0.38110  Biso   1.000  H
  H94      1.0000 0.21250  0.51000  0.61890  Biso   1.000  H
  C133     1.0000 0.80690  0.60980  0.47610  Biso   1.000  C
  C134     1.0000 0.19310  0.39020  0.52390  Biso   1.000  C
  C135     1.0000 0.78950  0.70190  0.50040  Biso   1.000  C
  C136     1.0000 0.21050  0.29810  0.49960  Biso   1.000  C
  C137     1.0000 0.86130  0.75780  0.58520  Biso   1.000  C
  C138     1.0000 0.13870  0.24220  0.41480  Biso   1.000  C
  H95      1.0000 0.84940  0.82100  0.60180  Biso   1.000  H
  H96      1.0000 0.15060  0.17900  0.39820  Biso   1.000  H
  C139     1.0000 0.95050  0.72160  0.64570  Biso   1.000  C
  C140     1.0000 0.04950  0.27840  0.35430  Biso   1.000  C
  H97      1.0000 0.99970  0.76000  0.70390  Biso   1.000  H
  H98      1.0000 0.00030  0.24000  0.29610  Biso   1.000  H
  C141     1.0000 0.96780  0.62950  0.62150  Biso   1.000  C
  C142     1.0000 0.03220  0.37050  0.37850  Biso   1.000  C
  H99      1.0000 0.02900  0.60470  0.66300  Biso   1.000  H
  H100     1.0000 0.97100  0.39530  0.33700  Biso   1.000  H
  N23      1.0000 0.89610  0.57360  0.53670  Biso   1.000  N
  N24      1.0000 0.10390  0.42640  0.46330  Biso   1.000  N
