data_image0
_cell_length_a       11.492
_cell_length_b       14.5074
_cell_length_c       23.7492
_cell_angle_alpha    73.599
_cell_angle_beta     79.871
_cell_angle_gamma    83.814

_symmetry_space_group_name_H-M    "P 1"
_symmetry_int_tables_number       1

loop_
  _symmetry_equiv_pos_as_xyz
  'x, y, z'

loop_
  _atom_site_label
  _atom_site_occupancy
  _atom_site_fract_x
  _atom_site_fract_y
  _atom_site_fract_z
  _atom_site_thermal_displace_type
  _atom_site_B_iso_or_equiv
  _atom_site_type_symbol
  Cu1      1.0000 0.83117  0.28474  0.33907  Biso   1.000  Cu
  Cu2      1.0000 0.16883  0.71526  0.66093  Biso   1.000  Cu
  F1       1.0000 0.62290  0.31010  0.55880  Biso   1.000  F
  F2       1.0000 0.37710  0.68990  0.44120  Biso   1.000  F
  O1       1.0000 0.86790  0.77620  0.24270  Biso   1.000  O
  O2       1.0000 0.13210  0.22380  0.75730  Biso   1.000  O
  N1       1.0000 0.73980  0.40030  0.35730  Biso   1.000  N
  N2       1.0000 0.26020  0.59970  0.64270  Biso   1.000  N
  C1       1.0000 0.13090  0.29850  0.28060  Biso   1.000  C
  C2       1.0000 0.86910  0.70150  0.71940  Biso   1.000  C
  B1       1.0000 0.69010  0.22500  0.56460  Biso   1.000  B
  B2       1.0000 0.30990  0.77500  0.43540  Biso   1.000  B
  Cu3      1.0000 0.55066  0.14246  0.10328  Biso   1.000  Cu
  Cu4      1.0000 0.44934  0.85754  0.89672  Biso   1.000  Cu
  F3       1.0000 0.72200  0.19190  0.62060  Biso   1.000  F
  F4       1.0000 0.27800  0.80810  0.37940  Biso   1.000  F
  N3       1.0000 0.48230  0.63590  0.18820  Biso   1.000  N
  N4       1.0000 0.51770  0.36410  0.81180  Biso   1.000  N
  C3       1.0000 0.10460  0.38650  0.24580  Biso   1.000  C
  C4       1.0000 0.89540  0.61350  0.75420  Biso   1.000  C
  H1       1.0000 0.02430  0.40760  0.24280  Biso   1.000  H
  H2       1.0000 0.97570  0.59240  0.75720  Biso   1.000  H
  B3       1.0000 0.25030  0.91870  0.08760  Biso   1.000  B
  B4       1.0000 0.74970  0.08130  0.91240  Biso   1.000  B
  Cu5      1.0000 0.54489  0.65049  0.09719  Biso   1.000  Cu
  Cu6      1.0000 0.45511  0.34951  0.90281  Biso   1.000  Cu
  F5       1.0000 0.62090  0.15620  0.55530  Biso   1.000  F
  F6       1.0000 0.37910  0.84380  0.44470  Biso   1.000  F
  N5       1.0000 0.69950  0.19080  0.36130  Biso   1.000  N
  N6       1.0000 0.30050  0.80920  0.63870  Biso   1.000  N
  C5       1.0000 0.19440  0.44690  0.21430  Biso   1.000  C
  C6       1.0000 0.80560  0.55310  0.78570  Biso   1.000  C
  H3       1.0000 0.17610  0.50830  0.18890  Biso   1.000  H
  H4       1.0000 0.82390  0.49170  0.81110  Biso   1.000  H
  B5       1.0000 0.88690  0.37050  0.11390  Biso   1.000  B
  B6       1.0000 0.11310  0.62950  0.88610  Biso   1.000  B
  P1       1.0000 0.01038  0.22024  0.32149  Biso   1.000  P
  P2       1.0000 0.98962  0.77976  0.67851  Biso   1.000  P
  F7       1.0000 0.78890  0.23700  0.52140  Biso   1.000  F
  F8       1.0000 0.21110  0.76300  0.47860  Biso   1.000  F
  N7       1.0000 0.49550  0.08770  0.19440  Biso   1.000  N
  N8       1.0000 0.50450  0.91230  0.80560  Biso   1.000  N
  C7       1.0000 0.30790  0.41660  0.22060  Biso   1.000  C
  C8       1.0000 0.69210  0.58340  0.77940  Biso   1.000  C
  H5       1.0000 0.36940  0.45820  0.20050  Biso   1.000  H
  H6       1.0000 0.63060  0.54180  0.79950  Biso   1.000  H
  F9       1.0000 0.35170  0.90300  0.04860  Biso   1.000  F
  F10      1.0000 0.64830  0.09700  0.95140  Biso   1.000  F
  N9       1.0000 0.70580  0.08290  0.08120  Biso   1.000  N
  N10      1.0000 0.29420  0.91710  0.91880  Biso   1.000  N
  C9       1.0000 0.33560  0.32750  0.25530  Biso   1.000  C
  C10      1.0000 0.66440  0.67250  0.74470  Biso   1.000  C
  H7       1.0000 0.41600  0.30670  0.25850  Biso   1.000  H
  H8       1.0000 0.58400  0.69330  0.74150  Biso   1.000  H
  F11      1.0000 0.28680  0.91430  0.14000  Biso   1.000  F
  F12      1.0000 0.71320  0.08570  0.86000  Biso   1.000  F
  N11      1.0000 0.70050  0.69990  0.08430  Biso   1.000  N
  N12      1.0000 0.29950  0.30010  0.91570  Biso   1.000  N
  C11      1.0000 0.24920  0.26940  0.28490  Biso   1.000  C
  C12      1.0000 0.75080  0.73060  0.71510  Biso   1.000  C
  H9       1.0000 0.26890  0.20740  0.30930  Biso   1.000  H
  H10      1.0000 0.73110  0.79260  0.69070  Biso   1.000  H
  F13      1.0000 0.19550  0.00940  0.06590  Biso   1.000  F
  F14      1.0000 0.80450  0.99060  0.93410  Biso   1.000  F
  N13      1.0000 0.41640  0.22700  0.07700  Biso   1.000  N
  N14      1.0000 0.58360  0.77300  0.92300  Biso   1.000  N
  C13      1.0000 0.06090  0.15580  0.39170  Biso   1.000  C
  C14      1.0000 0.93910  0.84420  0.60830  Biso   1.000  C
  N15      1.0000 0.41980  0.61460  0.06450  Biso   1.000  N
  N16      1.0000 0.58020  0.38540  0.93550  Biso   1.000  N
  C15      1.0000 0.03030  0.19690  0.44020  Biso   1.000  C
  C16      1.0000 0.96970  0.80310  0.55980  Biso   1.000  C
  H11      1.0000 0.98470  0.25650  0.43550  Biso   1.000  H
  H12      1.0000 0.01530  0.74350  0.56450  Biso   1.000  H
  F15      1.0000 0.17690  0.84880  0.09330  Biso   1.000  F
  F16      1.0000 0.82310  0.15120  0.90670  Biso   1.000  F
  F17      1.0000 0.90060  0.34110  0.17260  Biso   1.000  F
  F18      1.0000 0.09940  0.65890  0.82740  Biso   1.000  F
  C17      1.0000 0.06580  0.15170  0.49360  Biso   1.000  C
  C18      1.0000 0.93420  0.84830  0.50640  Biso   1.000  C
  H13      1.0000 0.04260  0.17900  0.52610  Biso   1.000  H
  H14      1.0000 0.95740  0.82100  0.47390  Biso   1.000  H
  F19      1.0000 0.94500  0.44950  0.08570  Biso   1.000  F
  F20      1.0000 0.05500  0.55050  0.91430  Biso   1.000  F
  C19      1.0000 0.13470  0.06720  0.50080  Biso   1.000  C
  C20      1.0000 0.86530  0.93280  0.49920  Biso   1.000  C
  H15      1.0000 0.16270  0.03820  0.53750  Biso   1.000  H
  H16      1.0000 0.83730  0.96180  0.46250  Biso   1.000  H
  F21      1.0000 0.92790  0.29870  0.08720  Biso   1.000  F
  F22      1.0000 0.07210  0.70130  0.91280  Biso   1.000  F
  C21      1.0000 0.16350  0.02390  0.45450  Biso   1.000  C
  C22      1.0000 0.83650  0.97610  0.54550  Biso   1.000  C
  H17      1.0000 0.20820  0.96380  0.46050  Biso   1.000  H
  H18      1.0000 0.79180  0.03620  0.53950  Biso   1.000  H
  F23      1.0000 0.76560  0.39030  0.11220  Biso   1.000  F
  F24      1.0000 0.23440  0.60970  0.88780  Biso   1.000  F
  C23      1.0000 0.12800  0.06740  0.39940  Biso   1.000  C
  C24      1.0000 0.87200  0.93260  0.60060  Biso   1.000  C
  H19      1.0000 0.14860  0.03790  0.36770  Biso   1.000  H
  H20      1.0000 0.85140  0.96210  0.63230  Biso   1.000  H
  C25      1.0000 0.01680  0.12800  0.28270  Biso   1.000  C
  C26      1.0000 0.98320  0.87200  0.71730  Biso   1.000  C
  C27      1.0000 0.08100  0.13440  0.22680  Biso   1.000  C
  C28      1.0000 0.91900  0.86560  0.77320  Biso   1.000  C
  H21      1.0000 0.12600  0.18880  0.20710  Biso   1.000  H
  H22      1.0000 0.87400  0.81120  0.79290  Biso   1.000  H
  C29      1.0000 0.07990  0.06230  0.19990  Biso   1.000  C
  C30      1.0000 0.92010  0.93770  0.80010  Biso   1.000  C
  H23      1.0000 0.12570  0.06730  0.16180  Biso   1.000  H
  H24      1.0000 0.87430  0.93270  0.83820  Biso   1.000  H
  C31      1.0000 0.01480  0.98350  0.22610  Biso   1.000  C
  C32      1.0000 0.98520  0.01650  0.77390  Biso   1.000  C
  H25      1.0000 0.01480  0.93470  0.20660  Biso   1.000  H
  H26      1.0000 0.98520  0.06530  0.79340  Biso   1.000  H
  C33      1.0000 0.94880  0.97630  0.28190  Biso   1.000  C
  C34      1.0000 0.05120  0.02370  0.71810  Biso   1.000  C
  H27      1.0000 0.90410  0.92170  0.30130  Biso   1.000  H
  H28      1.0000 0.09590  0.07830  0.69870  Biso   1.000  H
  C35      1.0000 0.94860  0.04920  0.30920  Biso   1.000  C
  C36      1.0000 0.05140  0.95080  0.69080  Biso   1.000  C
  H29      1.0000 0.90080  0.04520  0.34660  Biso   1.000  H
  H30      1.0000 0.09920  0.95480  0.65340  Biso   1.000  H
  C37      1.0000 0.72430  0.40860  0.41250  Biso   1.000  C
  C38      1.0000 0.27570  0.59140  0.58750  Biso   1.000  C
  H31      1.0000 0.76880  0.36570  0.44030  Biso   1.000  H
  H32      1.0000 0.23120  0.63430  0.55970  Biso   1.000  H
  C39      1.0000 0.64600  0.47740  0.43110  Biso   1.000  C
  C40      1.0000 0.35400  0.52260  0.56890  Biso   1.000  C
  H33      1.0000 0.64120  0.48400  0.47010  Biso   1.000  H
  H34      1.0000 0.35880  0.51600  0.52990  Biso   1.000  H
  C41      1.0000 0.57430  0.53680  0.39220  Biso   1.000  C
  C42      1.0000 0.42570  0.46320  0.60780  Biso   1.000  C
  H35      1.0000 0.51660  0.58110  0.40560  Biso   1.000  H
  H36      1.0000 0.48340  0.41890  0.59440  Biso   1.000  H
  C43      1.0000 0.58680  0.53160  0.33340  Biso   1.000  C
  C44      1.0000 0.41320  0.46840  0.66660  Biso   1.000  C
  C45      1.0000 0.67370  0.46120  0.31710  Biso   1.000  C
  C46      1.0000 0.32630  0.53880  0.68290  Biso   1.000  C
  C47      1.0000 0.69320  0.45450  0.25800  Biso   1.000  C
  C48      1.0000 0.30680  0.54550  0.74200  Biso   1.000  C
  H37      1.0000 0.75230  0.40930  0.24660  Biso   1.000  H
  H38      1.0000 0.24770  0.59070  0.75340  Biso   1.000  H
  C49      1.0000 0.62940  0.51100  0.21780  Biso   1.000  C
  C50      1.0000 0.37060  0.48900  0.78220  Biso   1.000  C
  H39      1.0000 0.64410  0.50440  0.17840  Biso   1.000  H
  H40      1.0000 0.35590  0.49560  0.82160  Biso   1.000  H
  C51      1.0000 0.54070  0.58020  0.23200  Biso   1.000  C
  C52      1.0000 0.45930  0.41980  0.76800  Biso   1.000  C
  C53      1.0000 0.51790  0.58980  0.29010  Biso   1.000  C
  C54      1.0000 0.48210  0.41020  0.70990  Biso   1.000  C
  C55      1.0000 0.42930  0.65780  0.30340  Biso   1.000  C
  C56      1.0000 0.57070  0.34220  0.69660  Biso   1.000  C
  H41      1.0000 0.41190  0.66700  0.34210  Biso   1.000  H
  H42      1.0000 0.58810  0.33300  0.65790  Biso   1.000  H
  C57      1.0000 0.36680  0.71190  0.25830  Biso   1.000  C
  C58      1.0000 0.63320  0.28810  0.74170  Biso   1.000  C
  H43      1.0000 0.30420  0.75700  0.26640  Biso   1.000  H
  H44      1.0000 0.69580  0.24300  0.73360  Biso   1.000  H
  C59      1.0000 0.39640  0.69950  0.20220  Biso   1.000  C
  C60      1.0000 0.60360  0.30050  0.79780  Biso   1.000  C
  H45      1.0000 0.35400  0.73780  0.17190  Biso   1.000  H
  H46      1.0000 0.64600  0.26220  0.82810  Biso   1.000  H
  C61      1.0000 0.65710  0.16130  0.41870  Biso   1.000  C
  C62      1.0000 0.34290  0.83870  0.58130  Biso   1.000  C
  H47      1.0000 0.69340  0.18170  0.44570  Biso   1.000  H
  H48      1.0000 0.30660  0.81830  0.55430  Biso   1.000  H
  C63      1.0000 0.56300  0.10230  0.44160  Biso   1.000  C
  C64      1.0000 0.43700  0.89770  0.55840  Biso   1.000  C
  H49      1.0000 0.53360  0.08560  0.48290  Biso   1.000  H
  H50      1.0000 0.46640  0.91440  0.51710  Biso   1.000  H
  C65      1.0000 0.51200  0.06770  0.40240  Biso   1.000  C
  C66      1.0000 0.48800  0.93230  0.59760  Biso   1.000  C
  H51      1.0000 0.45120  0.02380  0.41740  Biso   1.000  H
  H52      1.0000 0.54880  0.97620  0.58260  Biso   1.000  H
  C67      1.0000 0.55120  0.09820  0.34200  Biso   1.000  C
  C68      1.0000 0.44880  0.90180  0.65800  Biso   1.000  C
  C69      1.0000 0.64810  0.16110  0.32220  Biso   1.000  C
  C70      1.0000 0.35190  0.83890  0.67780  Biso   1.000  C
  C71      1.0000 0.69080  0.19390  0.26140  Biso   1.000  C
  C72      1.0000 0.30920  0.80610  0.73860  Biso   1.000  C
  H53      1.0000 0.75600  0.23390  0.24880  Biso   1.000  H
  H54      1.0000 0.24400  0.76610  0.75120  Biso   1.000  H
  C73      1.0000 0.64110  0.16990  0.22020  Biso   1.000  C
  C74      1.0000 0.35890  0.83010  0.77980  Biso   1.000  C
  H55      1.0000 0.67140  0.19340  0.17930  Biso   1.000  H
  H56      1.0000 0.32860  0.80660  0.82070  Biso   1.000  H
  C75      1.0000 0.54220  0.10850  0.23820  Biso   1.000  C
  C76      1.0000 0.45780  0.89150  0.76180  Biso   1.000  C
  C77      1.0000 0.50110  0.07010  0.29860  Biso   1.000  C
  C78      1.0000 0.49890  0.92990  0.70140  Biso   1.000  C
  C79      1.0000 0.41090  0.00730  0.31390  Biso   1.000  C
  C80      1.0000 0.58910  0.99270  0.68610  Biso   1.000  C
  H57      1.0000 0.38310  0.97790  0.35450  Biso   1.000  H
  H58      1.0000 0.61690  0.02210  0.64550  Biso   1.000  H
  C81      1.0000 0.36160  0.98760  0.26980  Biso   1.000  C
  C82      1.0000 0.63840  0.01240  0.73020  Biso   1.000  C
  H59      1.0000 0.29770  0.94660  0.27980  Biso   1.000  H
  H60      1.0000 0.70230  0.05340  0.72020  Biso   1.000  H
  C83      1.0000 0.40670  0.02840  0.21100  Biso   1.000  C
  C84      1.0000 0.59330  0.97160  0.78900  Biso   1.000  C
  H61      1.0000 0.37310  0.01370  0.18100  Biso   1.000  H
  H62      1.0000 0.62690  0.98630  0.81900  Biso   1.000  H
  C85      1.0000 0.80540  0.12180  0.07950  Biso   1.000  C
  C86      1.0000 0.19460  0.87820  0.92050  Biso   1.000  C
  H63      1.0000 0.80180  0.18660  0.08130  Biso   1.000  H
  H64      1.0000 0.19820  0.81340  0.91870  Biso   1.000  H
  C87      1.0000 0.91370  0.07240  0.07520  Biso   1.000  C
  C88      1.0000 0.08630  0.92760  0.92480  Biso   1.000  C
  H65      1.0000 0.98340  0.10400  0.07280  Biso   1.000  H
  H66      1.0000 0.01660  0.89600  0.92720  Biso   1.000  H
  C89      1.0000 0.92210  0.97850  0.07430  Biso   1.000  C
  C90      1.0000 0.07790  0.02150  0.92570  Biso   1.000  C
  H67      1.0000 0.99710  0.94400  0.07200  Biso   1.000  H
  H68      1.0000 0.00290  0.05600  0.92800  Biso   1.000  H
  C91      1.0000 0.81890  0.93330  0.07670  Biso   1.000  C
  C92      1.0000 0.18110  0.06670  0.92330  Biso   1.000  C
  C93      1.0000 0.71180  0.98890  0.07880  Biso   1.000  C
  C94      1.0000 0.28820  0.01110  0.92120  Biso   1.000  C
  C95      1.0000 0.60410  0.94800  0.07740  Biso   1.000  C
  C96      1.0000 0.39590  0.05200  0.92260  Biso   1.000  C
  H69      1.0000 0.53240  0.98720  0.07580  Biso   1.000  H
  H70      1.0000 0.46760  0.01280  0.92420  Biso   1.000  H
  C97      1.0000 0.60360  0.85640  0.07830  Biso   1.000  C
  C98      1.0000 0.39640  0.14360  0.92170  Biso   1.000  C
  H71      1.0000 0.53130  0.83080  0.07770  Biso   1.000  H
  H72      1.0000 0.46870  0.16920  0.92230  Biso   1.000  H
  C99      1.0000 0.71030  0.79500  0.08030  Biso   1.000  C
  C100     1.0000 0.28970  0.20500  0.91970  Biso   1.000  C
  C101     1.0000 0.81830  0.83240  0.07870  Biso   1.000  C
  C102     1.0000 0.18170  0.16760  0.92130  Biso   1.000  C
  C103     1.0000 0.91910  0.76920  0.08200  Biso   1.000  C
  C104     1.0000 0.08090  0.23080  0.91800  Biso   1.000  C
  H73      1.0000 0.99390  0.79150  0.08190  Biso   1.000  H
  H74      1.0000 0.00610  0.20850  0.91810  Biso   1.000  H
  C105     1.0000 0.90840  0.67420  0.08550  Biso   1.000  C
  C106     1.0000 0.09160  0.32580  0.91450  Biso   1.000  C
  H75      1.0000 0.97640  0.63060  0.08710  Biso   1.000  H
  H76      1.0000 0.02360  0.36940  0.91290  Biso   1.000  H
  C107     1.0000 0.79940  0.64220  0.08670  Biso   1.000  C
  C108     1.0000 0.20060  0.35780  0.91330  Biso   1.000  C
  H77      1.0000 0.79410  0.57610  0.08930  Biso   1.000  H
  H78      1.0000 0.20590  0.42390  0.91070  Biso   1.000  H
  C109     1.0000 0.31970  0.19060  0.06990  Biso   1.000  C
  C110     1.0000 0.68030  0.80940  0.93010  Biso   1.000  C
  H79      1.0000 0.32300  0.12410  0.07180  Biso   1.000  H
  H80      1.0000 0.67700  0.87590  0.92820  Biso   1.000  H
  C111     1.0000 0.21520  0.24450  0.05980  Biso   1.000  C
  C112     1.0000 0.78480  0.75550  0.94020  Biso   1.000  C
  H81      1.0000 0.14860  0.21490  0.05560  Biso   1.000  H
  H82      1.0000 0.85140  0.78510  0.94440  Biso   1.000  H
  C113     1.0000 0.20790  0.34090  0.05600  Biso   1.000  C
  C114     1.0000 0.79210  0.65910  0.94400  Biso   1.000  C
  H83      1.0000 0.13600  0.37860  0.04960  Biso   1.000  H
  H84      1.0000 0.86400  0.62140  0.95040  Biso   1.000  H
  C115     1.0000 0.30770  0.38340  0.06150  Biso   1.000  C
  C116     1.0000 0.69230  0.61660  0.93850  Biso   1.000  C
  C117     1.0000 0.41060  0.32280  0.07320  Biso   1.000  C
  C118     1.0000 0.58940  0.67720  0.92680  Biso   1.000  C
  C119     1.0000 0.51140  0.36210  0.08280  Biso   1.000  C
  C120     1.0000 0.48860  0.63790  0.91720  Biso   1.000  C
  H85      1.0000 0.57990  0.32100  0.09130  Biso   1.000  H
  H86      1.0000 0.42010  0.67900  0.90870  Biso   1.000  H
  C121     1.0000 0.51220  0.45520  0.08000  Biso   1.000  C
  C122     1.0000 0.48780  0.54480  0.92000  Biso   1.000  C
  H87      1.0000 0.58070  0.47880  0.08700  Biso   1.000  H
  H88      1.0000 0.41930  0.52120  0.91300  Biso   1.000  H
  C123     1.0000 0.41240  0.51950  0.06690  Biso   1.000  C
  C124     1.0000 0.58760  0.48050  0.93310  Biso   1.000  C
  C125     1.0000 0.31040  0.48510  0.05580  Biso   1.000  C
  C126     1.0000 0.68960  0.51490  0.94420  Biso   1.000  C
  C127     1.0000 0.21670  0.55240  0.03980  Biso   1.000  C
  C128     1.0000 0.78330  0.44760  0.96020  Biso   1.000  C
  H89      1.0000 0.14670  0.53230  0.03190  Biso   1.000  H
  H90      1.0000 0.85330  0.46770  0.96810  Biso   1.000  H
  C129     1.0000 0.22710  0.64760  0.03550  Biso   1.000  C
  C130     1.0000 0.77290  0.35240  0.96450  Biso   1.000  C
  H91      1.0000 0.16500  0.69390  0.02360  Biso   1.000  H
  H92      1.0000 0.83500  0.30610  0.97640  Biso   1.000  H
  C131     1.0000 0.32770  0.67580  0.04840  Biso   1.000  C
  C132     1.0000 0.67230  0.32420  0.95160  Biso   1.000  C
  H93      1.0000 0.33210  0.74190  0.04590  Biso   1.000  H
  H94      1.0000 0.66790  0.25810  0.95410  Biso   1.000  H
  C133     1.0000 0.68760  0.85690  0.24030  Biso   1.000  C
  C134     1.0000 0.31240  0.14310  0.75970  Biso   1.000  C
  H95      1.0000 0.66380  0.86560  0.28030  Biso   1.000  H
  H96      1.0000 0.33620  0.13440  0.71970  Biso   1.000  H
  H97      1.0000 0.61740  0.86450  0.22070  Biso   1.000  H
  H98      1.0000 0.38260  0.13550  0.77930  Biso   1.000  H
  H99      1.0000 0.74340  0.90510  0.21710  Biso   1.000  H
  H100     1.0000 0.25660  0.09490  0.78290  Biso   1.000  H
  C135     1.0000 0.73760  0.77180  0.24400  Biso   1.000  C
  C136     1.0000 0.26240  0.22820  0.75600  Biso   1.000  C
  H101     1.0000 0.72400  0.74900  0.21030  Biso   1.000  H
  H102     1.0000 0.27600  0.25100  0.78970  Biso   1.000  H
  H103     1.0000 0.70360  0.72630  0.28130  Biso   1.000  H
  H104     1.0000 0.29640  0.27370  0.71870  Biso   1.000  H
  C137     1.0000 0.93670  0.66360  0.25160  Biso   1.000  C
  C138     1.0000 0.06330  0.33640  0.74840  Biso   1.000  C
  H105     1.0000 0.91800  0.62170  0.29240  Biso   1.000  H
  H106     1.0000 0.08200  0.37830  0.70760  Biso   1.000  H
  H107     1.0000 0.92100  0.63120  0.22240  Biso   1.000  H
  H108     1.0000 0.07900  0.36880  0.77760  Biso   1.000  H
  C139     1.0000 0.04500  0.69500  0.23980  Biso   1.000  C
  C140     1.0000 0.95500  0.30500  0.76020  Biso   1.000  C
  H109     1.0000 0.04860  0.75340  0.20660  Biso   1.000  H
  H110     1.0000 0.95140  0.24660  0.79340  Biso   1.000  H
  H111     1.0000 0.10210  0.64520  0.22920  Biso   1.000  H
  H112     1.0000 0.89790  0.35480  0.77080  Biso   1.000  H
  H113     1.0000 0.06350  0.70950  0.27500  Biso   1.000  H
  H114     1.0000 0.93650  0.29050  0.72500  Biso   1.000  H
