data_image0
_cell_length_a       5.871
_cell_length_b       13.107
_cell_length_c       10.051
_cell_angle_alpha    90
_cell_angle_beta     96.792
_cell_angle_gamma    90

_symmetry_space_group_name_H-M    "P 1"
_symmetry_int_tables_number       1

loop_
  _symmetry_equiv_pos_as_xyz
  'x, y, z'

loop_
  _atom_site_label
  _atom_site_occupancy
  _atom_site_fract_x
  _atom_site_fract_y
  _atom_site_fract_z
  _atom_site_thermal_displace_type
  _atom_site_B_iso_or_equiv
  _atom_site_type_symbol
  Cu1      1.0000 0.24515  0.49878  0.01422  Biso   1.000  Cu
  Cu2      1.0000 0.25485  0.99878  0.48578  Biso   1.000  Cu
  Cu3      1.0000 0.75485  0.50122  0.98578  Biso   1.000  Cu
  Cu4      1.0000 0.74515  0.00122  0.51422  Biso   1.000  Cu
  I1       1.0000 0.98187  0.41130  0.81228  Biso   1.000  I
  I2       1.0000 0.51813  0.91130  0.68772  Biso   1.000  I
  I3       1.0000 0.01813  0.58870  0.18772  Biso   1.000  I
  I4       1.0000 0.48187  0.08870  0.31228  Biso   1.000  I
  S1       1.0000 0.48350  0.62634  0.91677  Biso   1.000  S
  S2       1.0000 0.01650  0.12634  0.58323  Biso   1.000  S
  S3       1.0000 0.51650  0.37366  0.08323  Biso   1.000  S
  S4       1.0000 0.98350  0.87366  0.41677  Biso   1.000  S
  N1       1.0000 0.32620  0.57160  0.53430  Biso   1.000  N
  N2       1.0000 0.17380  0.07160  0.96570  Biso   1.000  N
  N3       1.0000 0.67380  0.42840  0.46570  Biso   1.000  N
  N4       1.0000 0.82620  0.92840  0.03430  Biso   1.000  N
  N5       1.0000 0.45740  0.56230  0.65460  Biso   1.000  N
  N6       1.0000 0.04260  0.06230  0.84540  Biso   1.000  N
  N7       1.0000 0.54260  0.43770  0.34540  Biso   1.000  N
  N8       1.0000 0.95740  0.93770  0.15460  Biso   1.000  N
  H1       1.0000 0.58020  0.52610  0.66640  Biso   1.000  H
  H2       1.0000 0.91980  0.02610  0.83360  Biso   1.000  H
  H3       1.0000 0.41980  0.47390  0.33360  Biso   1.000  H
  H4       1.0000 0.08020  0.97390  0.16640  Biso   1.000  H
  N9       1.0000 0.18410  0.65930  0.69190  Biso   1.000  N
  N10      1.0000 0.31590  0.15930  0.80810  Biso   1.000  N
  N11      1.0000 0.81590  0.34070  0.30810  Biso   1.000  N
  N12      1.0000 0.68410  0.84070  0.19190  Biso   1.000  N
  C1       1.0000 0.37700  0.61470  0.75180  Biso   1.000  C
  C2       1.0000 0.12300  0.11470  0.74820  Biso   1.000  C
  C3       1.0000 0.62300  0.38530  0.24820  Biso   1.000  C
  C4       1.0000 0.87700  0.88530  0.25180  Biso   1.000  C
  C5       1.0000 0.15930  0.63100  0.56060  Biso   1.000  C
  C6       1.0000 0.34070  0.13100  0.93940  Biso   1.000  C
  C7       1.0000 0.84070  0.36900  0.43940  Biso   1.000  C
  C8       1.0000 0.65930  0.86900  0.06060  Biso   1.000  C
  H5       1.0000 0.03870  0.65140  0.49790  Biso   1.000  H
  H6       1.0000 0.46130  0.15140  0.00210  Biso   1.000  H
  H7       1.0000 0.96130  0.34860  0.50210  Biso   1.000  H
  H8       1.0000 0.53870  0.84860  0.99790  Biso   1.000  H
  C9       1.0000 0.02610  0.72300  0.75790  Biso   1.000  C
  C10      1.0000 0.47390  0.22300  0.74210  Biso   1.000  C
  C11      1.0000 0.97390  0.27700  0.24210  Biso   1.000  C
  C12      1.0000 0.52610  0.77700  0.25790  Biso   1.000  C
  H9       1.0000 0.08400  0.73110  0.85070  Biso   1.000  H
  H10      1.0000 0.41600  0.23110  0.64930  Biso   1.000  H
  H11      1.0000 0.91600  0.26890  0.14930  Biso   1.000  H
  H12      1.0000 0.58400  0.76890  0.35070  Biso   1.000  H
  H13      1.0000 0.87820  0.69090  0.75090  Biso   1.000  H
  H14      1.0000 0.62180  0.19090  0.74910  Biso   1.000  H
  H15      1.0000 0.12180  0.30910  0.24910  Biso   1.000  H
  H16      1.0000 0.37820  0.80910  0.25090  Biso   1.000  H
  H17      1.0000 0.01240  0.78860  0.71540  Biso   1.000  H
  H18      1.0000 0.48760  0.28860  0.78460  Biso   1.000  H
  H19      1.0000 0.98760  0.21140  0.28460  Biso   1.000  H
  H20      1.0000 0.51240  0.71140  0.21540  Biso   1.000  H
