data_image0
_cell_length_a       8.8195
_cell_length_b       5.0838
_cell_length_c       11.78
_cell_angle_alpha    90
_cell_angle_beta     109.4
_cell_angle_gamma    90

_symmetry_space_group_name_H-M    "P 1"
_symmetry_int_tables_number       1

loop_
  _symmetry_equiv_pos_as_xyz
  'x, y, z'

loop_
  _atom_site_label
  _atom_site_occupancy
  _atom_site_fract_x
  _atom_site_fract_y
  _atom_site_fract_z
  _atom_site_thermal_displace_type
  _atom_site_B_iso_or_equiv
  _atom_site_type_symbol
  Cu1      1.0000 0.66473  0.00074  0.65884  Biso   1.000  Cu
  Cu2      1.0000 0.83527  0.50074  0.84116  Biso   1.000  Cu
  Cu3      1.0000 0.33527  0.99926  0.34116  Biso   1.000  Cu
  Cu4      1.0000 0.16473  0.49926  0.15884  Biso   1.000  Cu
  S1       1.0000 0.91942  0.83374  0.72745  Biso   1.000  S
  S2       1.0000 0.58058  0.33374  0.77255  Biso   1.000  S
  S3       1.0000 0.08058  0.16626  0.27255  Biso   1.000  S
  S4       1.0000 0.41942  0.66626  0.22745  Biso   1.000  S
  N1       1.0000 0.14450  0.27680  0.00207  Biso   1.000  N
  N2       1.0000 0.35550  0.77680  0.49793  Biso   1.000  N
  N3       1.0000 0.85550  0.72320  0.99793  Biso   1.000  N
  N4       1.0000 0.64450  0.22320  0.50207  Biso   1.000  N
  C1       1.0000 0.04400  0.01010  0.84840  Biso   1.000  C
  C2       1.0000 0.45600  0.51010  0.65160  Biso   1.000  C
  C3       1.0000 0.95600  0.98990  0.15160  Biso   1.000  C
  C4       1.0000 0.54400  0.48990  0.34840  Biso   1.000  C
  C5       1.0000 0.25460  0.10530  0.00300  Biso   1.000  C
  C6       1.0000 0.24540  0.60530  0.49700  Biso   1.000  C
  C7       1.0000 0.74540  0.89470  0.99700  Biso   1.000  C
  C8       1.0000 0.75460  0.39470  0.50300  Biso   1.000  C
  H1       1.0000 0.35690  0.09960  0.06020  Biso   1.000  H
  H2       1.0000 0.14310  0.59960  0.43980  Biso   1.000  H
  H3       1.0000 0.64310  0.90040  0.93980  Biso   1.000  H
  H4       1.0000 0.85690  0.40040  0.56020  Biso   1.000  H
  N5       1.0000 0.00970  0.22110  0.90198  Biso   1.000  N
  N6       1.0000 0.49030  0.72110  0.59802  Biso   1.000  N
  N7       1.0000 0.99030  0.77890  0.09802  Biso   1.000  N
  N8       1.0000 0.50970  0.27890  0.40198  Biso   1.000  N
  N9       1.0000 0.19990  0.93640  0.90915  Biso   1.000  N
  N10      1.0000 0.30010  0.43640  0.59085  Biso   1.000  N
  N11      1.0000 0.80010  0.06360  0.09085  Biso   1.000  N
  N12      1.0000 0.69990  0.56360  0.40915  Biso   1.000  N
  C9       1.0000 0.29230  0.72850  0.87790  Biso   1.000  C
  C10      1.0000 0.20770  0.22850  0.62210  Biso   1.000  C
  C11      1.0000 0.70770  0.27150  0.12210  Biso   1.000  C
  C12      1.0000 0.79230  0.77150  0.37790  Biso   1.000  C
  H5       1.0000 0.39770  0.72100  0.93720  Biso   1.000  H
  H6       1.0000 0.10230  0.22100  0.56280  Biso   1.000  H
  H7       1.0000 0.60230  0.27900  0.06280  Biso   1.000  H
  H8       1.0000 0.89770  0.77900  0.43720  Biso   1.000  H
  H9       1.0000 0.30130  0.76440  0.80040  Biso   1.000  H
  H10      1.0000 0.19870  0.26440  0.69960  Biso   1.000  H
  H11      1.0000 0.69870  0.23560  0.19960  Biso   1.000  H
  H12      1.0000 0.80130  0.73560  0.30040  Biso   1.000  H
  H13      1.0000 0.23890  0.56310  0.87550  Biso   1.000  H
  H14      1.0000 0.26110  0.06310  0.62450  Biso   1.000  H
  H15      1.0000 0.76110  0.43690  0.12450  Biso   1.000  H
  H16      1.0000 0.73890  0.93690  0.37550  Biso   1.000  H
