data_image0
_cell_length_a       15.6513
_cell_length_b       16.1222
_cell_length_c       16.0671
_cell_angle_alpha    90
_cell_angle_beta     90
_cell_angle_gamma    90

_symmetry_space_group_name_H-M    "P 1"
_symmetry_int_tables_number       1

loop_
  _symmetry_equiv_pos_as_xyz
  'x, y, z'

loop_
  _atom_site_label
  _atom_site_occupancy
  _atom_site_fract_x
  _atom_site_fract_y
  _atom_site_fract_z
  _atom_site_thermal_displace_type
  _atom_site_B_iso_or_equiv
  _atom_site_type_symbol
  Cu1      1.0000 0.47560  0.75000  0.11863  Biso   1.000  Cu
  Cu2      1.0000 0.02440  0.25000  0.61863  Biso   1.000  Cu
  Cu3      1.0000 0.97560  0.75000  0.38137  Biso   1.000  Cu
  Cu4      1.0000 0.52440  0.25000  0.88137  Biso   1.000  Cu
  Cu5      1.0000 0.27218  0.65086  0.23882  Biso   1.000  Cu
  Cu6      1.0000 0.22782  0.34914  0.73882  Biso   1.000  Cu
  Cu7      1.0000 0.77218  0.84914  0.26118  Biso   1.000  Cu
  Cu8      1.0000 0.72782  0.15086  0.76118  Biso   1.000  Cu
  Cu9      1.0000 0.72782  0.34914  0.76118  Biso   1.000  Cu
  Cu10     1.0000 0.77218  0.65086  0.26118  Biso   1.000  Cu
  Cu11     1.0000 0.22782  0.15086  0.73882  Biso   1.000  Cu
  Cu12     1.0000 0.27218  0.84914  0.23882  Biso   1.000  Cu
  Cu13     1.0000 0.65612  0.63269  0.14226  Biso   1.000  Cu
  Cu14     1.0000 0.84388  0.36731  0.64226  Biso   1.000  Cu
  Cu15     1.0000 0.15612  0.86731  0.35774  Biso   1.000  Cu
  Cu16     1.0000 0.34388  0.13269  0.85774  Biso   1.000  Cu
  Cu17     1.0000 0.34388  0.36731  0.85774  Biso   1.000  Cu
  Cu18     1.0000 0.15612  0.63269  0.35774  Biso   1.000  Cu
  Cu19     1.0000 0.84388  0.13269  0.64226  Biso   1.000  Cu
  Cu20     1.0000 0.65612  0.86731  0.14226  Biso   1.000  Cu
  Cu21     1.0000 0.31119  0.63396  0.40329  Biso   1.000  Cu
  Cu22     1.0000 0.18881  0.36604  0.90329  Biso   1.000  Cu
  Cu23     1.0000 0.81119  0.86604  0.09671  Biso   1.000  Cu
  Cu24     1.0000 0.68881  0.13396  0.59671  Biso   1.000  Cu
  Cu25     1.0000 0.68881  0.36604  0.59671  Biso   1.000  Cu
  Cu26     1.0000 0.81119  0.63396  0.09671  Biso   1.000  Cu
  Cu27     1.0000 0.18881  0.13396  0.90329  Biso   1.000  Cu
  Cu28     1.0000 0.31119  0.86604  0.40329  Biso   1.000  Cu
  Cu29     1.0000 0.39483  0.75000  0.56011  Biso   1.000  Cu
  Cu30     1.0000 0.10517  0.25000  0.06011  Biso   1.000  Cu
  Cu31     1.0000 0.89483  0.75000  0.93989  Biso   1.000  Cu
  Cu32     1.0000 0.60517  0.25000  0.43989  Biso   1.000  Cu
  Cu33     1.0000 0.40462  0.75000  0.74863  Biso   1.000  Cu
  Cu34     1.0000 0.09538  0.25000  0.24863  Biso   1.000  Cu
  Cu35     1.0000 0.90462  0.75000  0.75137  Biso   1.000  Cu
  Cu36     1.0000 0.59538  0.25000  0.25137  Biso   1.000  Cu
  Cu37     1.0000 0.26571  0.75000  0.87440  Biso   1.000  Cu
  Cu38     1.0000 0.23429  0.25000  0.37440  Biso   1.000  Cu
  Cu39     1.0000 0.76571  0.75000  0.62560  Biso   1.000  Cu
  Cu40     1.0000 0.73429  0.25000  0.12560  Biso   1.000  Cu
  Cu41     1.0000 0.30818  0.75000  0.04394  Biso   1.000  Cu
  Cu42     1.0000 0.19182  0.25000  0.54394  Biso   1.000  Cu
  Cu43     1.0000 0.80818  0.75000  0.45606  Biso   1.000  Cu
  Cu44     1.0000 0.69182  0.25000  0.95606  Biso   1.000  Cu
  Cu45     1.0000 0.04549  0.75000  0.83471  Biso   1.000  Cu
  Cu46     1.0000 0.45451  0.25000  0.33471  Biso   1.000  Cu
  Cu47     1.0000 0.54549  0.75000  0.66529  Biso   1.000  Cu
  Cu48     1.0000 0.95451  0.25000  0.16529  Biso   1.000  Cu
  I1       1.0000 0.13500  0.75000  0.23626  Biso   1.000  I
  I2       1.0000 0.36500  0.25000  0.73626  Biso   1.000  I
  I3       1.0000 0.63500  0.75000  0.26374  Biso   1.000  I
  I4       1.0000 0.86500  0.25000  0.76374  Biso   1.000  I
  I5       1.0000 0.39385  0.75000  0.31337  Biso   1.000  I
  I6       1.0000 0.10615  0.25000  0.81337  Biso   1.000  I
  I7       1.0000 0.89385  0.75000  0.18663  Biso   1.000  I
  I8       1.0000 0.60615  0.25000  0.68663  Biso   1.000  I
  I9       1.0000 0.69731  0.75000  0.02653  Biso   1.000  I
  I10      1.0000 0.80269  0.25000  0.52653  Biso   1.000  I
  I11      1.0000 0.19731  0.75000  0.47347  Biso   1.000  I
  I12      1.0000 0.30269  0.25000  0.97347  Biso   1.000  I
  I13      1.0000 0.25393  0.50437  0.32092  Biso   1.000  I
  I14      1.0000 0.24607  0.49563  0.82092  Biso   1.000  I
  I15      1.0000 0.75393  0.99563  0.17908  Biso   1.000  I
  I16      1.0000 0.74607  0.00437  0.67908  Biso   1.000  I
  I17      1.0000 0.74607  0.49563  0.67908  Biso   1.000  I
  I18      1.0000 0.75393  0.50437  0.17908  Biso   1.000  I
  I19      1.0000 0.24607  0.00437  0.82092  Biso   1.000  I
  I20      1.0000 0.25393  0.99563  0.32092  Biso   1.000  I
  I21      1.0000 0.24118  0.75000  0.71834  Biso   1.000  I
  I22      1.0000 0.25882  0.25000  0.21834  Biso   1.000  I
  I23      1.0000 0.74118  0.75000  0.78166  Biso   1.000  I
  I24      1.0000 0.75882  0.25000  0.28166  Biso   1.000  I
  I25      1.0000 0.42552  0.75000  0.91738  Biso   1.000  I
  I26      1.0000 0.07448  0.25000  0.41738  Biso   1.000  I
  I27      1.0000 0.92552  0.75000  0.58262  Biso   1.000  I
  I28      1.0000 0.57448  0.25000  0.08262  Biso   1.000  I
  I29      1.0000 0.13611  0.75000  0.97163  Biso   1.000  I
  I30      1.0000 0.36389  0.25000  0.47163  Biso   1.000  I
  I31      1.0000 0.63611  0.75000  0.52837  Biso   1.000  I
  I32      1.0000 0.86389  0.25000  0.02837  Biso   1.000  I
  S1       1.0000 0.29807  0.62029  0.10079  Biso   1.000  S
  S2       1.0000 0.20193  0.37971  0.60079  Biso   1.000  S
  S3       1.0000 0.79807  0.87971  0.39921  Biso   1.000  S
  S4       1.0000 0.70193  0.12029  0.89921  Biso   1.000  S
  S5       1.0000 0.70193  0.37971  0.89921  Biso   1.000  S
  S6       1.0000 0.79807  0.62029  0.39921  Biso   1.000  S
  S7       1.0000 0.20193  0.12029  0.60079  Biso   1.000  S
  S8       1.0000 0.29807  0.87971  0.10079  Biso   1.000  S
  S9       1.0000 0.49014  0.62566  0.70966  Biso   1.000  S
  S10      1.0000 0.00986  0.37434  0.20966  Biso   1.000  S
  S11      1.0000 0.99014  0.87434  0.79034  Biso   1.000  S
  S12      1.0000 0.50986  0.12566  0.29034  Biso   1.000  S
  S13      1.0000 0.50986  0.37434  0.29034  Biso   1.000  S
  S14      1.0000 0.99014  0.62566  0.79034  Biso   1.000  S
  S15      1.0000 0.00986  0.12566  0.20966  Biso   1.000  S
  S16      1.0000 0.49014  0.87434  0.70966  Biso   1.000  S
  N1       1.0000 0.47040  0.63330  0.11500  Biso   1.000  N
  N2       1.0000 0.02960  0.36670  0.61500  Biso   1.000  N
  N3       1.0000 0.97040  0.86670  0.38500  Biso   1.000  N
  N4       1.0000 0.52960  0.13330  0.88500  Biso   1.000  N
  N5       1.0000 0.52960  0.36670  0.88500  Biso   1.000  N
  N6       1.0000 0.97040  0.63330  0.38500  Biso   1.000  N
  N7       1.0000 0.02960  0.13330  0.61500  Biso   1.000  N
  N8       1.0000 0.47040  0.86670  0.11500  Biso   1.000  N
  N9       1.0000 0.54210  0.58250  0.11940  Biso   1.000  N
  N10      1.0000 0.95790  0.41750  0.61940  Biso   1.000  N
  N11      1.0000 0.04210  0.91750  0.38060  Biso   1.000  N
  N12      1.0000 0.45790  0.08250  0.88060  Biso   1.000  N
  N13      1.0000 0.45790  0.41750  0.88060  Biso   1.000  N
  N14      1.0000 0.04210  0.58250  0.38060  Biso   1.000  N
  N15      1.0000 0.95790  0.08250  0.61940  Biso   1.000  N
  N16      1.0000 0.54210  0.91750  0.11940  Biso   1.000  N
  N17      1.0000 0.42800  0.50570  0.10710  Biso   1.000  N
  N18      1.0000 0.07200  0.49430  0.60710  Biso   1.000  N
  N19      1.0000 0.92800  0.99430  0.39290  Biso   1.000  N
  N20      1.0000 0.57200  0.00570  0.89290  Biso   1.000  N
  N21      1.0000 0.57200  0.49430  0.89290  Biso   1.000  N
  N22      1.0000 0.92800  0.50570  0.39290  Biso   1.000  N
  N23      1.0000 0.07200  0.00570  0.60710  Biso   1.000  N
  N24      1.0000 0.42800  0.99430  0.10710  Biso   1.000  N
  N25      1.0000 0.37280  0.58450  0.50070  Biso   1.000  N
  N26      1.0000 0.12720  0.41550  0.00070  Biso   1.000  N
  N27      1.0000 0.87280  0.91550  0.99930  Biso   1.000  N
  N28      1.0000 0.62720  0.08450  0.49930  Biso   1.000  N
  N29      1.0000 0.62720  0.41550  0.49930  Biso   1.000  N
  N30      1.0000 0.87280  0.58450  0.99930  Biso   1.000  N
  N31      1.0000 0.12720  0.08450  0.00070  Biso   1.000  N
  N32      1.0000 0.37280  0.91550  0.50070  Biso   1.000  N
  N33      1.0000 0.40540  0.63670  0.56210  Biso   1.000  N
  N34      1.0000 0.09460  0.36330  0.06210  Biso   1.000  N
  N35      1.0000 0.90540  0.86330  0.93790  Biso   1.000  N
  N36      1.0000 0.59460  0.13670  0.43790  Biso   1.000  N
  N37      1.0000 0.59460  0.36330  0.43790  Biso   1.000  N
  N38      1.0000 0.90540  0.63670  0.93790  Biso   1.000  N
  N39      1.0000 0.09460  0.13670  0.06210  Biso   1.000  N
  N40      1.0000 0.40540  0.86330  0.56210  Biso   1.000  N
  N41      1.0000 0.43080  0.51020  0.59920  Biso   1.000  N
  N42      1.0000 0.06920  0.48980  0.09920  Biso   1.000  N
  N43      1.0000 0.93080  0.98980  0.90080  Biso   1.000  N
  N44      1.0000 0.56920  0.01020  0.40080  Biso   1.000  N
  N45      1.0000 0.56920  0.48980  0.40080  Biso   1.000  N
  N46      1.0000 0.93080  0.51020  0.90080  Biso   1.000  N
  N47      1.0000 0.06920  0.01020  0.09920  Biso   1.000  N
  N48      1.0000 0.43080  0.98980  0.59920  Biso   1.000  N
  C1       1.0000 0.40290  0.58630  0.10770  Biso   1.000  C
  C2       1.0000 0.09710  0.41370  0.60770  Biso   1.000  C
  C3       1.0000 0.90290  0.91370  0.39230  Biso   1.000  C
  C4       1.0000 0.59710  0.08630  0.89230  Biso   1.000  C
  C5       1.0000 0.59710  0.41370  0.89230  Biso   1.000  C
  C6       1.0000 0.90290  0.58630  0.39230  Biso   1.000  C
  C7       1.0000 0.09710  0.08630  0.60770  Biso   1.000  C
  C8       1.0000 0.40290  0.91370  0.10770  Biso   1.000  C
  C9       1.0000 0.51420  0.50650  0.11360  Biso   1.000  C
  C10      1.0000 0.98580  0.49350  0.61360  Biso   1.000  C
  C11      1.0000 0.01420  0.99350  0.38640  Biso   1.000  C
  C12      1.0000 0.48580  0.00650  0.88640  Biso   1.000  C
  C13      1.0000 0.48580  0.49350  0.88640  Biso   1.000  C
  C14      1.0000 0.01420  0.50650  0.38640  Biso   1.000  C
  C15      1.0000 0.98580  0.00650  0.61360  Biso   1.000  C
  C16      1.0000 0.51420  0.99350  0.11360  Biso   1.000  C
  H1       1.0000 0.54860  0.45950  0.11390  Biso   1.000  H
  H2       1.0000 0.95140  0.54050  0.61390  Biso   1.000  H
  H3       1.0000 0.04860  0.04050  0.38610  Biso   1.000  H
  H4       1.0000 0.45140  0.95950  0.88610  Biso   1.000  H
  H5       1.0000 0.45140  0.54050  0.88610  Biso   1.000  H
  H6       1.0000 0.04860  0.45950  0.38610  Biso   1.000  H
  H7       1.0000 0.95140  0.95950  0.61390  Biso   1.000  H
  H8       1.0000 0.54860  0.04050  0.11390  Biso   1.000  H
  C17      1.0000 0.37380  0.43180  0.10130  Biso   1.000  C
  C18      1.0000 0.12620  0.56820  0.60130  Biso   1.000  C
  C19      1.0000 0.87380  0.06820  0.39870  Biso   1.000  C
  C20      1.0000 0.62620  0.93180  0.89870  Biso   1.000  C
  C21      1.0000 0.62620  0.56820  0.89870  Biso   1.000  C
  C22      1.0000 0.87380  0.43180  0.39870  Biso   1.000  C
  C23      1.0000 0.12620  0.93180  0.60130  Biso   1.000  C
  C24      1.0000 0.37380  0.06820  0.10130  Biso   1.000  C
  H9       1.0000 0.40890  0.38300  0.10230  Biso   1.000  H
  H10      1.0000 0.09110  0.61700  0.60230  Biso   1.000  H
  H11      1.0000 0.90890  0.11700  0.39770  Biso   1.000  H
  H12      1.0000 0.59110  0.88300  0.89770  Biso   1.000  H
  H13      1.0000 0.59110  0.61700  0.89770  Biso   1.000  H
  H14      1.0000 0.90890  0.38300  0.39770  Biso   1.000  H
  H15      1.0000 0.09110  0.88300  0.60230  Biso   1.000  H
  H16      1.0000 0.40890  0.11700  0.10230  Biso   1.000  H
  H17      1.0000 0.34190  0.43340  0.05030  Biso   1.000  H
  H18      1.0000 0.15810  0.56660  0.55030  Biso   1.000  H
  H19      1.0000 0.84190  0.06660  0.44970  Biso   1.000  H
  H20      1.0000 0.65810  0.93340  0.94970  Biso   1.000  H
  H21      1.0000 0.65810  0.56660  0.94970  Biso   1.000  H
  H22      1.0000 0.84190  0.43340  0.44970  Biso   1.000  H
  H23      1.0000 0.15810  0.93340  0.55030  Biso   1.000  H
  H24      1.0000 0.34190  0.06660  0.05030  Biso   1.000  H
  H25      1.0000 0.33500  0.43060  0.14760  Biso   1.000  H
  H26      1.0000 0.16500  0.56940  0.64760  Biso   1.000  H
  H27      1.0000 0.83500  0.06940  0.35240  Biso   1.000  H
  H28      1.0000 0.66500  0.93060  0.85240  Biso   1.000  H
  H29      1.0000 0.66500  0.56940  0.85240  Biso   1.000  H
  H30      1.0000 0.83500  0.43060  0.35240  Biso   1.000  H
  H31      1.0000 0.16500  0.93060  0.64760  Biso   1.000  H
  H32      1.0000 0.33500  0.06940  0.14760  Biso   1.000  H
  C25      1.0000 0.44060  0.59080  0.62060  Biso   1.000  C
  C26      1.0000 0.05940  0.40920  0.12060  Biso   1.000  C
  C27      1.0000 0.94060  0.90920  0.87940  Biso   1.000  C
  C28      1.0000 0.55940  0.09080  0.37940  Biso   1.000  C
  C29      1.0000 0.55940  0.40920  0.37940  Biso   1.000  C
  C30      1.0000 0.94060  0.59080  0.87940  Biso   1.000  C
  C31      1.0000 0.05940  0.09080  0.12060  Biso   1.000  C
  C32      1.0000 0.44060  0.90920  0.62060  Biso   1.000  C
  C33      1.0000 0.38840  0.50950  0.52460  Biso   1.000  C
  C34      1.0000 0.11160  0.49050  0.02460  Biso   1.000  C
  C35      1.0000 0.88840  0.99050  0.97540  Biso   1.000  C
  C36      1.0000 0.61160  0.00950  0.47540  Biso   1.000  C
  C37      1.0000 0.61160  0.49050  0.47540  Biso   1.000  C
  C38      1.0000 0.88840  0.50950  0.97540  Biso   1.000  C
  C39      1.0000 0.11160  0.00950  0.02460  Biso   1.000  C
  C40      1.0000 0.38840  0.99050  0.52460  Biso   1.000  C
  H33      1.0000 0.37310  0.46200  0.49550  Biso   1.000  H
  H34      1.0000 0.12690  0.53800  0.99550  Biso   1.000  H
  H35      1.0000 0.87310  0.03800  0.00450  Biso   1.000  H
  H36      1.0000 0.62690  0.96200  0.50450  Biso   1.000  H
  H37      1.0000 0.62690  0.53800  0.50450  Biso   1.000  H
  H38      1.0000 0.87310  0.46200  0.00450  Biso   1.000  H
  H39      1.0000 0.12690  0.96200  0.99550  Biso   1.000  H
  H40      1.0000 0.37310  0.03800  0.49550  Biso   1.000  H
  C41      1.0000 0.45930  0.43850  0.64610  Biso   1.000  C
  C42      1.0000 0.04070  0.56150  0.14610  Biso   1.000  C
  C43      1.0000 0.95930  0.06150  0.85390  Biso   1.000  C
  C44      1.0000 0.54070  0.93850  0.35390  Biso   1.000  C
  C45      1.0000 0.54070  0.56150  0.35390  Biso   1.000  C
  C46      1.0000 0.95930  0.43850  0.85390  Biso   1.000  C
  C47      1.0000 0.04070  0.93850  0.14610  Biso   1.000  C
  C48      1.0000 0.45930  0.06150  0.64610  Biso   1.000  C
  H41      1.0000 0.48660  0.45650  0.69650  Biso   1.000  H
  H42      1.0000 0.01340  0.54350  0.19650  Biso   1.000  H
  H43      1.0000 0.98660  0.04350  0.80350  Biso   1.000  H
  H44      1.0000 0.51340  0.95650  0.30350  Biso   1.000  H
  H45      1.0000 0.51340  0.54350  0.30350  Biso   1.000  H
  H46      1.0000 0.98660  0.45650  0.80350  Biso   1.000  H
  H47      1.0000 0.01340  0.95650  0.19650  Biso   1.000  H
  H48      1.0000 0.48660  0.04350  0.69650  Biso   1.000  H
  H49      1.0000 0.49910  0.40720  0.61330  Biso   1.000  H
  H50      1.0000 0.00090  0.59280  0.11330  Biso   1.000  H
  H51      1.0000 0.99910  0.09280  0.88670  Biso   1.000  H
  H52      1.0000 0.50090  0.90720  0.38670  Biso   1.000  H
  H53      1.0000 0.50090  0.59280  0.38670  Biso   1.000  H
  H54      1.0000 0.99910  0.40720  0.88670  Biso   1.000  H
  H55      1.0000 0.00090  0.90720  0.11330  Biso   1.000  H
  H56      1.0000 0.49910  0.09280  0.61330  Biso   1.000  H
  H57      1.0000 0.41100  0.40430  0.65970  Biso   1.000  H
  H58      1.0000 0.08900  0.59570  0.15970  Biso   1.000  H
  H59      1.0000 0.91100  0.09570  0.84030  Biso   1.000  H
  H60      1.0000 0.58900  0.90430  0.34030  Biso   1.000  H
  H61      1.0000 0.58900  0.59570  0.34030  Biso   1.000  H
  H62      1.0000 0.91100  0.40430  0.84030  Biso   1.000  H
  H63      1.0000 0.08900  0.90430  0.15970  Biso   1.000  H
  H64      1.0000 0.41100  0.09570  0.65970  Biso   1.000  H
