data_image0
_cell_length_a       7.1138
_cell_length_b       11.0894
_cell_length_c       11.8195
_cell_angle_alpha    104.967
_cell_angle_beta     92.262
_cell_angle_gamma    100.764

_symmetry_space_group_name_H-M    "P 1"
_symmetry_int_tables_number       1

loop_
  _symmetry_equiv_pos_as_xyz
  'x, y, z'

loop_
  _atom_site_label
  _atom_site_occupancy
  _atom_site_fract_x
  _atom_site_fract_y
  _atom_site_fract_z
  _atom_site_thermal_displace_type
  _atom_site_B_iso_or_equiv
  _atom_site_type_symbol
  Cu1      1.0000 0.20221  0.03296  0.52412  Biso   1.000  Cu
  Cu2      1.0000 0.79779  0.96704  0.47588  Biso   1.000  Cu
  I1       1.0000 0.34073  0.42817  0.18890  Biso   1.000  I
  I2       1.0000 0.65927  0.57183  0.81110  Biso   1.000  I
  S1       1.0000 0.09620  0.86836  0.75190  Biso   1.000  S
  S2       1.0000 0.90380  0.13164  0.24810  Biso   1.000  S
  S3       1.0000 0.30850  0.77044  0.78606  Biso   1.000  S
  S4       1.0000 0.69150  0.22956  0.21394  Biso   1.000  S
  S5       1.0000 0.08060  0.82875  0.43333  Biso   1.000  S
  S6       1.0000 0.91940  0.17125  0.56667  Biso   1.000  S
  N1       1.0000 0.39000  0.20060  0.75250  Biso   1.000  N
  N2       1.0000 0.61000  0.79940  0.24750  Biso   1.000  N
  N3       1.0000 0.28690  0.07950  0.69760  Biso   1.000  N
  N4       1.0000 0.71310  0.92050  0.30240  Biso   1.000  N
  N5       1.0000 0.29990  0.10260  0.88710  Biso   1.000  N
  N6       1.0000 0.70010  0.89740  0.11290  Biso   1.000  N
  N7       1.0000 0.62300  0.84350  0.54420  Biso   1.000  N
  N8       1.0000 0.37700  0.15650  0.45580  Biso   1.000  N
  N9       1.0000 0.57350  0.87300  0.65840  Biso   1.000  N
  N10      1.0000 0.42650  0.12700  0.34160  Biso   1.000  N
  N11      1.0000 0.40060  0.68640  0.55800  Biso   1.000  N
  N12      1.0000 0.59940  0.31360  0.44200  Biso   1.000  N
  N13      1.0000 0.17600  0.83290  0.10970  Biso   1.000  N
  N14      1.0000 0.82400  0.16710  0.89030  Biso   1.000  N
  N15      1.0000 0.19410  0.88380  0.22890  Biso   1.000  N
  N16      1.0000 0.80590  0.11620  0.77110  Biso   1.000  N
  H1       1.0000 0.25970  0.95880  0.26330  Biso   1.000  H
  H2       1.0000 0.74030  0.04120  0.73670  Biso   1.000  H
  N17      1.0000 0.01530  0.70060  0.19940  Biso   1.000  N
  N18      1.0000 0.98470  0.29940  0.80060  Biso   1.000  N
  C1       1.0000 0.23270  0.02190  0.77950  Biso   1.000  C
  C2       1.0000 0.76730  0.97810  0.22050  Biso   1.000  C
  C3       1.0000 0.39450  0.21000  0.86550  Biso   1.000  C
  C4       1.0000 0.60550  0.79000  0.13450  Biso   1.000  C
  H3       1.0000 0.45580  0.28220  0.92360  Biso   1.000  H
  H4       1.0000 0.54420  0.71780  0.07640  Biso   1.000  H
  C5       1.0000 0.27060  0.07780  0.00190  Biso   1.000  C
  C6       1.0000 0.72940  0.92220  0.99810  Biso   1.000  C
  H5       1.0000 0.33430  0.15090  0.06320  Biso   1.000  H
  H6       1.0000 0.66570  0.84910  0.93680  Biso   1.000  H
  H7       1.0000 0.32270  0.00510  0.00630  Biso   1.000  H
  H8       1.0000 0.67730  0.99490  0.99370  Biso   1.000  H
  H9       1.0000 0.13560  0.06110  0.01120  Biso   1.000  H
  H10      1.0000 0.86440  0.93890  0.98880  Biso   1.000  H
  C7       1.0000 0.43620  0.77640  0.66260  Biso   1.000  C
  C8       1.0000 0.56380  0.22360  0.33740  Biso   1.000  C
  C9       1.0000 0.51930  0.73260  0.48710  Biso   1.000  C
  C10      1.0000 0.48070  0.26740  0.51290  Biso   1.000  C
  H11      1.0000 0.52680  0.69160  0.40860  Biso   1.000  H
  H12      1.0000 0.47320  0.30840  0.59140  Biso   1.000  H
  C11      1.0000 0.25520  0.56830  0.52870  Biso   1.000  C
  C12      1.0000 0.74480  0.43170  0.47130  Biso   1.000  C
  H13      1.0000 0.19210  0.56010  0.59740  Biso   1.000  H
  H14      1.0000 0.80790  0.43990  0.40260  Biso   1.000  H
  H15      1.0000 0.31560  0.49700  0.50100  Biso   1.000  H
  H16      1.0000 0.68440  0.50300  0.49900  Biso   1.000  H
  H17      1.0000 0.16230  0.57020  0.46830  Biso   1.000  H
  H18      1.0000 0.83770  0.42980  0.53170  Biso   1.000  H
  C13      1.0000 0.10010  0.80580  0.28720  Biso   1.000  C
  C14      1.0000 0.89990  0.19420  0.71280  Biso   1.000  C
  C15      1.0000 0.06570  0.72330  0.09630  Biso   1.000  C
  C16      1.0000 0.93430  0.27670  0.90370  Biso   1.000  C
  H19      1.0000 0.02480  0.66540  0.02330  Biso   1.000  H
  H20      1.0000 0.97520  0.33460  0.97670  Biso   1.000  H
  C17      1.0000 0.89020  0.58590  0.21620  Biso   1.000  C
  C18      1.0000 0.10980  0.41410  0.78380  Biso   1.000  C
  H21      1.0000 0.84900  0.52540  0.14110  Biso   1.000  H
  H22      1.0000 0.15100  0.47460  0.85890  Biso   1.000  H
  H23      1.0000 0.77990  0.60900  0.25380  Biso   1.000  H
  H24      1.0000 0.22010  0.39100  0.74620  Biso   1.000  H
  H25      1.0000 0.96000  0.54870  0.26460  Biso   1.000  H
  H26      1.0000 0.04000  0.45130  0.73540  Biso   1.000  H
