data_image0
_cell_length_a       7.791
_cell_length_b       12.058
_cell_length_c       12.109
_cell_angle_alpha    82.189
_cell_angle_beta     72.407
_cell_angle_gamma    89.184

_symmetry_space_group_name_H-M    "P 1"
_symmetry_int_tables_number       1

loop_
  _symmetry_equiv_pos_as_xyz
  'x, y, z'

loop_
  _atom_site_label
  _atom_site_occupancy
  _atom_site_fract_x
  _atom_site_fract_y
  _atom_site_fract_z
  _atom_site_thermal_displace_type
  _atom_site_B_iso_or_equiv
  _atom_site_type_symbol
  Cu1      1.0000 0.18233  0.47811  0.60106  Biso   1.000  Cu
  Cu2      1.0000 0.81767  0.52189  0.39894  Biso   1.000  Cu
  Eu1      1.0000 0.25541  0.18741  0.04101  Biso   1.000  Eu
  Eu2      1.0000 0.74459  0.81259  0.95899  Biso   1.000  Eu
  C1       1.0000 0.74340  0.39820  0.19130  Biso   1.000  C
  C2       1.0000 0.25660  0.60180  0.80870  Biso   1.000  C
  C3       1.0000 0.64770  0.32320  0.30460  Biso   1.000  C
  C4       1.0000 0.35230  0.67680  0.69540  Biso   1.000  C
  C5       1.0000 0.52080  0.37230  0.38700  Biso   1.000  C
  C6       1.0000 0.47920  0.62770  0.61300  Biso   1.000  C
  H1       1.0000 0.49670  0.44780  0.37270  Biso   1.000  H
  H2       1.0000 0.50330  0.55220  0.62730  Biso   1.000  H
  C7       1.0000 0.42800  0.30840  0.49240  Biso   1.000  C
  C8       1.0000 0.57200  0.69160  0.50760  Biso   1.000  C
  C9       1.0000 0.25950  0.24760  0.66710  Biso   1.000  C
  C10      1.0000 0.74050  0.75240  0.33290  Biso   1.000  C
  H3       1.0000 0.17800  0.24440  0.74170  Biso   1.000  H
  H4       1.0000 0.82200  0.75560  0.25830  Biso   1.000  H
  C11      1.0000 0.46320  0.19560  0.51440  Biso   1.000  C
  C12      1.0000 0.53680  0.80440  0.48560  Biso   1.000  C
  C13      1.0000 0.58780  0.14220  0.43120  Biso   1.000  C
  C14      1.0000 0.41220  0.85780  0.56880  Biso   1.000  C
  H5       1.0000 0.60950  0.06650  0.44620  Biso   1.000  H
  H6       1.0000 0.39050  0.93350  0.55380  Biso   1.000  H
  C15      1.0000 0.68030  0.20620  0.32350  Biso   1.000  C
  C16      1.0000 0.31970  0.79380  0.67650  Biso   1.000  C
  C17      1.0000 0.81780  0.14620  0.23650  Biso   1.000  C
  C18      1.0000 0.18220  0.85380  0.76350  Biso   1.000  C
  C19      1.0000 0.46620  0.79440  0.17690  Biso   1.000  C
  C20      1.0000 0.53380  0.20560  0.82310  Biso   1.000  C
  C21      1.0000 0.30100  0.79020  0.28090  Biso   1.000  C
  C22      1.0000 0.69900  0.20980  0.71910  Biso   1.000  C
  C23      1.0000 0.26650  0.69280  0.36040  Biso   1.000  C
  C24      1.0000 0.73350  0.30720  0.63960  Biso   1.000  C
  H7       1.0000 0.33290  0.62910  0.34440  Biso   1.000  H
  H8       1.0000 0.66710  0.37090  0.65560  Biso   1.000  H
  C25      1.0000 0.12740  0.69400  0.46600  Biso   1.000  C
  C26      1.0000 0.87260  0.30600  0.53400  Biso   1.000  C
  C27      1.0000 0.93840  0.65700  0.63990  Biso   1.000  C
  C28      1.0000 0.06160  0.34300  0.36010  Biso   1.000  C
  H9       1.0000 0.87470  0.62000  0.71320  Biso   1.000  H
  H10      1.0000 0.12530  0.38000  0.28680  Biso   1.000  H
  C29      1.0000 0.02600  0.79020  0.48930  Biso   1.000  C
  C30      1.0000 0.97400  0.20980  0.51070  Biso   1.000  C
  C31      1.0000 0.05590  0.88700  0.40840  Biso   1.000  C
  C32      1.0000 0.94410  0.11300  0.59160  Biso   1.000  C
  H11      1.0000 0.98590  0.94970  0.42300  Biso   1.000  H
  H12      1.0000 0.01410  0.05030  0.57700  Biso   1.000  H
  C33      1.0000 0.19460  0.88590  0.30520  Biso   1.000  C
  C34      1.0000 0.80540  0.11410  0.69480  Biso   1.000  C
  C35      1.0000 0.22620  0.99180  0.21560  Biso   1.000  C
  C36      1.0000 0.77380  0.00820  0.78440  Biso   1.000  C
  N1       1.0000 0.29680  0.33990  0.58990  Biso   1.000  N
  N2       1.0000 0.70320  0.66010  0.41010  Biso   1.000  N
  N3       1.0000 0.35190  0.15910  0.62610  Biso   1.000  N
  N4       1.0000 0.64810  0.84090  0.37390  Biso   1.000  N
  H13      1.0000 0.34340  0.09210  0.66270  Biso   1.000  H
  H14      1.0000 0.65660  0.90790  0.33730  Biso   1.000  H
  N5       1.0000 0.06840  0.61130  0.56370  Biso   1.000  N
  N6       1.0000 0.93160  0.38870  0.43630  Biso   1.000  N
  N7       1.0000 0.90720  0.76380  0.60020  Biso   1.000  N
  N8       1.0000 0.09280  0.23620  0.39980  Biso   1.000  N
  H15      1.0000 0.82810  0.80690  0.63730  Biso   1.000  H
  H16      1.0000 0.17190  0.19310  0.36270  Biso   1.000  H
  O1       1.0000 0.81220  0.48720  0.20500  Biso   1.000  O
  O2       1.0000 0.18780  0.51280  0.79500  Biso   1.000  O
  O3       1.0000 0.73820  0.36920  0.09730  Biso   1.000  O
  O4       1.0000 0.26180  0.63080  0.90270  Biso   1.000  O
  O5       1.0000 0.96080  0.19970  0.17430  Biso   1.000  O
  O6       1.0000 0.03920  0.80030  0.82570  Biso   1.000  O
  O7       1.0000 0.78180  0.04650  0.22990  Biso   1.000  O
  O8       1.0000 0.21820  0.95350  0.77010  Biso   1.000  O
  O9       1.0000 0.52070  0.70580  0.13380  Biso   1.000  O
  O10      1.0000 0.47930  0.29420  0.86620  Biso   1.000  O
  O11      1.0000 0.54960  0.88720  0.13500  Biso   1.000  O
  O12      1.0000 0.45040  0.11280  0.86500  Biso   1.000  O
  O13      1.0000 0.24610  0.08450  0.24560  Biso   1.000  O
  O14      1.0000 0.75390  0.91550  0.75440  Biso   1.000  O
  O15      1.0000 0.21950  0.98390  0.11310  Biso   1.000  O
  O16      1.0000 0.78050  0.01610  0.88690  Biso   1.000  O
  O17      1.0000 0.08220  0.11310  0.92670  Biso   1.000  O
  O18      1.0000 0.91780  0.88690  0.07330  Biso   1.000  O
  H17      1.0000 0.15080  0.07010  0.88370  Biso   1.000  H
  H18      1.0000 0.84920  0.92990  0.11630  Biso   1.000  H
  H19      1.0000 0.97830  0.10790  0.91830  Biso   1.000  H
  H20      1.0000 0.02170  0.89210  0.08170  Biso   1.000  H
  O19      1.0000 0.10830  0.34770  0.97600  Biso   1.000  O
  O20      1.0000 0.89170  0.65230  0.02400  Biso   1.000  O
  H21      1.0000 0.00450  0.36060  0.02030  Biso   1.000  H
  H22      1.0000 0.99550  0.63940  0.97970  Biso   1.000  H
  H23      1.0000 0.12960  0.39460  0.91410  Biso   1.000  H
  H24      1.0000 0.87040  0.60540  0.08590  Biso   1.000  H
  O21      1.0000 0.56220  0.13540  0.05880  Biso   1.000  O
  O22      1.0000 0.43780  0.86460  0.94120  Biso   1.000  O
  H25      1.0000 0.57440  0.09600  0.11960  Biso   1.000  H
  H26      1.0000 0.42560  0.90400  0.88040  Biso   1.000  H
  H27      1.0000 0.60510  0.09940  0.00140  Biso   1.000  H
  H28      1.0000 0.39490  0.90060  0.99860  Biso   1.000  H
  O23      1.0000 0.37500  0.32450  0.12410  Biso   1.000  O
  O24      1.0000 0.62500  0.67550  0.87590  Biso   1.000  O
  H29      1.0000 0.48720  0.32960  0.11510  Biso   1.000  H
  H30      1.0000 0.51280  0.67040  0.88490  Biso   1.000  H
  H31      1.0000 0.34030  0.38940  0.10480  Biso   1.000  H
  H32      1.0000 0.65970  0.61060  0.89520  Biso   1.000  H
  O25      1.0000 0.28130  0.53460  0.12520  Biso   1.000  O
  O26      1.0000 0.71870  0.46540  0.87480  Biso   1.000  O
  H33      1.0000 0.33810  0.58640  0.14170  Biso   1.000  H
  H34      1.0000 0.66190  0.41360  0.85830  Biso   1.000  H
  H35      1.0000 0.26360  0.55750  0.06000  Biso   1.000  H
  H36      1.0000 0.73640  0.44250  0.94000  Biso   1.000  H
