data_image0
_cell_length_a       9.7894
_cell_length_b       9.7894
_cell_length_c       10.483
_cell_angle_alpha    90
_cell_angle_beta     90
_cell_angle_gamma    120

_symmetry_space_group_name_H-M    "P 1"
_symmetry_int_tables_number       1

loop_
  _symmetry_equiv_pos_as_xyz
  'x, y, z'

loop_
  _atom_site_label
  _atom_site_occupancy
  _atom_site_fract_x
  _atom_site_fract_y
  _atom_site_fract_z
  _atom_site_thermal_displace_type
  _atom_site_B_iso_or_equiv
  _atom_site_type_symbol
  Cu1      1.0000 0.44797  0.33783  0.62232  Biso   1.000  Cu
  Cu2      1.0000 0.66217  0.11014  0.95565  Biso   1.000  Cu
  Cu3      1.0000 0.88986  0.55203  0.28899  Biso   1.000  Cu
  O1       1.0000 0.64740  0.55930  0.38920  Biso   1.000  O
  O2       1.0000 0.44070  0.08810  0.72253  Biso   1.000  O
  O3       1.0000 0.91190  0.35260  0.05587  Biso   1.000  O
  N1       1.0000 0.60470  0.97220  0.10550  Biso   1.000  N
  N2       1.0000 0.02780  0.63250  0.43883  Biso   1.000  N
  N3       1.0000 0.36750  0.39530  0.77217  Biso   1.000  N
  C1       1.0000 0.60550  0.41730  0.39010  Biso   1.000  C
  C2       1.0000 0.58270  0.18820  0.72343  Biso   1.000  C
  C3       1.0000 0.81180  0.39450  0.05677  Biso   1.000  C
  O4       1.0000 0.69410  0.36260  0.35460  Biso   1.000  O
  O5       1.0000 0.63740  0.33150  0.68793  Biso   1.000  O
  O6       1.0000 0.66850  0.30590  0.02127  Biso   1.000  O
  N4       1.0000 0.61010  0.91140  0.30670  Biso   1.000  N
  N5       1.0000 0.08860  0.69870  0.64003  Biso   1.000  N
  N6       1.0000 0.30130  0.38990  0.97337  Biso   1.000  N
  C4       1.0000 0.44480  0.29630  0.43520  Biso   1.000  C
  C5       1.0000 0.70370  0.14850  0.76853  Biso   1.000  C
  C6       1.0000 0.85150  0.55520  0.10187  Biso   1.000  C
  H1       1.0000 0.40690  0.18470  0.40930  Biso   1.000  H
  H2       1.0000 0.81530  0.22220  0.74263  Biso   1.000  H
  H3       1.0000 0.77780  0.59310  0.07597  Biso   1.000  H
  C7       1.0000 0.33050  0.33540  0.46200  Biso   1.000  C
  C8       1.0000 0.66460  0.99510  0.79533  Biso   1.000  C
  C9       1.0000 0.00490  0.66950  0.12867  Biso   1.000  C
  H4       1.0000 0.35970  0.44360  0.43200  Biso   1.000  H
  H5       1.0000 0.55640  0.91610  0.76533  Biso   1.000  H
  H6       1.0000 0.08390  0.64030  0.09867  Biso   1.000  H
  C10      1.0000 0.15780  0.22690  0.46620  Biso   1.000  C
  C11      1.0000 0.77310  0.93090  0.79953  Biso   1.000  C
  C12      1.0000 0.06910  0.84220  0.13287  Biso   1.000  C
  C13      1.0000 0.08750  0.06220  0.46270  Biso   1.000  C
  C14      1.0000 0.93780  0.02530  0.79603  Biso   1.000  C
  C15      1.0000 0.97470  0.91250  0.12937  Biso   1.000  C
  H7       1.0000 0.15190  0.01500  0.46310  Biso   1.000  H
  H8       1.0000 0.98500  0.13690  0.79643  Biso   1.000  H
  H9       1.0000 0.86310  0.84810  0.12977  Biso   1.000  H
  C16      1.0000 0.92510  0.96790  0.45880  Biso   1.000  C
  C17      1.0000 0.03210  0.95720  0.79213  Biso   1.000  C
  C18      1.0000 0.04280  0.07490  0.12547  Biso   1.000  C
  H10      1.0000 0.87870  0.85640  0.45580  Biso   1.000  H
  H11      1.0000 0.14360  0.02230  0.78913  Biso   1.000  H
  H12      1.0000 0.97770  0.12130  0.12247  Biso   1.000  H
  C19      1.0000 0.06040  0.29190  0.46780  Biso   1.000  C
  C20      1.0000 0.70810  0.76850  0.80113  Biso   1.000  C
  C21      1.0000 0.23150  0.93960  0.13447  Biso   1.000  C
  H13      1.0000 0.10610  0.40340  0.46920  Biso   1.000  H
  H14      1.0000 0.59660  0.70270  0.80253  Biso   1.000  H
  H15      1.0000 0.29730  0.89390  0.13587  Biso   1.000  H
  C22      1.0000 0.89830  0.19800  0.46750  Biso   1.000  C
  C23      1.0000 0.80200  0.70030  0.80083  Biso   1.000  C
  C24      1.0000 0.29970  0.10170  0.13417  Biso   1.000  C
  H16      1.0000 0.83380  0.24490  0.47310  Biso   1.000  H
  H17      1.0000 0.75510  0.58890  0.80643  Biso   1.000  H
  H18      1.0000 0.41110  0.16620  0.13977  Biso   1.000  H
  C25      1.0000 0.82930  0.03550  0.45910  Biso   1.000  C
  C26      1.0000 0.96450  0.79380  0.79243  Biso   1.000  C
  C27      1.0000 0.20620  0.17070  0.12577  Biso   1.000  C
  C28      1.0000 0.65180  0.93050  0.44380  Biso   1.000  C
  C29      1.0000 0.06950  0.72130  0.77713  Biso   1.000  C
  C30      1.0000 0.27870  0.34820  0.11047  Biso   1.000  C
  H19      1.0000 0.61760  0.82600  0.48240  Biso   1.000  H
  H20      1.0000 0.17400  0.79160  0.81573  Biso   1.000  H
  H21      1.0000 0.20840  0.38240  0.14907  Biso   1.000  H
  H22      1.0000 0.59690  0.97840  0.48840  Biso   1.000  H
  H23      1.0000 0.02160  0.61850  0.82173  Biso   1.000  H
  H24      1.0000 0.38150  0.40310  0.15507  Biso   1.000  H
  C31      1.0000 0.63730  0.02710  0.22330  Biso   1.000  C
  C32      1.0000 0.97290  0.61020  0.55663  Biso   1.000  C
  C33      1.0000 0.38980  0.36270  0.88997  Biso   1.000  C
  H25      1.0000 0.67500  0.13400  0.24620  Biso   1.000  H
  H26      1.0000 0.86600  0.54100  0.57953  Biso   1.000  H
  H27      1.0000 0.45900  0.32500  0.91287  Biso   1.000  H
  C34      1.0000 0.55400  0.77580  0.23780  Biso   1.000  C
  C35      1.0000 0.22420  0.77820  0.57113  Biso   1.000  C
  C36      1.0000 0.22180  0.44600  0.90447  Biso   1.000  C
  H28      1.0000 0.52390  0.67390  0.27010  Biso   1.000  H
  H29      1.0000 0.32610  0.85000  0.60343  Biso   1.000  H
  H30      1.0000 0.15000  0.47610  0.93677  Biso   1.000  H
  C37      1.0000 0.54960  0.81400  0.11430  Biso   1.000  C
  C38      1.0000 0.18600  0.73560  0.44763  Biso   1.000  C
  C39      1.0000 0.26440  0.45040  0.78097  Biso   1.000  C
  H31      1.0000 0.51370  0.74210  0.04480  Biso   1.000  H
  H32      1.0000 0.25790  0.77160  0.37813  Biso   1.000  H
  H33      1.0000 0.22840  0.48630  0.71147  Biso   1.000  H
