data_image0
_cell_length_a       27.4916
_cell_length_b       23.6639
_cell_length_c       11.0002
_cell_angle_alpha    90
_cell_angle_beta     93.75
_cell_angle_gamma    90

_symmetry_space_group_name_H-M    "P 1"
_symmetry_int_tables_number       1

loop_
  _symmetry_equiv_pos_as_xyz
  'x, y, z'

loop_
  _atom_site_label
  _atom_site_occupancy
  _atom_site_fract_x
  _atom_site_fract_y
  _atom_site_fract_z
  _atom_site_thermal_displace_type
  _atom_site_B_iso_or_equiv
  _atom_site_type_symbol
  Cu1      1.0000 0.94082  0.53401  0.52973  Biso   1.000  Cu
  Cu2      1.0000 0.05918  0.53401  0.97027  Biso   1.000  Cu
  Cu3      1.0000 0.44082  0.03401  0.52973  Biso   1.000  Cu
  Cu4      1.0000 0.55918  0.03401  0.97027  Biso   1.000  Cu
  Cu5      1.0000 0.05918  0.46599  0.47027  Biso   1.000  Cu
  Cu6      1.0000 0.94082  0.46599  0.02973  Biso   1.000  Cu
  Cu7      1.0000 0.55918  0.96599  0.47027  Biso   1.000  Cu
  Cu8      1.0000 0.44082  0.96599  0.02973  Biso   1.000  Cu
  N1       1.0000 0.91751  0.49383  0.38470  Biso   1.000  N
  N2       1.0000 0.08249  0.49383  0.11530  Biso   1.000  N
  N3       1.0000 0.41751  0.99383  0.38470  Biso   1.000  N
  N4       1.0000 0.58249  0.99383  0.11530  Biso   1.000  N
  N5       1.0000 0.08249  0.50617  0.61530  Biso   1.000  N
  N6       1.0000 0.91751  0.50617  0.88470  Biso   1.000  N
  N7       1.0000 0.58249  0.00617  0.61530  Biso   1.000  N
  N8       1.0000 0.41751  0.00617  0.88470  Biso   1.000  N
  C1       1.0000 0.87950  0.45702  0.36510  Biso   1.000  C
  C2       1.0000 0.12050  0.45702  0.13490  Biso   1.000  C
  C3       1.0000 0.37950  0.95702  0.36510  Biso   1.000  C
  C4       1.0000 0.62050  0.95702  0.13490  Biso   1.000  C
  C5       1.0000 0.12050  0.54298  0.63490  Biso   1.000  C
  C6       1.0000 0.87950  0.54298  0.86510  Biso   1.000  C
  C7       1.0000 0.62050  0.04298  0.63490  Biso   1.000  C
  C8       1.0000 0.37950  0.04298  0.86510  Biso   1.000  C
  Cu9      1.0000 0.00000  0.54057  0.25000  Biso   1.000  Cu
  Cu10     1.0000 0.50000  0.04057  0.25000  Biso   1.000  Cu
  Cu11     1.0000 0.00000  0.45943  0.75000  Biso   1.000  Cu
  Cu12     1.0000 0.50000  0.95943  0.75000  Biso   1.000  Cu
  N9       1.0000 0.93959  0.49612  0.27880  Biso   1.000  N
  N10      1.0000 0.06041  0.49612  0.22120  Biso   1.000  N
  N11      1.0000 0.43959  0.99612  0.27880  Biso   1.000  N
  N12      1.0000 0.56041  0.99612  0.22120  Biso   1.000  N
  N13      1.0000 0.06041  0.50388  0.72120  Biso   1.000  N
  N14      1.0000 0.93959  0.50388  0.77880  Biso   1.000  N
  N15      1.0000 0.56041  0.00388  0.72120  Biso   1.000  N
  N16      1.0000 0.43959  0.00388  0.77880  Biso   1.000  N
  C9       1.0000 0.88006  0.43741  0.24330  Biso   1.000  C
  C10      1.0000 0.11994  0.43741  0.25670  Biso   1.000  C
  C11      1.0000 0.38006  0.93741  0.24330  Biso   1.000  C
  C12      1.0000 0.61994  0.93741  0.25670  Biso   1.000  C
  C13      1.0000 0.11994  0.56259  0.75670  Biso   1.000  C
  C14      1.0000 0.88006  0.56259  0.74330  Biso   1.000  C
  C15      1.0000 0.61994  0.06259  0.75670  Biso   1.000  C
  C16      1.0000 0.38006  0.06259  0.74330  Biso   1.000  C
  Cu13     1.0000 0.50000  0.12132  0.75000  Biso   1.000  Cu
  Cu14     1.0000 0.00000  0.62132  0.75000  Biso   1.000  Cu
  Cu15     1.0000 0.50000  0.87868  0.25000  Biso   1.000  Cu
  Cu16     1.0000 0.00000  0.37868  0.25000  Biso   1.000  Cu
  N17      1.0000 0.91818  0.46423  0.19260  Biso   1.000  N
  N18      1.0000 0.08182  0.46423  0.30740  Biso   1.000  N
  N19      1.0000 0.41818  0.96423  0.19260  Biso   1.000  N
  N20      1.0000 0.58182  0.96423  0.30740  Biso   1.000  N
  N21      1.0000 0.08182  0.53577  0.80740  Biso   1.000  N
  N22      1.0000 0.91818  0.53577  0.69260  Biso   1.000  N
  N23      1.0000 0.58182  0.03577  0.80740  Biso   1.000  N
  N24      1.0000 0.41818  0.03577  0.69260  Biso   1.000  N
  C17      1.0000 0.84583  0.40017  0.19370  Biso   1.000  C
  C18      1.0000 0.15417  0.40017  0.30630  Biso   1.000  C
  C19      1.0000 0.34583  0.90017  0.19370  Biso   1.000  C
  C20      1.0000 0.65417  0.90017  0.30630  Biso   1.000  C
  C21      1.0000 0.15417  0.59983  0.80630  Biso   1.000  C
  C22      1.0000 0.84583  0.59983  0.69370  Biso   1.000  C
  C23      1.0000 0.65417  0.09983  0.80630  Biso   1.000  C
  C24      1.0000 0.34583  0.09983  0.69370  Biso   1.000  C
  H1       1.0000 0.84670  0.38720  0.11210  Biso   1.000  H
  H2       1.0000 0.15330  0.38720  0.38790  Biso   1.000  H
  H3       1.0000 0.34670  0.88720  0.11210  Biso   1.000  H
  H4       1.0000 0.65330  0.88720  0.38790  Biso   1.000  H
  H5       1.0000 0.15330  0.61280  0.88790  Biso   1.000  H
  H6       1.0000 0.84670  0.61280  0.61210  Biso   1.000  H
  H7       1.0000 0.65330  0.11280  0.88790  Biso   1.000  H
  H8       1.0000 0.34670  0.11280  0.61210  Biso   1.000  H
  N25      1.0000 0.77250  0.34782  0.22160  Biso   1.000  N
  N26      1.0000 0.22750  0.34782  0.27840  Biso   1.000  N
  N27      1.0000 0.27250  0.84782  0.22160  Biso   1.000  N
  N28      1.0000 0.72750  0.84782  0.27840  Biso   1.000  N
  N29      1.0000 0.22750  0.65218  0.77840  Biso   1.000  N
  N30      1.0000 0.77250  0.65218  0.72160  Biso   1.000  N
  N31      1.0000 0.72750  0.15218  0.77840  Biso   1.000  N
  N32      1.0000 0.27250  0.15218  0.72160  Biso   1.000  N
  C25      1.0000 0.80948  0.38226  0.26930  Biso   1.000  C
  C26      1.0000 0.19052  0.38226  0.23070  Biso   1.000  C
  C27      1.0000 0.30948  0.88226  0.26930  Biso   1.000  C
  C28      1.0000 0.69052  0.88226  0.23070  Biso   1.000  C
  C29      1.0000 0.19052  0.61774  0.73070  Biso   1.000  C
  C30      1.0000 0.80948  0.61774  0.76930  Biso   1.000  C
  C31      1.0000 0.69052  0.11774  0.73070  Biso   1.000  C
  C32      1.0000 0.30948  0.11774  0.76930  Biso   1.000  C
  N33      1.0000 0.77310  0.38423  0.46500  Biso   1.000  N
  N34      1.0000 0.22690  0.38423  0.03500  Biso   1.000  N
  N35      1.0000 0.27310  0.88423  0.46500  Biso   1.000  N
  N36      1.0000 0.72690  0.88423  0.03500  Biso   1.000  N
  N37      1.0000 0.22690  0.61577  0.53500  Biso   1.000  N
  N38      1.0000 0.77310  0.61577  0.96500  Biso   1.000  N
  N39      1.0000 0.72690  0.11577  0.53500  Biso   1.000  N
  N40      1.0000 0.27310  0.11577  0.96500  Biso   1.000  N
  C33      1.0000 0.80943  0.40143  0.39330  Biso   1.000  C
  C34      1.0000 0.19057  0.40143  0.10670  Biso   1.000  C
  C35      1.0000 0.30943  0.90143  0.39330  Biso   1.000  C
  C36      1.0000 0.69057  0.90143  0.10670  Biso   1.000  C
  C37      1.0000 0.19057  0.59857  0.60670  Biso   1.000  C
  C38      1.0000 0.80943  0.59857  0.89330  Biso   1.000  C
  C39      1.0000 0.69057  0.09857  0.60670  Biso   1.000  C
  C40      1.0000 0.30943  0.09857  0.89330  Biso   1.000  C
  N41      1.0000 0.63970  0.22617  0.28520  Biso   1.000  N
  N42      1.0000 0.36030  0.22617  0.21480  Biso   1.000  N
  N43      1.0000 0.13970  0.72617  0.28520  Biso   1.000  N
  N44      1.0000 0.86030  0.72617  0.21480  Biso   1.000  N
  N45      1.0000 0.36030  0.77383  0.71480  Biso   1.000  N
  N46      1.0000 0.63970  0.77383  0.78520  Biso   1.000  N
  N47      1.0000 0.86030  0.27383  0.71480  Biso   1.000  N
  N48      1.0000 0.13970  0.27383  0.78520  Biso   1.000  N
  C41      1.0000 0.84463  0.43926  0.44120  Biso   1.000  C
  C42      1.0000 0.15537  0.43926  0.05880  Biso   1.000  C
  C43      1.0000 0.34463  0.93926  0.44120  Biso   1.000  C
  C44      1.0000 0.65537  0.93926  0.05880  Biso   1.000  C
  C45      1.0000 0.15537  0.56074  0.55880  Biso   1.000  C
  C46      1.0000 0.84463  0.56074  0.94120  Biso   1.000  C
  C47      1.0000 0.65537  0.06074  0.55880  Biso   1.000  C
  C48      1.0000 0.34463  0.06074  0.94120  Biso   1.000  C
  H9       1.0000 0.84460  0.45230  0.52290  Biso   1.000  H
  H10      1.0000 0.15540  0.45230  0.97710  Biso   1.000  H
  H11      1.0000 0.34460  0.95230  0.52290  Biso   1.000  H
  H12      1.0000 0.65540  0.95230  0.97710  Biso   1.000  H
  H13      1.0000 0.15540  0.54770  0.47710  Biso   1.000  H
  H14      1.0000 0.84460  0.54770  0.02290  Biso   1.000  H
  H15      1.0000 0.65540  0.04770  0.47710  Biso   1.000  H
  H16      1.0000 0.34460  0.04770  0.02290  Biso   1.000  H
  N49      1.0000 0.64178  0.26204  0.53070  Biso   1.000  N
  N50      1.0000 0.35822  0.26204  0.96930  Biso   1.000  N
  N51      1.0000 0.14178  0.76204  0.53070  Biso   1.000  N
  N52      1.0000 0.85822  0.76204  0.96930  Biso   1.000  N
  N53      1.0000 0.35822  0.73796  0.46930  Biso   1.000  N
  N54      1.0000 0.64178  0.73796  0.03070  Biso   1.000  N
  N55      1.0000 0.85822  0.23796  0.46930  Biso   1.000  N
  N56      1.0000 0.14178  0.23796  0.03070  Biso   1.000  N
  C49      1.0000 0.73735  0.33381  0.29120  Biso   1.000  C
  C50      1.0000 0.26265  0.33381  0.20880  Biso   1.000  C
  C51      1.0000 0.23735  0.83381  0.29120  Biso   1.000  C
  C52      1.0000 0.76265  0.83381  0.20880  Biso   1.000  C
  C53      1.0000 0.26265  0.66619  0.70880  Biso   1.000  C
  C54      1.0000 0.73735  0.66619  0.79120  Biso   1.000  C
  C55      1.0000 0.76265  0.16619  0.70880  Biso   1.000  C
  C56      1.0000 0.23735  0.16619  0.79120  Biso   1.000  C
  N57      1.0000 0.51568  0.09041  0.39730  Biso   1.000  N
  N58      1.0000 0.48432  0.09041  0.10270  Biso   1.000  N
  N59      1.0000 0.01568  0.59041  0.39730  Biso   1.000  N
  N60      1.0000 0.98432  0.59041  0.10270  Biso   1.000  N
  N61      1.0000 0.48432  0.90959  0.60270  Biso   1.000  N
  N62      1.0000 0.51568  0.90959  0.89730  Biso   1.000  N
  N63      1.0000 0.98432  0.40959  0.60270  Biso   1.000  N
  N64      1.0000 0.01568  0.40959  0.89730  Biso   1.000  N
  C57      1.0000 0.69442  0.30169  0.23200  Biso   1.000  C
  C58      1.0000 0.30558  0.30169  0.26800  Biso   1.000  C
  C59      1.0000 0.19442  0.80169  0.23200  Biso   1.000  C
  C60      1.0000 0.80558  0.80169  0.26800  Biso   1.000  C
  C61      1.0000 0.30558  0.69831  0.76800  Biso   1.000  C
  C62      1.0000 0.69442  0.69831  0.73200  Biso   1.000  C
  C63      1.0000 0.80558  0.19831  0.76800  Biso   1.000  C
  C64      1.0000 0.19442  0.19831  0.73200  Biso   1.000  C
  N65      1.0000 0.49702  0.08487  0.50320  Biso   1.000  N
  N66      1.0000 0.50298  0.08487  0.99680  Biso   1.000  N
  N67      1.0000 0.99702  0.58487  0.50320  Biso   1.000  N
  N68      1.0000 0.00298  0.58487  0.99680  Biso   1.000  N
  N69      1.0000 0.50298  0.91513  0.49680  Biso   1.000  N
  N70      1.0000 0.49702  0.91513  0.00320  Biso   1.000  N
  N71      1.0000 0.00298  0.41513  0.49680  Biso   1.000  N
  N72      1.0000 0.99702  0.41513  0.00320  Biso   1.000  N
  C65      1.0000 0.66719  0.26860  0.32590  Biso   1.000  C
  C66      1.0000 0.33281  0.26860  0.17410  Biso   1.000  C
  C67      1.0000 0.16719  0.76860  0.32590  Biso   1.000  C
  C68      1.0000 0.83281  0.76860  0.17410  Biso   1.000  C
  C69      1.0000 0.33281  0.73140  0.67410  Biso   1.000  C
  C70      1.0000 0.66719  0.73140  0.82590  Biso   1.000  C
  C71      1.0000 0.83281  0.23140  0.67410  Biso   1.000  C
  C72      1.0000 0.16719  0.23140  0.82590  Biso   1.000  C
  N73      1.0000 0.51700  0.12025  0.58780  Biso   1.000  N
  N74      1.0000 0.48300  0.12025  0.91220  Biso   1.000  N
  N75      1.0000 0.01700  0.62025  0.58780  Biso   1.000  N
  N76      1.0000 0.98300  0.62025  0.91220  Biso   1.000  N
  N77      1.0000 0.48300  0.87975  0.41220  Biso   1.000  N
  N78      1.0000 0.51700  0.87975  0.08780  Biso   1.000  N
  N79      1.0000 0.98300  0.37975  0.41220  Biso   1.000  N
  N80      1.0000 0.01700  0.37975  0.08780  Biso   1.000  N
  C73      1.0000 0.66833  0.28685  0.45170  Biso   1.000  C
  C74      1.0000 0.33167  0.28685  0.04830  Biso   1.000  C
  C75      1.0000 0.16833  0.78685  0.45170  Biso   1.000  C
  C76      1.0000 0.83167  0.78685  0.04830  Biso   1.000  C
  C77      1.0000 0.33167  0.71315  0.54830  Biso   1.000  C
  C78      1.0000 0.66833  0.71315  0.95170  Biso   1.000  C
  C79      1.0000 0.83167  0.21315  0.54830  Biso   1.000  C
  C80      1.0000 0.16833  0.21315  0.95170  Biso   1.000  C
  C81      1.0000 0.69890  0.33550  0.50230  Biso   1.000  C
  C82      1.0000 0.30110  0.33550  0.99770  Biso   1.000  C
  C83      1.0000 0.19890  0.83550  0.50230  Biso   1.000  C
  C84      1.0000 0.80110  0.83550  0.99770  Biso   1.000  C
  C85      1.0000 0.30110  0.66450  0.49770  Biso   1.000  C
  C86      1.0000 0.69890  0.66450  0.00230  Biso   1.000  C
  C87      1.0000 0.80110  0.16450  0.49770  Biso   1.000  C
  C88      1.0000 0.19890  0.16450  0.00230  Biso   1.000  C
  C89      1.0000 0.73846  0.35189  0.41690  Biso   1.000  C
  C90      1.0000 0.26154  0.35189  0.08310  Biso   1.000  C
  C91      1.0000 0.23846  0.85189  0.41690  Biso   1.000  C
  C92      1.0000 0.76154  0.85189  0.08310  Biso   1.000  C
  C93      1.0000 0.26154  0.64811  0.58310  Biso   1.000  C
  C94      1.0000 0.73846  0.64811  0.91690  Biso   1.000  C
  C95      1.0000 0.76154  0.14811  0.58310  Biso   1.000  C
  C96      1.0000 0.23846  0.14811  0.91690  Biso   1.000  C
  C97      1.0000 0.71078  0.26183  0.13100  Biso   1.000  C
  C98      1.0000 0.28922  0.26183  0.36900  Biso   1.000  C
  C99      1.0000 0.21078  0.76183  0.13100  Biso   1.000  C
  C100     1.0000 0.78922  0.76183  0.36900  Biso   1.000  C
  C101     1.0000 0.28922  0.73817  0.86900  Biso   1.000  C
  C102     1.0000 0.71078  0.73817  0.63100  Biso   1.000  C
  C103     1.0000 0.78922  0.23817  0.86900  Biso   1.000  C
  C104     1.0000 0.21078  0.23817  0.63100  Biso   1.000  C
  H17      1.0000 0.72580  0.28410  0.06830  Biso   1.000  H
  H18      1.0000 0.27420  0.28410  0.43170  Biso   1.000  H
  H19      1.0000 0.22580  0.78410  0.06830  Biso   1.000  H
  H20      1.0000 0.77420  0.78410  0.43170  Biso   1.000  H
  H21      1.0000 0.27420  0.71590  0.93170  Biso   1.000  H
  H22      1.0000 0.72580  0.71590  0.56830  Biso   1.000  H
  H23      1.0000 0.77420  0.21590  0.93170  Biso   1.000  H
  H24      1.0000 0.22580  0.21590  0.56830  Biso   1.000  H
  H25      1.0000 0.68240  0.24160  0.09430  Biso   1.000  H
  H26      1.0000 0.31760  0.24160  0.40570  Biso   1.000  H
  H27      1.0000 0.18240  0.74160  0.09430  Biso   1.000  H
  H28      1.0000 0.81760  0.74160  0.40570  Biso   1.000  H
  H29      1.0000 0.31760  0.75840  0.90570  Biso   1.000  H
  H30      1.0000 0.68240  0.75840  0.59430  Biso   1.000  H
  H31      1.0000 0.81760  0.25840  0.90570  Biso   1.000  H
  H32      1.0000 0.18240  0.25840  0.59430  Biso   1.000  H
  H33      1.0000 0.73450  0.23460  0.16640  Biso   1.000  H
  H34      1.0000 0.26550  0.23460  0.33360  Biso   1.000  H
  H35      1.0000 0.23450  0.73460  0.16640  Biso   1.000  H
  H36      1.0000 0.76550  0.73460  0.33360  Biso   1.000  H
  H37      1.0000 0.26550  0.76540  0.83360  Biso   1.000  H
  H38      1.0000 0.73450  0.76540  0.66640  Biso   1.000  H
  H39      1.0000 0.76550  0.26540  0.83360  Biso   1.000  H
  H40      1.0000 0.23450  0.26540  0.66640  Biso   1.000  H
  C105     1.0000 0.65887  0.34543  0.17560  Biso   1.000  C
  C106     1.0000 0.34113  0.34543  0.32440  Biso   1.000  C
  C107     1.0000 0.15887  0.84543  0.17560  Biso   1.000  C
  C108     1.0000 0.84113  0.84543  0.32440  Biso   1.000  C
  C109     1.0000 0.34113  0.65457  0.82440  Biso   1.000  C
  C110     1.0000 0.65887  0.65457  0.67560  Biso   1.000  C
  C111     1.0000 0.84113  0.15457  0.82440  Biso   1.000  C
  C112     1.0000 0.15887  0.15457  0.67560  Biso   1.000  C
  H41      1.0000 0.64900  0.37120  0.23920  Biso   1.000  H
  H42      1.0000 0.35100  0.37120  0.26080  Biso   1.000  H
  H43      1.0000 0.14900  0.87120  0.23920  Biso   1.000  H
  H44      1.0000 0.85100  0.87120  0.26080  Biso   1.000  H
  H45      1.0000 0.35100  0.62880  0.76080  Biso   1.000  H
  H46      1.0000 0.64900  0.62880  0.73920  Biso   1.000  H
  H47      1.0000 0.85100  0.12880  0.76080  Biso   1.000  H
  H48      1.0000 0.14900  0.12880  0.73920  Biso   1.000  H
  H49      1.0000 0.63010  0.32620  0.13840  Biso   1.000  H
  H50      1.0000 0.36990  0.32620  0.36160  Biso   1.000  H
  H51      1.0000 0.13010  0.82620  0.13840  Biso   1.000  H
  H52      1.0000 0.86990  0.82620  0.36160  Biso   1.000  H
  H53      1.0000 0.36990  0.67380  0.86160  Biso   1.000  H
  H54      1.0000 0.63010  0.67380  0.63840  Biso   1.000  H
  H55      1.0000 0.86990  0.17380  0.86160  Biso   1.000  H
  H56      1.0000 0.13010  0.17380  0.63840  Biso   1.000  H
  H57      1.0000 0.67480  0.36690  0.11320  Biso   1.000  H
  H58      1.0000 0.32520  0.36690  0.38680  Biso   1.000  H
  H59      1.0000 0.17480  0.86690  0.11320  Biso   1.000  H
  H60      1.0000 0.82520  0.86690  0.38680  Biso   1.000  H
  H61      1.0000 0.32520  0.63310  0.88680  Biso   1.000  H
  H62      1.0000 0.67480  0.63310  0.61320  Biso   1.000  H
  H63      1.0000 0.82520  0.13310  0.88680  Biso   1.000  H
  H64      1.0000 0.17480  0.13310  0.61320  Biso   1.000  H
  C113     1.0000 0.72306  0.31964  0.62550  Biso   1.000  C
  C114     1.0000 0.27694  0.31964  0.87450  Biso   1.000  C
  C115     1.0000 0.22306  0.81964  0.62550  Biso   1.000  C
  C116     1.0000 0.77694  0.81964  0.87450  Biso   1.000  C
  C117     1.0000 0.27694  0.68036  0.37450  Biso   1.000  C
  C118     1.0000 0.72306  0.68036  0.12550  Biso   1.000  C
  C119     1.0000 0.77694  0.18036  0.37450  Biso   1.000  C
  C120     1.0000 0.22306  0.18036  0.12550  Biso   1.000  C
  H65      1.0000 0.69800  0.30900  0.68070  Biso   1.000  H
  H66      1.0000 0.30200  0.30900  0.81930  Biso   1.000  H
  H67      1.0000 0.19800  0.80900  0.68070  Biso   1.000  H
  H68      1.0000 0.80200  0.80900  0.81930  Biso   1.000  H
  H69      1.0000 0.30200  0.69100  0.31930  Biso   1.000  H
  H70      1.0000 0.69800  0.69100  0.18070  Biso   1.000  H
  H71      1.0000 0.80200  0.19100  0.31930  Biso   1.000  H
  H72      1.0000 0.19800  0.19100  0.18070  Biso   1.000  H
  H73      1.0000 0.74160  0.35200  0.65950  Biso   1.000  H
  H74      1.0000 0.25840  0.35200  0.84050  Biso   1.000  H
  H75      1.0000 0.24160  0.85200  0.65950  Biso   1.000  H
  H76      1.0000 0.75840  0.85200  0.84050  Biso   1.000  H
  H77      1.0000 0.25840  0.64800  0.34050  Biso   1.000  H
  H78      1.0000 0.74160  0.64800  0.15950  Biso   1.000  H
  H79      1.0000 0.75840  0.14800  0.34050  Biso   1.000  H
  H80      1.0000 0.24160  0.14800  0.15950  Biso   1.000  H
  H81      1.0000 0.74520  0.28770  0.61600  Biso   1.000  H
  H82      1.0000 0.25480  0.28770  0.88400  Biso   1.000  H
  H83      1.0000 0.24520  0.78770  0.61600  Biso   1.000  H
  H84      1.0000 0.75480  0.78770  0.88400  Biso   1.000  H
  H85      1.0000 0.25480  0.71230  0.38400  Biso   1.000  H
  H86      1.0000 0.74520  0.71230  0.11600  Biso   1.000  H
  H87      1.0000 0.75480  0.21230  0.38400  Biso   1.000  H
  H88      1.0000 0.24520  0.21230  0.11600  Biso   1.000  H
  C121     1.0000 0.66587  0.38670  0.51610  Biso   1.000  C
  C122     1.0000 0.33413  0.38670  0.98390  Biso   1.000  C
  C123     1.0000 0.16587  0.88670  0.51610  Biso   1.000  C
  C124     1.0000 0.83413  0.88670  0.98390  Biso   1.000  C
  C125     1.0000 0.33413  0.61330  0.48390  Biso   1.000  C
  C126     1.0000 0.66587  0.61330  0.01610  Biso   1.000  C
  C127     1.0000 0.83413  0.11330  0.48390  Biso   1.000  C
  C128     1.0000 0.16587  0.11330  0.01610  Biso   1.000  C
  H89      1.0000 0.64130  0.37780  0.57390  Biso   1.000  H
  H90      1.0000 0.35870  0.37780  0.92610  Biso   1.000  H
  H91      1.0000 0.14130  0.87780  0.57390  Biso   1.000  H
  H92      1.0000 0.85870  0.87780  0.92610  Biso   1.000  H
  H93      1.0000 0.35870  0.62220  0.42610  Biso   1.000  H
  H94      1.0000 0.64130  0.62220  0.07390  Biso   1.000  H
  H95      1.0000 0.85870  0.12220  0.42610  Biso   1.000  H
  H96      1.0000 0.14130  0.12220  0.07390  Biso   1.000  H
  H97      1.0000 0.64960  0.39620  0.43680  Biso   1.000  H
  H98      1.0000 0.35040  0.39620  0.06320  Biso   1.000  H
  H99      1.0000 0.14960  0.89620  0.43680  Biso   1.000  H
  H100     1.0000 0.85040  0.89620  0.06320  Biso   1.000  H
  H101     1.0000 0.35040  0.60380  0.56320  Biso   1.000  H
  H102     1.0000 0.64960  0.60380  0.93680  Biso   1.000  H
  H103     1.0000 0.85040  0.10380  0.56320  Biso   1.000  H
  H104     1.0000 0.14960  0.10380  0.93680  Biso   1.000  H
  H105     1.0000 0.68550  0.41890  0.54650  Biso   1.000  H
  H106     1.0000 0.31450  0.41890  0.95350  Biso   1.000  H
  H107     1.0000 0.18550  0.91890  0.54650  Biso   1.000  H
  H108     1.0000 0.81450  0.91890  0.95350  Biso   1.000  H
  H109     1.0000 0.31450  0.58110  0.45350  Biso   1.000  H
  H110     1.0000 0.68550  0.58110  0.04650  Biso   1.000  H
  H111     1.0000 0.81450  0.08110  0.45350  Biso   1.000  H
  H112     1.0000 0.18550  0.08110  0.04650  Biso   1.000  H
  C129     1.0000 0.61054  0.19918  0.36720  Biso   1.000  C
  C130     1.0000 0.38946  0.19918  0.13280  Biso   1.000  C
  C131     1.0000 0.11054  0.69918  0.36720  Biso   1.000  C
  C132     1.0000 0.88946  0.69918  0.13280  Biso   1.000  C
  C133     1.0000 0.38946  0.80082  0.63280  Biso   1.000  C
  C134     1.0000 0.61054  0.80082  0.86720  Biso   1.000  C
  C135     1.0000 0.88946  0.30082  0.63280  Biso   1.000  C
  C136     1.0000 0.11054  0.30082  0.86720  Biso   1.000  C
  C137     1.0000 0.58089  0.15606  0.32490  Biso   1.000  C
  C138     1.0000 0.41911  0.15606  0.17510  Biso   1.000  C
  C139     1.0000 0.08089  0.65606  0.32490  Biso   1.000  C
  C140     1.0000 0.91911  0.65606  0.17510  Biso   1.000  C
  C141     1.0000 0.41911  0.84394  0.67510  Biso   1.000  C
  C142     1.0000 0.58089  0.84394  0.82490  Biso   1.000  C
  C143     1.0000 0.91911  0.34394  0.67510  Biso   1.000  C
  C144     1.0000 0.08089  0.34394  0.82490  Biso   1.000  C
  H113     1.0000 0.58060  0.14300  0.24320  Biso   1.000  H
  H114     1.0000 0.41940  0.14300  0.25680  Biso   1.000  H
  H115     1.0000 0.08060  0.64300  0.24320  Biso   1.000  H
  H116     1.0000 0.91940  0.64300  0.25680  Biso   1.000  H
  H117     1.0000 0.41940  0.85700  0.75680  Biso   1.000  H
  H118     1.0000 0.58060  0.85700  0.74320  Biso   1.000  H
  H119     1.0000 0.91940  0.35700  0.75680  Biso   1.000  H
  H120     1.0000 0.08060  0.35700  0.74320  Biso   1.000  H
  C145     1.0000 0.55101  0.13253  0.40980  Biso   1.000  C
  C146     1.0000 0.44899  0.13253  0.09020  Biso   1.000  C
  C147     1.0000 0.05101  0.63253  0.40980  Biso   1.000  C
  C148     1.0000 0.94899  0.63253  0.09020  Biso   1.000  C
  C149     1.0000 0.44899  0.86747  0.59020  Biso   1.000  C
  C150     1.0000 0.55101  0.86747  0.90980  Biso   1.000  C
  C151     1.0000 0.94899  0.36747  0.59020  Biso   1.000  C
  C152     1.0000 0.05101  0.36747  0.90980  Biso   1.000  C
  C153     1.0000 0.55155  0.15128  0.53130  Biso   1.000  C
  C154     1.0000 0.44845  0.15128  0.96870  Biso   1.000  C
  C155     1.0000 0.05155  0.65128  0.53130  Biso   1.000  C
  C156     1.0000 0.94845  0.65128  0.96870  Biso   1.000  C
  C157     1.0000 0.44845  0.84872  0.46870  Biso   1.000  C
  C158     1.0000 0.55155  0.84872  0.03130  Biso   1.000  C
  C159     1.0000 0.94845  0.34872  0.46870  Biso   1.000  C
  C160     1.0000 0.05155  0.34872  0.03130  Biso   1.000  C
  C161     1.0000 0.58255  0.19388  0.57600  Biso   1.000  C
  C162     1.0000 0.41745  0.19388  0.92400  Biso   1.000  C
  C163     1.0000 0.08255  0.69388  0.57600  Biso   1.000  C
  C164     1.0000 0.91745  0.69388  0.92400  Biso   1.000  C
  C165     1.0000 0.41745  0.80612  0.42400  Biso   1.000  C
  C166     1.0000 0.58255  0.80612  0.07600  Biso   1.000  C
  C167     1.0000 0.91745  0.30612  0.42400  Biso   1.000  C
  C168     1.0000 0.08255  0.30612  0.07600  Biso   1.000  C
  H121     1.0000 0.58360  0.20580  0.65860  Biso   1.000  H
  H122     1.0000 0.41640  0.20580  0.84140  Biso   1.000  H
  H123     1.0000 0.08360  0.70580  0.65860  Biso   1.000  H
  H124     1.0000 0.91640  0.70580  0.84140  Biso   1.000  H
  H125     1.0000 0.41640  0.79420  0.34140  Biso   1.000  H
  H126     1.0000 0.58360  0.79420  0.15860  Biso   1.000  H
  H127     1.0000 0.91640  0.29420  0.34140  Biso   1.000  H
  H128     1.0000 0.08360  0.29420  0.15860  Biso   1.000  H
  C169     1.0000 0.61214  0.21803  0.49150  Biso   1.000  C
  C170     1.0000 0.38786  0.21803  0.00850  Biso   1.000  C
  C171     1.0000 0.11214  0.71803  0.49150  Biso   1.000  C
  C172     1.0000 0.88786  0.71803  0.00850  Biso   1.000  C
  C173     1.0000 0.38786  0.78197  0.50850  Biso   1.000  C
  C174     1.0000 0.61214  0.78197  0.99150  Biso   1.000  C
  C175     1.0000 0.88786  0.28197  0.50850  Biso   1.000  C
  C176     1.0000 0.11214  0.28197  0.99150  Biso   1.000  C
