data_image0
_cell_length_a       30.8557
_cell_length_b       18.8799
_cell_length_c       10.8522
_cell_angle_alpha    90
_cell_angle_beta     93.251
_cell_angle_gamma    90

_symmetry_space_group_name_H-M    "P 1"
_symmetry_int_tables_number       1

loop_
  _symmetry_equiv_pos_as_xyz
  'x, y, z'

loop_
  _atom_site_label
  _atom_site_occupancy
  _atom_site_fract_x
  _atom_site_fract_y
  _atom_site_fract_z
  _atom_site_thermal_displace_type
  _atom_site_B_iso_or_equiv
  _atom_site_type_symbol
  Cu1      1.0000 0.43807  0.07735  0.52491  Biso   1.000  Cu
  Cu2      1.0000 0.56193  0.07735  0.97509  Biso   1.000  Cu
  Cu3      1.0000 0.06193  0.57735  0.97509  Biso   1.000  Cu
  Cu4      1.0000 0.93807  0.57735  0.52491  Biso   1.000  Cu
  Cu5      1.0000 0.56193  0.92265  0.47509  Biso   1.000  Cu
  Cu6      1.0000 0.43807  0.92265  0.02491  Biso   1.000  Cu
  Cu7      1.0000 0.93807  0.42265  0.02491  Biso   1.000  Cu
  Cu8      1.0000 0.06193  0.42265  0.47509  Biso   1.000  Cu
  Cu9      1.0000 0.50000  0.04320  0.25000  Biso   1.000  Cu
  Cu10     1.0000 0.00000  0.54320  0.25000  Biso   1.000  Cu
  Cu11     1.0000 0.50000  0.95680  0.75000  Biso   1.000  Cu
  Cu12     1.0000 0.00000  0.45680  0.75000  Biso   1.000  Cu
  Cu13     1.0000 0.50000  0.14144  0.75000  Biso   1.000  Cu
  Cu14     1.0000 0.00000  0.64144  0.75000  Biso   1.000  Cu
  Cu15     1.0000 0.50000  0.85856  0.25000  Biso   1.000  Cu
  Cu16     1.0000 0.00000  0.35856  0.25000  Biso   1.000  Cu
  N1       1.0000 0.92312  0.50596  0.37644  Biso   1.000  N
  N2       1.0000 0.07688  0.50596  0.12356  Biso   1.000  N
  N3       1.0000 0.57688  0.00596  0.12356  Biso   1.000  N
  N4       1.0000 0.42312  0.00596  0.37644  Biso   1.000  N
  N5       1.0000 0.07688  0.49404  0.62356  Biso   1.000  N
  N6       1.0000 0.92312  0.49404  0.87644  Biso   1.000  N
  N7       1.0000 0.42312  0.99404  0.87644  Biso   1.000  N
  N8       1.0000 0.57688  0.99404  0.62356  Biso   1.000  N
  N9       1.0000 0.94204  0.50308  0.26967  Biso   1.000  N
  N10      1.0000 0.05796  0.50308  0.23033  Biso   1.000  N
  N11      1.0000 0.55796  0.00308  0.23033  Biso   1.000  N
  N12      1.0000 0.44204  0.00308  0.26967  Biso   1.000  N
  N13      1.0000 0.05796  0.49692  0.73033  Biso   1.000  N
  N14      1.0000 0.94204  0.49692  0.76967  Biso   1.000  N
  N15      1.0000 0.44204  0.99692  0.76967  Biso   1.000  N
  N16      1.0000 0.55796  0.99692  0.73033  Biso   1.000  N
  N17      1.0000 0.91870  0.46685  0.18434  Biso   1.000  N
  N18      1.0000 0.08130  0.46685  0.31566  Biso   1.000  N
  N19      1.0000 0.58130  0.96685  0.31566  Biso   1.000  N
  N20      1.0000 0.41870  0.96685  0.18434  Biso   1.000  N
  N21      1.0000 0.08130  0.53315  0.81566  Biso   1.000  N
  N22      1.0000 0.91870  0.53315  0.68434  Biso   1.000  N
  N23      1.0000 0.41870  0.03315  0.68434  Biso   1.000  N
  N24      1.0000 0.58130  0.03315  0.81566  Biso   1.000  N
  N25      1.0000 0.78297  0.40637  0.47430  Biso   1.000  N
  N26      1.0000 0.21703  0.40637  0.02570  Biso   1.000  N
  N27      1.0000 0.71703  0.90637  0.02570  Biso   1.000  N
  N28      1.0000 0.28297  0.90637  0.47430  Biso   1.000  N
  N29      1.0000 0.21703  0.59363  0.52570  Biso   1.000  N
  N30      1.0000 0.78297  0.59363  0.97430  Biso   1.000  N
  N31      1.0000 0.28297  0.09363  0.97430  Biso   1.000  N
  N32      1.0000 0.71703  0.09363  0.52570  Biso   1.000  N
  N33      1.0000 0.77529  0.36035  0.22560  Biso   1.000  N
  N34      1.0000 0.22471  0.36035  0.27440  Biso   1.000  N
  N35      1.0000 0.72471  0.86035  0.27440  Biso   1.000  N
  N36      1.0000 0.27529  0.86035  0.22560  Biso   1.000  N
  N37      1.0000 0.22471  0.63965  0.77440  Biso   1.000  N
  N38      1.0000 0.77529  0.63965  0.72560  Biso   1.000  N
  N39      1.0000 0.27529  0.13965  0.72560  Biso   1.000  N
  N40      1.0000 0.72471  0.13965  0.77440  Biso   1.000  N
  N41      1.0000 0.64202  0.25065  0.29003  Biso   1.000  N
  N42      1.0000 0.35798  0.25065  0.20997  Biso   1.000  N
  N43      1.0000 0.85798  0.75065  0.20997  Biso   1.000  N
  N44      1.0000 0.14202  0.75065  0.29003  Biso   1.000  N
  N45      1.0000 0.35798  0.74935  0.70997  Biso   1.000  N
  N46      1.0000 0.64202  0.74935  0.79003  Biso   1.000  N
  N47      1.0000 0.14202  0.24935  0.79003  Biso   1.000  N
  N48      1.0000 0.85798  0.24935  0.70997  Biso   1.000  N
  N49      1.0000 0.64965  0.28795  0.54039  Biso   1.000  N
  N50      1.0000 0.35035  0.28795  0.95961  Biso   1.000  N
  N51      1.0000 0.85035  0.78795  0.95961  Biso   1.000  N
  N52      1.0000 0.14965  0.78795  0.54039  Biso   1.000  N
  N53      1.0000 0.35035  0.71205  0.45961  Biso   1.000  N
  N54      1.0000 0.64965  0.71205  0.04039  Biso   1.000  N
  N55      1.0000 0.14965  0.21205  0.04039  Biso   1.000  N
  N56      1.0000 0.85035  0.21205  0.45961  Biso   1.000  N
  N57      1.0000 0.51932  0.10180  0.39178  Biso   1.000  N
  N58      1.0000 0.48068  0.10180  0.10822  Biso   1.000  N
  N59      1.0000 0.98068  0.60180  0.10822  Biso   1.000  N
  N60      1.0000 0.01932  0.60180  0.39178  Biso   1.000  N
  N61      1.0000 0.48068  0.89820  0.60822  Biso   1.000  N
  N62      1.0000 0.51932  0.89820  0.89178  Biso   1.000  N
  N63      1.0000 0.01932  0.39820  0.89178  Biso   1.000  N
  N64      1.0000 0.98068  0.39820  0.60822  Biso   1.000  N
  N65      1.0000 0.50243  0.09705  0.50442  Biso   1.000  N
  N66      1.0000 0.49757  0.09705  0.99558  Biso   1.000  N
  N67      1.0000 0.99757  0.59705  0.99558  Biso   1.000  N
  N68      1.0000 0.00243  0.59705  0.50442  Biso   1.000  N
  N69      1.0000 0.49757  0.90295  0.49558  Biso   1.000  N
  N70      1.0000 0.50243  0.90295  0.00442  Biso   1.000  N
  N71      1.0000 0.00243  0.40295  0.00442  Biso   1.000  N
  N72      1.0000 0.99757  0.40295  0.49558  Biso   1.000  N
  N73      1.0000 0.52368  0.13561  0.58995  Biso   1.000  N
  N74      1.0000 0.47632  0.13561  0.91005  Biso   1.000  N
  N75      1.0000 0.97632  0.63561  0.91005  Biso   1.000  N
  N76      1.0000 0.02368  0.63561  0.58995  Biso   1.000  N
  N77      1.0000 0.47632  0.86439  0.41005  Biso   1.000  N
  N78      1.0000 0.52368  0.86439  0.08995  Biso   1.000  N
  N79      1.0000 0.02368  0.36439  0.08995  Biso   1.000  N
  N80      1.0000 0.97632  0.36439  0.41005  Biso   1.000  N
  C1       1.0000 0.88470  0.46868  0.36293  Biso   1.000  C
  C2       1.0000 0.11530  0.46868  0.13707  Biso   1.000  C
  C3       1.0000 0.61530  0.96868  0.13707  Biso   1.000  C
  C4       1.0000 0.38470  0.96868  0.36293  Biso   1.000  C
  C5       1.0000 0.11530  0.53132  0.63707  Biso   1.000  C
  C6       1.0000 0.88470  0.53132  0.86293  Biso   1.000  C
  C7       1.0000 0.38470  0.03132  0.86293  Biso   1.000  C
  C8       1.0000 0.61530  0.03132  0.63707  Biso   1.000  C
  C9       1.0000 0.88148  0.44362  0.23736  Biso   1.000  C
  C10      1.0000 0.11852  0.44362  0.26264  Biso   1.000  C
  C11      1.0000 0.61852  0.94362  0.26264  Biso   1.000  C
  C12      1.0000 0.38148  0.94362  0.23736  Biso   1.000  C
  C13      1.0000 0.11852  0.55638  0.76264  Biso   1.000  C
  C14      1.0000 0.88148  0.55638  0.73736  Biso   1.000  C
  C15      1.0000 0.38148  0.05638  0.73736  Biso   1.000  C
  C16      1.0000 0.61852  0.05638  0.76264  Biso   1.000  C
  C17      1.0000 0.84608  0.40561  0.19058  Biso   1.000  C
  C18      1.0000 0.15392  0.40561  0.30942  Biso   1.000  C
  C19      1.0000 0.65392  0.90561  0.30942  Biso   1.000  C
  C20      1.0000 0.34608  0.90561  0.19058  Biso   1.000  C
  C21      1.0000 0.15392  0.59439  0.80942  Biso   1.000  C
  C22      1.0000 0.84608  0.59439  0.69058  Biso   1.000  C
  C23      1.0000 0.34608  0.09439  0.69058  Biso   1.000  C
  C24      1.0000 0.65392  0.09439  0.80942  Biso   1.000  C
  H1       1.0000 0.84458  0.38814  0.10840  Biso   1.000  H
  H2       1.0000 0.15542  0.38814  0.39160  Biso   1.000  H
  H3       1.0000 0.65542  0.88814  0.39160  Biso   1.000  H
  H4       1.0000 0.34458  0.88814  0.10840  Biso   1.000  H
  H5       1.0000 0.15542  0.61186  0.89160  Biso   1.000  H
  H6       1.0000 0.84458  0.61186  0.60840  Biso   1.000  H
  H7       1.0000 0.34458  0.11186  0.60840  Biso   1.000  H
  H8       1.0000 0.65542  0.11186  0.89160  Biso   1.000  H
  C25      1.0000 0.81239  0.39406  0.27033  Biso   1.000  C
  C26      1.0000 0.18761  0.39406  0.22967  Biso   1.000  C
  C27      1.0000 0.68761  0.89406  0.22967  Biso   1.000  C
  C28      1.0000 0.31239  0.89406  0.27033  Biso   1.000  C
  C29      1.0000 0.18761  0.60594  0.72967  Biso   1.000  C
  C30      1.0000 0.81239  0.60594  0.77033  Biso   1.000  C
  C31      1.0000 0.31239  0.10594  0.77033  Biso   1.000  C
  C32      1.0000 0.68761  0.10594  0.72967  Biso   1.000  C
  C33      1.0000 0.81652  0.41807  0.39679  Biso   1.000  C
  C34      1.0000 0.18348  0.41807  0.10321  Biso   1.000  C
  C35      1.0000 0.68348  0.91807  0.10321  Biso   1.000  C
  C36      1.0000 0.31652  0.91807  0.39679  Biso   1.000  C
  C37      1.0000 0.18348  0.58193  0.60321  Biso   1.000  C
  C38      1.0000 0.81652  0.58193  0.89679  Biso   1.000  C
  C39      1.0000 0.31652  0.08193  0.89679  Biso   1.000  C
  C40      1.0000 0.68348  0.08193  0.60321  Biso   1.000  C
  C41      1.0000 0.85175  0.45696  0.44561  Biso   1.000  C
  C42      1.0000 0.14825  0.45696  0.05439  Biso   1.000  C
  C43      1.0000 0.64825  0.95696  0.05439  Biso   1.000  C
  C44      1.0000 0.35175  0.95696  0.44561  Biso   1.000  C
  C45      1.0000 0.14825  0.54304  0.55439  Biso   1.000  C
  C46      1.0000 0.85175  0.54304  0.94561  Biso   1.000  C
  C47      1.0000 0.35175  0.04304  0.94561  Biso   1.000  C
  C48      1.0000 0.64825  0.04304  0.55439  Biso   1.000  C
  H9       1.0000 0.85347  0.47426  0.52784  Biso   1.000  H
  H10      1.0000 0.14653  0.47426  0.97216  Biso   1.000  H
  H11      1.0000 0.64653  0.97426  0.97216  Biso   1.000  H
  H12      1.0000 0.35347  0.97426  0.52784  Biso   1.000  H
  H13      1.0000 0.14653  0.52574  0.47216  Biso   1.000  H
  H14      1.0000 0.85347  0.52574  0.02784  Biso   1.000  H
  H15      1.0000 0.35347  0.02574  0.02784  Biso   1.000  H
  H16      1.0000 0.64653  0.02574  0.47216  Biso   1.000  H
  C49      1.0000 0.74852  0.37358  0.42900  Biso   1.000  C
  C50      1.0000 0.25148  0.37358  0.07100  Biso   1.000  C
  C51      1.0000 0.75148  0.87358  0.07100  Biso   1.000  C
  C52      1.0000 0.24852  0.87358  0.42900  Biso   1.000  C
  C53      1.0000 0.25148  0.62642  0.57100  Biso   1.000  C
  C54      1.0000 0.74852  0.62642  0.92900  Biso   1.000  C
  C55      1.0000 0.24852  0.12642  0.92900  Biso   1.000  C
  C56      1.0000 0.75148  0.12642  0.57100  Biso   1.000  C
  C57      1.0000 0.74269  0.35522  0.30042  Biso   1.000  C
  C58      1.0000 0.25731  0.35522  0.19958  Biso   1.000  C
  C59      1.0000 0.75731  0.85522  0.19958  Biso   1.000  C
  C60      1.0000 0.24269  0.85522  0.30042  Biso   1.000  C
  C61      1.0000 0.25731  0.64478  0.69958  Biso   1.000  C
  C62      1.0000 0.74269  0.64478  0.80042  Biso   1.000  C
  C63      1.0000 0.24269  0.14478  0.80042  Biso   1.000  C
  C64      1.0000 0.75731  0.14478  0.69958  Biso   1.000  C
  C65      1.0000 0.70170  0.32177  0.24045  Biso   1.000  C
  C66      1.0000 0.29830  0.32177  0.25955  Biso   1.000  C
  C67      1.0000 0.79830  0.82177  0.25955  Biso   1.000  C
  C68      1.0000 0.20170  0.82177  0.24045  Biso   1.000  C
  C69      1.0000 0.29830  0.67823  0.75955  Biso   1.000  C
  C70      1.0000 0.70170  0.67823  0.74045  Biso   1.000  C
  C71      1.0000 0.20170  0.17823  0.74045  Biso   1.000  C
  C72      1.0000 0.79830  0.17823  0.75955  Biso   1.000  C
  C73      1.0000 0.67190  0.29315  0.33667  Biso   1.000  C
  C74      1.0000 0.32810  0.29315  0.16333  Biso   1.000  C
  C75      1.0000 0.82810  0.79315  0.16333  Biso   1.000  C
  C76      1.0000 0.17190  0.79315  0.33667  Biso   1.000  C
  C77      1.0000 0.32810  0.70685  0.66333  Biso   1.000  C
  C78      1.0000 0.67190  0.70685  0.83667  Biso   1.000  C
  C79      1.0000 0.17190  0.20685  0.83667  Biso   1.000  C
  C80      1.0000 0.82810  0.20685  0.66333  Biso   1.000  C
  C81      1.0000 0.67548  0.31333  0.46025  Biso   1.000  C
  C82      1.0000 0.32452  0.31333  0.03975  Biso   1.000  C
  C83      1.0000 0.82452  0.81333  0.03975  Biso   1.000  C
  C84      1.0000 0.17548  0.81333  0.46025  Biso   1.000  C
  C85      1.0000 0.32452  0.68667  0.53975  Biso   1.000  C
  C86      1.0000 0.67548  0.68667  0.96025  Biso   1.000  C
  C87      1.0000 0.17548  0.18667  0.96025  Biso   1.000  C
  C88      1.0000 0.82452  0.18667  0.53975  Biso   1.000  C
  C89      1.0000 0.71060  0.36425  0.51261  Biso   1.000  C
  C90      1.0000 0.28940  0.36425  0.98739  Biso   1.000  C
  C91      1.0000 0.78940  0.86425  0.98739  Biso   1.000  C
  C92      1.0000 0.21060  0.86425  0.51261  Biso   1.000  C
  C93      1.0000 0.28940  0.63575  0.48739  Biso   1.000  C
  C94      1.0000 0.71060  0.63575  0.01261  Biso   1.000  C
  C95      1.0000 0.21060  0.13575  0.01261  Biso   1.000  C
  C96      1.0000 0.78940  0.13575  0.48739  Biso   1.000  C
  C97      1.0000 0.69041  0.43450  0.54704  Biso   1.000  C
  C98      1.0000 0.30959  0.43450  0.95296  Biso   1.000  C
  C99      1.0000 0.80959  0.93450  0.95296  Biso   1.000  C
  C100     1.0000 0.19041  0.93450  0.54704  Biso   1.000  C
  C101     1.0000 0.30959  0.56550  0.45296  Biso   1.000  C
  C102     1.0000 0.69041  0.56550  0.04704  Biso   1.000  C
  C103     1.0000 0.19041  0.06550  0.04704  Biso   1.000  C
  C104     1.0000 0.80959  0.06550  0.45296  Biso   1.000  C
  H17      1.0000 0.67585  0.45585  0.47362  Biso   1.000  H
  H18      1.0000 0.32415  0.45585  0.02638  Biso   1.000  H
  H19      1.0000 0.82415  0.95585  0.02638  Biso   1.000  H
  H20      1.0000 0.17585  0.95585  0.47362  Biso   1.000  H
  H21      1.0000 0.32415  0.54415  0.52638  Biso   1.000  H
  H22      1.0000 0.67585  0.54415  0.97362  Biso   1.000  H
  H23      1.0000 0.17585  0.04415  0.97362  Biso   1.000  H
  H24      1.0000 0.82415  0.04415  0.52638  Biso   1.000  H
  H25      1.0000 0.71333  0.46649  0.58021  Biso   1.000  H
  H26      1.0000 0.28667  0.46649  0.91979  Biso   1.000  H
  H27      1.0000 0.78667  0.96649  0.91979  Biso   1.000  H
  H28      1.0000 0.21333  0.96649  0.58021  Biso   1.000  H
  H29      1.0000 0.28667  0.53351  0.41979  Biso   1.000  H
  H30      1.0000 0.71333  0.53351  0.08021  Biso   1.000  H
  H31      1.0000 0.21333  0.03351  0.08021  Biso   1.000  H
  H32      1.0000 0.78667  0.03351  0.41979  Biso   1.000  H
  H33      1.0000 0.66927  0.42655  0.60959  Biso   1.000  H
  H34      1.0000 0.33073  0.42655  0.89041  Biso   1.000  H
  H35      1.0000 0.83073  0.92655  0.89041  Biso   1.000  H
  H36      1.0000 0.16927  0.92655  0.60959  Biso   1.000  H
  H37      1.0000 0.33073  0.57345  0.39041  Biso   1.000  H
  H38      1.0000 0.66927  0.57345  0.10959  Biso   1.000  H
  H39      1.0000 0.16927  0.07345  0.10959  Biso   1.000  H
  H40      1.0000 0.83073  0.07345  0.39041  Biso   1.000  H
  C105     1.0000 0.73115  0.32722  0.64268  Biso   1.000  C
  C106     1.0000 0.26885  0.32722  0.85732  Biso   1.000  C
  C107     1.0000 0.76885  0.82722  0.85732  Biso   1.000  C
  C108     1.0000 0.23115  0.82722  0.64268  Biso   1.000  C
  C109     1.0000 0.26885  0.67278  0.35732  Biso   1.000  C
  C110     1.0000 0.73115  0.67278  0.14268  Biso   1.000  C
  C111     1.0000 0.23115  0.17278  0.14268  Biso   1.000  C
  C112     1.0000 0.76885  0.17278  0.35732  Biso   1.000  C
  H41      1.0000 0.70541  0.33693  0.69873  Biso   1.000  H
  H42      1.0000 0.29459  0.33693  0.80127  Biso   1.000  H
  H43      1.0000 0.79459  0.83693  0.80127  Biso   1.000  H
  H44      1.0000 0.20541  0.83693  0.69873  Biso   1.000  H
  H45      1.0000 0.29459  0.66307  0.30127  Biso   1.000  H
  H46      1.0000 0.70541  0.66307  0.19873  Biso   1.000  H
  H47      1.0000 0.20541  0.16307  0.19873  Biso   1.000  H
  H48      1.0000 0.79459  0.16307  0.30127  Biso   1.000  H
  H49      1.0000 0.73766  0.28573  0.63042  Biso   1.000  H
  H50      1.0000 0.26234  0.28573  0.86958  Biso   1.000  H
  H51      1.0000 0.76234  0.78573  0.86958  Biso   1.000  H
  H52      1.0000 0.23766  0.78573  0.63042  Biso   1.000  H
  H53      1.0000 0.26234  0.71427  0.36958  Biso   1.000  H
  H54      1.0000 0.73766  0.71427  0.13042  Biso   1.000  H
  H55      1.0000 0.23766  0.21427  0.13042  Biso   1.000  H
  H56      1.0000 0.76234  0.21427  0.36958  Biso   1.000  H
  H57      1.0000 0.75305  0.36372  0.67079  Biso   1.000  H
  H58      1.0000 0.24695  0.36372  0.82921  Biso   1.000  H
  H59      1.0000 0.74695  0.86372  0.82921  Biso   1.000  H
  H60      1.0000 0.25305  0.86372  0.67079  Biso   1.000  H
  H61      1.0000 0.24695  0.63628  0.32921  Biso   1.000  H
  H62      1.0000 0.75305  0.63628  0.17079  Biso   1.000  H
  H63      1.0000 0.25305  0.13628  0.17079  Biso   1.000  H
  H64      1.0000 0.74695  0.13628  0.32921  Biso   1.000  H
  C113     1.0000 0.61765  0.24086  0.49845  Biso   1.000  C
  C114     1.0000 0.38235  0.24086  0.00155  Biso   1.000  C
  C115     1.0000 0.88235  0.74086  0.00155  Biso   1.000  C
  C116     1.0000 0.11765  0.74086  0.49845  Biso   1.000  C
  C117     1.0000 0.38235  0.75914  0.50155  Biso   1.000  C
  C118     1.0000 0.61765  0.75914  0.99845  Biso   1.000  C
  C119     1.0000 0.11765  0.25914  0.99845  Biso   1.000  C
  C120     1.0000 0.88235  0.25914  0.50155  Biso   1.000  C
  C121     1.0000 0.61383  0.22178  0.36957  Biso   1.000  C
  C122     1.0000 0.38617  0.22178  0.13043  Biso   1.000  C
  C123     1.0000 0.88617  0.72178  0.13043  Biso   1.000  C
  C124     1.0000 0.11383  0.72178  0.36957  Biso   1.000  C
  C125     1.0000 0.38617  0.77822  0.63043  Biso   1.000  C
  C126     1.0000 0.61383  0.77822  0.86957  Biso   1.000  C
  C127     1.0000 0.11383  0.27822  0.86957  Biso   1.000  C
  C128     1.0000 0.88617  0.27822  0.63043  Biso   1.000  C
  C129     1.0000 0.58142  0.17482  0.32522  Biso   1.000  C
  C130     1.0000 0.41858  0.17482  0.17478  Biso   1.000  C
  C131     1.0000 0.91858  0.67482  0.17478  Biso   1.000  C
  C132     1.0000 0.08142  0.67482  0.32522  Biso   1.000  C
  C133     1.0000 0.41858  0.82518  0.67478  Biso   1.000  C
  C134     1.0000 0.58142  0.82518  0.82522  Biso   1.000  C
  C135     1.0000 0.08142  0.32518  0.82522  Biso   1.000  C
  C136     1.0000 0.91858  0.32518  0.67478  Biso   1.000  C
  H65      1.0000 0.57916  0.16107  0.24102  Biso   1.000  H
  H66      1.0000 0.42084  0.16107  0.25898  Biso   1.000  H
  H67      1.0000 0.92084  0.66107  0.25898  Biso   1.000  H
  H68      1.0000 0.07916  0.66107  0.24102  Biso   1.000  H
  H69      1.0000 0.42084  0.83893  0.75898  Biso   1.000  H
  H70      1.0000 0.57916  0.83893  0.74102  Biso   1.000  H
  H71      1.0000 0.07916  0.33893  0.74102  Biso   1.000  H
  H72      1.0000 0.92084  0.33893  0.75898  Biso   1.000  H
  C137     1.0000 0.55336  0.14940  0.40705  Biso   1.000  C
  C138     1.0000 0.44664  0.14940  0.09295  Biso   1.000  C
  C139     1.0000 0.94664  0.64940  0.09295  Biso   1.000  C
  C140     1.0000 0.05336  0.64940  0.40705  Biso   1.000  C
  C141     1.0000 0.44664  0.85060  0.59295  Biso   1.000  C
  C142     1.0000 0.55336  0.85060  0.90705  Biso   1.000  C
  C143     1.0000 0.05336  0.35060  0.90705  Biso   1.000  C
  C144     1.0000 0.94664  0.35060  0.59295  Biso   1.000  C
  C145     1.0000 0.55649  0.16850  0.53126  Biso   1.000  C
  C146     1.0000 0.44351  0.16850  0.96874  Biso   1.000  C
  C147     1.0000 0.94351  0.66850  0.96874  Biso   1.000  C
  C148     1.0000 0.05649  0.66850  0.53126  Biso   1.000  C
  C149     1.0000 0.44351  0.83150  0.46874  Biso   1.000  C
  C150     1.0000 0.55649  0.83150  0.03126  Biso   1.000  C
  C151     1.0000 0.05649  0.33150  0.03126  Biso   1.000  C
  C152     1.0000 0.94351  0.33150  0.46874  Biso   1.000  C
  C153     1.0000 0.58844  0.21605  0.58121  Biso   1.000  C
  C154     1.0000 0.41156  0.21605  0.91879  Biso   1.000  C
  C155     1.0000 0.91156  0.71605  0.91879  Biso   1.000  C
  C156     1.0000 0.08844  0.71605  0.58121  Biso   1.000  C
  C157     1.0000 0.41156  0.78395  0.41879  Biso   1.000  C
  C158     1.0000 0.58844  0.78395  0.08121  Biso   1.000  C
  C159     1.0000 0.08844  0.28395  0.08121  Biso   1.000  C
  C160     1.0000 0.91156  0.28395  0.41879  Biso   1.000  C
  H73      1.0000 0.58976  0.22999  0.66544  Biso   1.000  H
  H74      1.0000 0.41024  0.22999  0.83456  Biso   1.000  H
  H75      1.0000 0.91024  0.72999  0.83456  Biso   1.000  H
  H76      1.0000 0.08976  0.72999  0.66544  Biso   1.000  H
  H77      1.0000 0.41024  0.77001  0.33456  Biso   1.000  H
  H78      1.0000 0.58976  0.77001  0.16544  Biso   1.000  H
  H79      1.0000 0.08976  0.27001  0.16544  Biso   1.000  H
  H80      1.0000 0.91024  0.27001  0.33456  Biso   1.000  H
  C161     1.0000 0.70433  0.28354  0.13597  Biso   1.000  C
  C162     1.0000 0.29567  0.28354  0.36403  Biso   1.000  C
  C163     1.0000 0.79567  0.78354  0.36403  Biso   1.000  C
  C164     1.0000 0.20433  0.78354  0.13597  Biso   1.000  C
  C165     1.0000 0.29567  0.71646  0.86403  Biso   1.000  C
  C166     1.0000 0.70433  0.71646  0.63597  Biso   1.000  C
  C167     1.0000 0.20433  0.21646  0.63597  Biso   1.000  C
  C168     1.0000 0.79567  0.21646  0.86403  Biso   1.000  C
  H81      1.0000 0.71137  0.31505  0.06817  Biso   1.000  H
  H82      1.0000 0.28863  0.31505  0.43183  Biso   1.000  H
  H83      1.0000 0.78863  0.81505  0.43183  Biso   1.000  H
  H84      1.0000 0.21137  0.81505  0.06817  Biso   1.000  H
  H85      1.0000 0.28863  0.68495  0.93183  Biso   1.000  H
  H86      1.0000 0.71137  0.68495  0.56817  Biso   1.000  H
  H87      1.0000 0.21137  0.18495  0.56817  Biso   1.000  H
  H88      1.0000 0.78863  0.18495  0.93183  Biso   1.000  H
  H89      1.0000 0.72718  0.24765  0.14822  Biso   1.000  H
  H90      1.0000 0.27282  0.24765  0.35178  Biso   1.000  H
  H91      1.0000 0.77282  0.74765  0.35178  Biso   1.000  H
  H92      1.0000 0.22718  0.74765  0.14822  Biso   1.000  H
  H93      1.0000 0.27282  0.75235  0.85178  Biso   1.000  H
  H94      1.0000 0.72718  0.75235  0.64822  Biso   1.000  H
  H95      1.0000 0.22718  0.25235  0.64822  Biso   1.000  H
  H96      1.0000 0.77282  0.25235  0.85178  Biso   1.000  H
  H97      1.0000 0.67648  0.26020  0.11583  Biso   1.000  H
  H98      1.0000 0.32352  0.26020  0.38417  Biso   1.000  H
  H99      1.0000 0.82352  0.76020  0.38417  Biso   1.000  H
  H100     1.0000 0.17648  0.76020  0.11583  Biso   1.000  H
  H101     1.0000 0.32352  0.73980  0.88417  Biso   1.000  H
  H102     1.0000 0.67648  0.73980  0.61583  Biso   1.000  H
  H103     1.0000 0.17648  0.23980  0.61583  Biso   1.000  H
  H104     1.0000 0.82352  0.23980  0.88417  Biso   1.000  H
  C169     1.0000 0.67622  0.39904  0.20030  Biso   1.000  C
  C170     1.0000 0.32378  0.39904  0.29970  Biso   1.000  C
  C171     1.0000 0.82378  0.89904  0.29970  Biso   1.000  C
  C172     1.0000 0.17622  0.89904  0.20030  Biso   1.000  C
  C173     1.0000 0.32378  0.60096  0.79970  Biso   1.000  C
  C174     1.0000 0.67622  0.60096  0.70030  Biso   1.000  C
  C175     1.0000 0.17622  0.10096  0.70030  Biso   1.000  C
  C176     1.0000 0.82378  0.10096  0.79970  Biso   1.000  C
  H105     1.0000 0.64758  0.38869  0.16060  Biso   1.000  H
  H106     1.0000 0.35242  0.38869  0.33940  Biso   1.000  H
  H107     1.0000 0.85242  0.88869  0.33940  Biso   1.000  H
  H108     1.0000 0.14758  0.88869  0.16060  Biso   1.000  H
  H109     1.0000 0.35242  0.61131  0.83940  Biso   1.000  H
  H110     1.0000 0.64758  0.61131  0.66060  Biso   1.000  H
  H111     1.0000 0.14758  0.11131  0.66060  Biso   1.000  H
  H112     1.0000 0.85242  0.11131  0.83940  Biso   1.000  H
  H113     1.0000 0.67284  0.42772  0.27436  Biso   1.000  H
  H114     1.0000 0.32716  0.42772  0.22564  Biso   1.000  H
  H115     1.0000 0.82716  0.92772  0.22564  Biso   1.000  H
  H116     1.0000 0.17284  0.92772  0.27436  Biso   1.000  H
  H117     1.0000 0.32716  0.57228  0.72564  Biso   1.000  H
  H118     1.0000 0.67284  0.57228  0.77436  Biso   1.000  H
  H119     1.0000 0.17284  0.07228  0.77436  Biso   1.000  H
  H120     1.0000 0.82716  0.07228  0.72564  Biso   1.000  H
  H121     1.0000 0.69367  0.42517  0.14273  Biso   1.000  H
  H122     1.0000 0.30633  0.42517  0.35727  Biso   1.000  H
  H123     1.0000 0.80633  0.92517  0.35727  Biso   1.000  H
  H124     1.0000 0.19367  0.92517  0.14273  Biso   1.000  H
  H125     1.0000 0.30633  0.57483  0.85727  Biso   1.000  H
  H126     1.0000 0.69367  0.57483  0.64273  Biso   1.000  H
  H127     1.0000 0.19367  0.07483  0.64273  Biso   1.000  H
  H128     1.0000 0.80633  0.07483  0.85727  Biso   1.000  H
  N81      1.0000 0.41660  0.20280  0.50840  Biso   1.000  N
  N82      1.0000 0.58340  0.20280  0.99160  Biso   1.000  N
  N83      1.0000 0.08340  0.70280  0.99160  Biso   1.000  N
  N84      1.0000 0.91660  0.70280  0.50840  Biso   1.000  N
  N85      1.0000 0.58340  0.79720  0.49160  Biso   1.000  N
  N86      1.0000 0.41660  0.79720  0.00840  Biso   1.000  N
  N87      1.0000 0.91660  0.29720  0.00840  Biso   1.000  N
  N88      1.0000 0.08340  0.29720  0.49160  Biso   1.000  N
  N89      1.0000 0.92880  0.87330  0.97240  Biso   1.000  N
  N90      1.0000 0.07120  0.87330  0.52760  Biso   1.000  N
  N91      1.0000 0.57120  0.37330  0.52760  Biso   1.000  N
  N92      1.0000 0.42880  0.37330  0.97240  Biso   1.000  N
  N93      1.0000 0.07120  0.12670  0.02760  Biso   1.000  N
  N94      1.0000 0.92880  0.12670  0.47240  Biso   1.000  N
  N95      1.0000 0.42880  0.62670  0.47240  Biso   1.000  N
  N96      1.0000 0.57120  0.62670  0.02760  Biso   1.000  N
  N97      1.0000 0.26110  0.57140  0.13280  Biso   1.000  N
  N98      1.0000 0.73890  0.57140  0.36720  Biso   1.000  N
  N99      1.0000 0.23890  0.07140  0.36720  Biso   1.000  N
  N100     1.0000 0.76110  0.07140  0.13280  Biso   1.000  N
  N101     1.0000 0.73890  0.42860  0.86720  Biso   1.000  N
  N102     1.0000 0.26110  0.42860  0.63280  Biso   1.000  N
  N103     1.0000 0.76110  0.92860  0.63280  Biso   1.000  N
  N104     1.0000 0.23890  0.92860  0.86720  Biso   1.000  N
  N105     1.0000 0.04600  0.14830  0.52560  Biso   1.000  N
  N106     1.0000 0.95400  0.14830  0.97440  Biso   1.000  N
  N107     1.0000 0.45400  0.64830  0.97440  Biso   1.000  N
  N108     1.0000 0.54600  0.64830  0.52560  Biso   1.000  N
  N109     1.0000 0.95400  0.85170  0.47440  Biso   1.000  N
  N110     1.0000 0.04600  0.85170  0.02560  Biso   1.000  N
  N111     1.0000 0.54600  0.35170  0.02560  Biso   1.000  N
  N112     1.0000 0.45400  0.35170  0.47440  Biso   1.000  N
  N113     1.0000 0.95470  0.99210  0.33640  Biso   1.000  N
  N114     1.0000 0.04530  0.99210  0.16360  Biso   1.000  N
  N115     1.0000 0.54530  0.49210  0.16360  Biso   1.000  N
  N116     1.0000 0.45470  0.49210  0.33640  Biso   1.000  N
  N117     1.0000 0.04530  0.00790  0.66360  Biso   1.000  N
  N118     1.0000 0.95470  0.00790  0.83640  Biso   1.000  N
  N119     1.0000 0.45470  0.50790  0.83640  Biso   1.000  N
  N120     1.0000 0.54530  0.50790  0.66360  Biso   1.000  N
