data_image0
_cell_length_a       9.3761
_cell_length_b       10.4289
_cell_length_c       10.6102
_cell_angle_alpha    92.362
_cell_angle_beta     107.512
_cell_angle_gamma    115.625

_symmetry_space_group_name_H-M    "P 1"
_symmetry_int_tables_number       1

loop_
  _symmetry_equiv_pos_as_xyz
  'x, y, z'

loop_
  _atom_site_label
  _atom_site_occupancy
  _atom_site_fract_x
  _atom_site_fract_y
  _atom_site_fract_z
  _atom_site_thermal_displace_type
  _atom_site_B_iso_or_equiv
  _atom_site_type_symbol
  Eu1      1.0000 0.36780  0.21632  0.54453  Biso   1.000  Eu
  Eu2      1.0000 0.63220  0.78368  0.45547  Biso   1.000  Eu
  Cu1      1.0000 0.51506  0.87873  0.81254  Biso   1.000  Cu
  Cu2      1.0000 0.48494  0.12127  0.18746  Biso   1.000  Cu
  N1       1.0000 0.73620  0.01540  0.93660  Biso   1.000  N
  N2       1.0000 0.26380  0.98460  0.06340  Biso   1.000  N
  O1       1.0000 0.38910  0.45060  0.59420  Biso   1.000  O
  O2       1.0000 0.61090  0.54940  0.40580  Biso   1.000  O
  O3       1.0000 0.44030  0.26170  0.78070  Biso   1.000  O
  O4       1.0000 0.55970  0.73830  0.21930  Biso   1.000  O
  O5       1.0000 0.45570  0.11210  0.39550  Biso   1.000  O
  O6       1.0000 0.54430  0.88790  0.60450  Biso   1.000  O
  O7       1.0000 0.15070  0.97570  0.45360  Biso   1.000  O
  O8       1.0000 0.84930  0.02430  0.54640  Biso   1.000  O
  C1       1.0000 0.86030  0.10550  0.89850  Biso   1.000  C
  C2       1.0000 0.13970  0.89450  0.10150  Biso   1.000  C
  H1       1.0000 0.83550  0.11030  0.80760  Biso   1.000  H
  H2       1.0000 0.16450  0.88970  0.19240  Biso   1.000  H
  N3       1.0000 0.28590  0.72910  0.76680  Biso   1.000  N
  N4       1.0000 0.71410  0.27090  0.23320  Biso   1.000  N
  C3       1.0000 0.02300  0.19210  0.98570  Biso   1.000  C
  C4       1.0000 0.97700  0.80790  0.01430  Biso   1.000  C
  H3       1.0000 0.10500  0.25460  0.95430  Biso   1.000  H
  H4       1.0000 0.89500  0.74540  0.04570  Biso   1.000  H
  C5       1.0000 0.77330  0.01160  0.06900  Biso   1.000  C
  C6       1.0000 0.22670  0.98840  0.93100  Biso   1.000  C
  H5       1.0000 0.68740  0.95190  0.09830  Biso   1.000  H
  H6       1.0000 0.31260  0.04810  0.90170  Biso   1.000  H
  O9       1.0000 0.52710  0.94090  0.35770  Biso   1.000  O
  O10      1.0000 0.47290  0.05910  0.64230  Biso   1.000  O
  C7       1.0000 0.49530  0.01530  0.42970  Biso   1.000  C
  C8       1.0000 0.50470  0.98470  0.57030  Biso   1.000  C
  C9       1.0000 0.24680  0.65840  0.86460  Biso   1.000  C
  C10      1.0000 0.75320  0.34160  0.13540  Biso   1.000  C
  H7       1.0000 0.33240  0.68110  0.94730  Biso   1.000  H
  H8       1.0000 0.66760  0.31890  0.05270  Biso   1.000  H
  C11      1.0000 0.16070  0.69650  0.65080  Biso   1.000  C
  C12      1.0000 0.83930  0.30350  0.34920  Biso   1.000  C
  H9       1.0000 0.18560  0.74410  0.58200  Biso   1.000  H
  H10      1.0000 0.81440  0.25590  0.41800  Biso   1.000  H
  C13      1.0000 0.08640  0.55450  0.84760  Biso   1.000  C
  C14      1.0000 0.91360  0.44550  0.15240  Biso   1.000  C
  H11      1.0000 0.06530  0.50630  0.91690  Biso   1.000  H
  H12      1.0000 0.93470  0.49370  0.08310  Biso   1.000  H
  C15      1.0000 0.99470  0.59510  0.62670  Biso   1.000  C
  C16      1.0000 0.00530  0.40490  0.37330  Biso   1.000  C
  H13      1.0000 0.91050  0.57690  0.54430  Biso   1.000  H
  H14      1.0000 0.08950  0.42310  0.45570  Biso   1.000  H
  C17      1.0000 0.77860  0.41750  0.71580  Biso   1.000  C
  C18      1.0000 0.22140  0.58250  0.28420  Biso   1.000  C
  O11      1.0000 0.65990  0.37930  0.60360  Biso   1.000  O
  O12      1.0000 0.34010  0.62070  0.39640  Biso   1.000  O
  C19      1.0000 0.95620  0.52180  0.72660  Biso   1.000  C
  C20      1.0000 0.04380  0.47820  0.27340  Biso   1.000  C
  O13      1.0000 0.76030  0.37030  0.82040  Biso   1.000  O
  O14      1.0000 0.23970  0.62970  0.17960  Biso   1.000  O
  C21      1.0000 0.06280  0.18480  0.12070  Biso   1.000  C
  C22      1.0000 0.93720  0.81520  0.87930  Biso   1.000  C
  C23      1.0000 0.93410  0.09300  0.16240  Biso   1.000  C
  C24      1.0000 0.06590  0.90700  0.83760  Biso   1.000  C
  H15      1.0000 0.95610  0.08640  0.25270  Biso   1.000  H
  H16      1.0000 0.04390  0.91360  0.74730  Biso   1.000  H
  O15      1.0000 0.26170  0.26300  0.34380  Biso   1.000  O
  O16      1.0000 0.73830  0.73700  0.65620  Biso   1.000  O
  O17      1.0000 0.35480  0.34890  0.18180  Biso   1.000  O
  O18      1.0000 0.64520  0.65110  0.81820  Biso   1.000  O
  C25      1.0000 0.24030  0.27360  0.22220  Biso   1.000  C
  C26      1.0000 0.75970  0.72640  0.77780  Biso   1.000  C
  C27      1.0000 0.01100  0.94100  0.46400  Biso   1.000  C
  C28      1.0000 0.98900  0.05900  0.53600  Biso   1.000  C
  O19      1.0000 0.43100  0.45000  0.95650  Biso   1.000  O
  O20      1.0000 0.56900  0.55000  0.04350  Biso   1.000  O
  O21      1.0000 0.88070  0.81780  0.42070  Biso   1.000  O
  O22      1.0000 0.11930  0.18220  0.57930  Biso   1.000  O
  O23      1.0000 0.24700  0.36000  0.82800  Biso   1.000  O
  O24      1.0000 0.75300  0.64000  0.17200  Biso   1.000  O
