data_image0
_cell_length_a       24.2047
_cell_length_b       9.3475
_cell_length_c       16.9878
_cell_angle_alpha    90
_cell_angle_beta     119.326
_cell_angle_gamma    90

_symmetry_space_group_name_H-M    "P 1"
_symmetry_int_tables_number       1

loop_
  _symmetry_equiv_pos_as_xyz
  'x, y, z'

loop_
  _atom_site_label
  _atom_site_occupancy
  _atom_site_fract_x
  _atom_site_fract_y
  _atom_site_fract_z
  _atom_site_thermal_displace_type
  _atom_site_B_iso_or_equiv
  _atom_site_type_symbol
  Dy1      1.0000 0.00764  0.69397  0.43579  Biso   1.000  Dy
  Dy2      1.0000 0.99236  0.69397  0.06421  Biso   1.000  Dy
  Dy3      1.0000 0.50764  0.19397  0.43579  Biso   1.000  Dy
  Dy4      1.0000 0.49236  0.19397  0.06421  Biso   1.000  Dy
  Dy5      1.0000 0.99236  0.30603  0.56421  Biso   1.000  Dy
  Dy6      1.0000 0.00764  0.30603  0.93579  Biso   1.000  Dy
  Dy7      1.0000 0.49236  0.80603  0.56421  Biso   1.000  Dy
  Dy8      1.0000 0.50764  0.80603  0.93579  Biso   1.000  Dy
  Cu1      1.0000 0.15824  0.94872  0.02652  Biso   1.000  Cu
  Cu2      1.0000 0.84176  0.94872  0.47348  Biso   1.000  Cu
  Cu3      1.0000 0.65824  0.44872  0.02652  Biso   1.000  Cu
  Cu4      1.0000 0.34176  0.44872  0.47348  Biso   1.000  Cu
  Cu5      1.0000 0.84176  0.05128  0.97348  Biso   1.000  Cu
  Cu6      1.0000 0.15824  0.05128  0.52652  Biso   1.000  Cu
  Cu7      1.0000 0.34176  0.55128  0.97348  Biso   1.000  Cu
  Cu8      1.0000 0.65824  0.55128  0.52652  Biso   1.000  Cu
  C1       1.0000 0.06940  0.71530  0.74390  Biso   1.000  C
  C2       1.0000 0.93060  0.71530  0.75610  Biso   1.000  C
  C3       1.0000 0.56940  0.21530  0.74390  Biso   1.000  C
  C4       1.0000 0.43060  0.21530  0.75610  Biso   1.000  C
  C5       1.0000 0.93060  0.28470  0.25610  Biso   1.000  C
  C6       1.0000 0.06940  0.28470  0.24390  Biso   1.000  C
  C7       1.0000 0.43060  0.78470  0.25610  Biso   1.000  C
  C8       1.0000 0.56940  0.78470  0.24390  Biso   1.000  C
  O1       1.0000 0.06657  0.73120  0.35550  Biso   1.000  O
  O2       1.0000 0.93343  0.73120  0.14450  Biso   1.000  O
  O3       1.0000 0.56657  0.23120  0.35550  Biso   1.000  O
  O4       1.0000 0.43343  0.23120  0.14450  Biso   1.000  O
  O5       1.0000 0.93343  0.26880  0.64450  Biso   1.000  O
  O6       1.0000 0.06657  0.26880  0.85550  Biso   1.000  O
  O7       1.0000 0.43343  0.76880  0.64450  Biso   1.000  O
  O8       1.0000 0.56657  0.76880  0.85550  Biso   1.000  O
  C9       1.0000 0.11810  0.71230  0.90420  Biso   1.000  C
  C10      1.0000 0.88190  0.71230  0.59580  Biso   1.000  C
  C11      1.0000 0.61810  0.21230  0.90420  Biso   1.000  C
  C12      1.0000 0.38190  0.21230  0.59580  Biso   1.000  C
  C13      1.0000 0.88190  0.28770  0.09580  Biso   1.000  C
  C14      1.0000 0.11810  0.28770  0.40420  Biso   1.000  C
  C15      1.0000 0.38190  0.78770  0.09580  Biso   1.000  C
  C16      1.0000 0.61810  0.78770  0.40420  Biso   1.000  C
  H1       1.0000 0.13160  0.65960  0.95700  Biso   1.000  H
  H2       1.0000 0.86840  0.65960  0.54300  Biso   1.000  H
  H3       1.0000 0.63160  0.15960  0.95700  Biso   1.000  H
  H4       1.0000 0.36840  0.15960  0.54300  Biso   1.000  H
  H5       1.0000 0.86840  0.34040  0.04300  Biso   1.000  H
  H6       1.0000 0.13160  0.34040  0.45700  Biso   1.000  H
  H7       1.0000 0.36840  0.84040  0.04300  Biso   1.000  H
  H8       1.0000 0.63160  0.84040  0.45700  Biso   1.000  H
  N1       1.0000 0.12720  0.85240  0.91180  Biso   1.000  N
  N2       1.0000 0.87280  0.85240  0.58820  Biso   1.000  N
  N3       1.0000 0.62720  0.35240  0.91180  Biso   1.000  N
  N4       1.0000 0.37280  0.35240  0.58820  Biso   1.000  N
  N5       1.0000 0.87280  0.14760  0.08820  Biso   1.000  N
  N6       1.0000 0.12720  0.14760  0.41180  Biso   1.000  N
  N7       1.0000 0.37280  0.64760  0.08820  Biso   1.000  N
  N8       1.0000 0.62720  0.64760  0.41180  Biso   1.000  N
  O9       1.0000 0.93896  0.87890  0.43960  Biso   1.000  O
  O10      1.0000 0.06104  0.87890  0.06040  Biso   1.000  O
  O11      1.0000 0.43896  0.37890  0.43960  Biso   1.000  O
  O12      1.0000 0.56104  0.37890  0.06040  Biso   1.000  O
  O13      1.0000 0.06104  0.12110  0.56040  Biso   1.000  O
  O14      1.0000 0.93896  0.12110  0.93960  Biso   1.000  O
  O15      1.0000 0.56104  0.62110  0.56040  Biso   1.000  O
  O16      1.0000 0.43896  0.62110  0.93960  Biso   1.000  O
  C17      1.0000 0.77270  0.54520  0.17110  Biso   1.000  C
  C18      1.0000 0.22730  0.54520  0.32890  Biso   1.000  C
  C19      1.0000 0.27270  0.04520  0.17110  Biso   1.000  C
  C20      1.0000 0.72730  0.04520  0.32890  Biso   1.000  C
  C21      1.0000 0.22730  0.45480  0.82890  Biso   1.000  C
  C22      1.0000 0.77270  0.45480  0.67110  Biso   1.000  C
  C23      1.0000 0.72730  0.95480  0.82890  Biso   1.000  C
  C24      1.0000 0.27270  0.95480  0.67110  Biso   1.000  C
  H9       1.0000 0.77590  0.58730  0.12380  Biso   1.000  H
  H10      1.0000 0.22410  0.58730  0.37620  Biso   1.000  H
  H11      1.0000 0.27590  0.08730  0.12380  Biso   1.000  H
  H12      1.0000 0.72410  0.08730  0.37620  Biso   1.000  H
  H13      1.0000 0.22410  0.41270  0.87620  Biso   1.000  H
  H14      1.0000 0.77590  0.41270  0.62380  Biso   1.000  H
  H15      1.0000 0.72410  0.91270  0.87620  Biso   1.000  H
  H16      1.0000 0.27590  0.91270  0.62380  Biso   1.000  H
  C25      1.0000 0.03630  0.74580  0.27180  Biso   1.000  C
  C26      1.0000 0.96370  0.74580  0.22820  Biso   1.000  C
  C27      1.0000 0.53630  0.24580  0.27180  Biso   1.000  C
  C28      1.0000 0.46370  0.24580  0.22820  Biso   1.000  C
  C29      1.0000 0.96370  0.25420  0.72820  Biso   1.000  C
  C30      1.0000 0.03630  0.25420  0.77180  Biso   1.000  C
  C31      1.0000 0.46370  0.75420  0.72820  Biso   1.000  C
  C32      1.0000 0.53630  0.75420  0.77180  Biso   1.000  C
  N9       1.0000 0.71910  0.47760  0.15230  Biso   1.000  N
  N10      1.0000 0.28090  0.47760  0.34770  Biso   1.000  N
  N11      1.0000 0.21910  0.97760  0.15230  Biso   1.000  N
  N12      1.0000 0.78090  0.97760  0.34770  Biso   1.000  N
  N13      1.0000 0.28090  0.52240  0.84770  Biso   1.000  N
  N14      1.0000 0.71910  0.52240  0.65230  Biso   1.000  N
  N15      1.0000 0.78090  0.02240  0.84770  Biso   1.000  N
  N16      1.0000 0.21910  0.02240  0.65230  Biso   1.000  N
  O17      1.0000 0.05850  0.76190  0.21910  Biso   1.000  O
  O18      1.0000 0.94150  0.76190  0.28090  Biso   1.000  O
  O19      1.0000 0.55850  0.26190  0.21910  Biso   1.000  O
  O20      1.0000 0.44150  0.26190  0.28090  Biso   1.000  O
  O21      1.0000 0.94150  0.23810  0.78090  Biso   1.000  O
  O22      1.0000 0.05850  0.23810  0.71910  Biso   1.000  O
  O23      1.0000 0.44150  0.73810  0.78090  Biso   1.000  O
  O24      1.0000 0.55850  0.73810  0.71910  Biso   1.000  O
  C33      1.0000 0.82110  0.49080  0.32810  Biso   1.000  C
  C34      1.0000 0.17890  0.49080  0.17190  Biso   1.000  C
  C35      1.0000 0.32110  0.99080  0.32810  Biso   1.000  C
  C36      1.0000 0.67890  0.99080  0.17190  Biso   1.000  C
  C37      1.0000 0.17890  0.50920  0.67190  Biso   1.000  C
  C38      1.0000 0.82110  0.50920  0.82810  Biso   1.000  C
  C39      1.0000 0.67890  0.00920  0.67190  Biso   1.000  C
  C40      1.0000 0.32110  0.00920  0.82810  Biso   1.000  C
  C41      1.0000 0.08000  0.86070  0.75160  Biso   1.000  C
  C42      1.0000 0.92000  0.86070  0.74840  Biso   1.000  C
  C43      1.0000 0.58000  0.36070  0.75160  Biso   1.000  C
  C44      1.0000 0.42000  0.36070  0.74840  Biso   1.000  C
  C45      1.0000 0.92000  0.13930  0.24840  Biso   1.000  C
  C46      1.0000 0.08000  0.13930  0.25160  Biso   1.000  C
  C47      1.0000 0.42000  0.63930  0.24840  Biso   1.000  C
  C48      1.0000 0.58000  0.63930  0.25160  Biso   1.000  C
  H17      1.0000 0.06760  0.91560  0.70000  Biso   1.000  H
  H18      1.0000 0.93240  0.91560  0.80000  Biso   1.000  H
  H19      1.0000 0.56760  0.41560  0.70000  Biso   1.000  H
  H20      1.0000 0.43240  0.41560  0.80000  Biso   1.000  H
  H21      1.0000 0.93240  0.08440  0.30000  Biso   1.000  H
  H22      1.0000 0.06760  0.08440  0.20000  Biso   1.000  H
  H23      1.0000 0.43240  0.58440  0.30000  Biso   1.000  H
  H24      1.0000 0.56760  0.58440  0.20000  Biso   1.000  H
  C49      1.0000 0.08980  0.63930  0.82310  Biso   1.000  C
  C50      1.0000 0.91020  0.63930  0.67690  Biso   1.000  C
  C51      1.0000 0.58980  0.13930  0.82310  Biso   1.000  C
  C52      1.0000 0.41020  0.13930  0.67690  Biso   1.000  C
  C53      1.0000 0.91020  0.36070  0.17690  Biso   1.000  C
  C54      1.0000 0.08980  0.36070  0.32310  Biso   1.000  C
  C55      1.0000 0.41020  0.86070  0.17690  Biso   1.000  C
  C56      1.0000 0.58980  0.86070  0.32310  Biso   1.000  C
  H25      1.0000 0.08450  0.54060  0.82190  Biso   1.000  H
  H26      1.0000 0.91550  0.54060  0.67810  Biso   1.000  H
  H27      1.0000 0.58450  0.04060  0.82190  Biso   1.000  H
  H28      1.0000 0.41550  0.04060  0.67810  Biso   1.000  H
  H29      1.0000 0.91550  0.45940  0.17810  Biso   1.000  H
  H30      1.0000 0.08450  0.45940  0.32190  Biso   1.000  H
  H31      1.0000 0.41550  0.95940  0.17810  Biso   1.000  H
  H32      1.0000 0.58450  0.95940  0.32190  Biso   1.000  H
  C57      1.0000 0.10890  0.92540  0.83500  Biso   1.000  C
  C58      1.0000 0.89110  0.92540  0.66500  Biso   1.000  C
  C59      1.0000 0.60890  0.42540  0.83500  Biso   1.000  C
  C60      1.0000 0.39110  0.42540  0.66500  Biso   1.000  C
  C61      1.0000 0.89110  0.07460  0.16500  Biso   1.000  C
  C62      1.0000 0.10890  0.07460  0.33500  Biso   1.000  C
  C63      1.0000 0.39110  0.57460  0.16500  Biso   1.000  C
  C64      1.0000 0.60890  0.57460  0.33500  Biso   1.000  C
  H33      1.0000 0.11600  0.02350  0.83820  Biso   1.000  H
  H34      1.0000 0.88400  0.02350  0.66180  Biso   1.000  H
  H35      1.0000 0.61600  0.52350  0.83820  Biso   1.000  H
  H36      1.0000 0.38400  0.52350  0.66180  Biso   1.000  H
  H37      1.0000 0.88400  0.97650  0.16180  Biso   1.000  H
  H38      1.0000 0.11600  0.97650  0.33820  Biso   1.000  H
  H39      1.0000 0.38400  0.47650  0.16180  Biso   1.000  H
  H40      1.0000 0.61600  0.47650  0.33820  Biso   1.000  H
  C65      1.0000 0.76520  0.42450  0.31000  Biso   1.000  C
  C66      1.0000 0.23480  0.42450  0.19000  Biso   1.000  C
  C67      1.0000 0.26520  0.92450  0.31000  Biso   1.000  C
  C68      1.0000 0.73480  0.92450  0.19000  Biso   1.000  C
  C69      1.0000 0.23480  0.57550  0.69000  Biso   1.000  C
  C70      1.0000 0.76520  0.57550  0.81000  Biso   1.000  C
  C71      1.0000 0.73480  0.07550  0.69000  Biso   1.000  C
  C72      1.0000 0.26520  0.07550  0.81000  Biso   1.000  C
  H41      1.0000 0.76090  0.38200  0.35620  Biso   1.000  H
  H42      1.0000 0.23910  0.38200  0.14380  Biso   1.000  H
  H43      1.0000 0.26090  0.88200  0.35620  Biso   1.000  H
  H44      1.0000 0.73910  0.88200  0.14380  Biso   1.000  H
  H45      1.0000 0.23910  0.61800  0.64380  Biso   1.000  H
  H46      1.0000 0.76090  0.61800  0.85620  Biso   1.000  H
  H47      1.0000 0.73910  0.11800  0.64380  Biso   1.000  H
  H48      1.0000 0.26090  0.11800  0.85620  Biso   1.000  H
  C73      1.0000 0.82370  0.55570  0.25700  Biso   1.000  C
  C74      1.0000 0.17630  0.55570  0.24300  Biso   1.000  C
  C75      1.0000 0.32370  0.05570  0.25700  Biso   1.000  C
  C76      1.0000 0.67630  0.05570  0.24300  Biso   1.000  C
  C77      1.0000 0.17630  0.44430  0.74300  Biso   1.000  C
  C78      1.0000 0.82370  0.44430  0.75700  Biso   1.000  C
  C79      1.0000 0.67630  0.94430  0.74300  Biso   1.000  C
  C80      1.0000 0.32370  0.94430  0.75700  Biso   1.000  C
  H49      1.0000 0.85960  0.60630  0.26710  Biso   1.000  H
  H50      1.0000 0.14040  0.60630  0.23290  Biso   1.000  H
  H51      1.0000 0.35960  0.10630  0.26710  Biso   1.000  H
  H52      1.0000 0.64040  0.10630  0.23290  Biso   1.000  H
  H53      1.0000 0.14040  0.39370  0.73290  Biso   1.000  H
  H54      1.0000 0.85960  0.39370  0.76710  Biso   1.000  H
  H55      1.0000 0.64040  0.89370  0.73290  Biso   1.000  H
  H56      1.0000 0.35960  0.89370  0.76710  Biso   1.000  H
  C81      1.0000 0.71540  0.42220  0.22170  Biso   1.000  C
  C82      1.0000 0.28460  0.42220  0.27830  Biso   1.000  C
  C83      1.0000 0.21540  0.92220  0.22170  Biso   1.000  C
  C84      1.0000 0.78460  0.92220  0.27830  Biso   1.000  C
  C85      1.0000 0.28460  0.57780  0.77830  Biso   1.000  C
  C86      1.0000 0.71540  0.57780  0.72170  Biso   1.000  C
  C87      1.0000 0.78460  0.07780  0.77830  Biso   1.000  C
  C88      1.0000 0.21540  0.07780  0.72170  Biso   1.000  C
  H57      1.0000 0.67750  0.37960  0.21050  Biso   1.000  H
  H58      1.0000 0.32250  0.37960  0.28950  Biso   1.000  H
  H59      1.0000 0.17750  0.87960  0.21050  Biso   1.000  H
  H60      1.0000 0.82250  0.87960  0.28950  Biso   1.000  H
  H61      1.0000 0.32250  0.62040  0.78950  Biso   1.000  H
  H62      1.0000 0.67750  0.62040  0.71050  Biso   1.000  H
  H63      1.0000 0.82250  0.12040  0.78950  Biso   1.000  H
  H64      1.0000 0.17750  0.12040  0.71050  Biso   1.000  H
  O25      1.0000 0.03170  0.71180  0.58690  Biso   1.000  O
  O26      1.0000 0.96830  0.71180  0.91310  Biso   1.000  O
  O27      1.0000 0.53170  0.21180  0.58690  Biso   1.000  O
  O28      1.0000 0.46830  0.21180  0.91310  Biso   1.000  O
  O29      1.0000 0.96830  0.28820  0.41310  Biso   1.000  O
  O30      1.0000 0.03170  0.28820  0.08690  Biso   1.000  O
  O31      1.0000 0.46830  0.78820  0.41310  Biso   1.000  O
  O32      1.0000 0.53170  0.78820  0.08690  Biso   1.000  O
  O33      1.0000 0.01472  0.51840  0.65010  Biso   1.000  O
  O34      1.0000 0.98528  0.51840  0.84990  Biso   1.000  O
  O35      1.0000 0.51472  0.01840  0.65010  Biso   1.000  O
  O36      1.0000 0.48528  0.01840  0.84990  Biso   1.000  O
  O37      1.0000 0.98528  0.48160  0.34990  Biso   1.000  O
  O38      1.0000 0.01472  0.48160  0.15010  Biso   1.000  O
  O39      1.0000 0.48528  0.98160  0.34990  Biso   1.000  O
  O40      1.0000 0.51472  0.98160  0.15010  Biso   1.000  O
  C89      1.0000 0.03570  0.64290  0.65290  Biso   1.000  C
  C90      1.0000 0.96430  0.64290  0.84710  Biso   1.000  C
  C91      1.0000 0.53570  0.14290  0.65290  Biso   1.000  C
  C92      1.0000 0.46430  0.14290  0.84710  Biso   1.000  C
  C93      1.0000 0.96430  0.35710  0.34710  Biso   1.000  C
  C94      1.0000 0.03570  0.35710  0.15290  Biso   1.000  C
  C95      1.0000 0.46430  0.85710  0.34710  Biso   1.000  C
  C96      1.0000 0.53570  0.85710  0.15290  Biso   1.000  C
  C97      1.0000 0.96480  0.98740  0.48650  Biso   1.000  C
  C98      1.0000 0.03520  0.98740  0.01350  Biso   1.000  C
  C99      1.0000 0.46480  0.48740  0.48650  Biso   1.000  C
  C100     1.0000 0.53520  0.48740  0.01350  Biso   1.000  C
  C101     1.0000 0.03520  0.01260  0.51350  Biso   1.000  C
  C102     1.0000 0.96480  0.01260  0.98650  Biso   1.000  C
  C103     1.0000 0.53520  0.51260  0.51350  Biso   1.000  C
  C104     1.0000 0.46480  0.51260  0.98650  Biso   1.000  C
  O41      1.0000 0.92195  0.57890  0.43420  Biso   1.000  O
  O42      1.0000 0.07805  0.57890  0.06580  Biso   1.000  O
  O43      1.0000 0.42195  0.07890  0.43420  Biso   1.000  O
  O44      1.0000 0.57805  0.07890  0.06580  Biso   1.000  O
  O45      1.0000 0.07805  0.42110  0.56580  Biso   1.000  O
  O46      1.0000 0.92195  0.42110  0.93420  Biso   1.000  O
  O47      1.0000 0.57805  0.92110  0.56580  Biso   1.000  O
  O48      1.0000 0.42195  0.92110  0.93420  Biso   1.000  O
  C105     1.0000 0.88010  0.48860  0.41950  Biso   1.000  C
  C106     1.0000 0.11990  0.48860  0.08050  Biso   1.000  C
  C107     1.0000 0.38010  0.98860  0.41950  Biso   1.000  C
  C108     1.0000 0.61990  0.98860  0.08050  Biso   1.000  C
  C109     1.0000 0.11990  0.51140  0.58050  Biso   1.000  C
  C110     1.0000 0.88010  0.51140  0.91950  Biso   1.000  C
  C111     1.0000 0.61990  0.01140  0.58050  Biso   1.000  C
  C112     1.0000 0.38010  0.01140  0.91950  Biso   1.000  C
  O49      1.0000 0.88542  0.39290  0.47460  Biso   1.000  O
  O50      1.0000 0.11458  0.39290  0.02540  Biso   1.000  O
  O51      1.0000 0.38542  0.89290  0.47460  Biso   1.000  O
  O52      1.0000 0.61458  0.89290  0.02540  Biso   1.000  O
  O53      1.0000 0.11458  0.60710  0.52540  Biso   1.000  O
  O54      1.0000 0.88542  0.60710  0.97460  Biso   1.000  O
  O55      1.0000 0.61458  0.10710  0.52540  Biso   1.000  O
  O56      1.0000 0.38542  0.10710  0.97460  Biso   1.000  O
  O57      1.0000 0.19050  0.19280  0.97510  Biso   1.000  O
  O58      1.0000 0.80950  0.19280  0.52490  Biso   1.000  O
  O59      1.0000 0.69050  0.69280  0.97510  Biso   1.000  O
  O60      1.0000 0.30950  0.69280  0.52490  Biso   1.000  O
  O61      1.0000 0.80950  0.80720  0.02490  Biso   1.000  O
  O62      1.0000 0.19050  0.80720  0.47510  Biso   1.000  O
  O63      1.0000 0.30950  0.30720  0.02490  Biso   1.000  O
  O64      1.0000 0.69050  0.30720  0.47510  Biso   1.000  O
  O65      1.0000 0.93954  0.07770  0.51380  Biso   1.000  O
  O66      1.0000 0.06046  0.07770  0.98620  Biso   1.000  O
  O67      1.0000 0.43954  0.57770  0.51380  Biso   1.000  O
  O68      1.0000 0.56046  0.57770  0.98620  Biso   1.000  O
  O69      1.0000 0.06046  0.92230  0.48620  Biso   1.000  O
  O70      1.0000 0.93954  0.92230  0.01380  Biso   1.000  O
  O71      1.0000 0.56046  0.42230  0.48620  Biso   1.000  O
  O72      1.0000 0.43954  0.42230  0.01380  Biso   1.000  O
