data_image0
_cell_length_a       13.343
_cell_length_b       13.429
_cell_length_c       20.694
_cell_angle_alpha    103.163
_cell_angle_beta     96.704
_cell_angle_gamma    101.981

_symmetry_space_group_name_H-M    "P 1"
_symmetry_int_tables_number       1

loop_
  _symmetry_equiv_pos_as_xyz
  'x, y, z'

loop_
  _atom_site_label
  _atom_site_occupancy
  _atom_site_fract_x
  _atom_site_fract_y
  _atom_site_fract_z
  _atom_site_thermal_displace_type
  _atom_site_B_iso_or_equiv
  _atom_site_type_symbol
  Cu1      1.0000 0.17134  0.46763  0.47172  Biso   1.000  Cu
  Cu2      1.0000 0.82866  0.53237  0.52828  Biso   1.000  Cu
  Cu3      1.0000 0.34693  0.69596  0.69510  Biso   1.000  Cu
  Cu4      1.0000 0.65307  0.30404  0.30490  Biso   1.000  Cu
  Cu5      1.0000 0.52892  0.99796  0.88133  Biso   1.000  Cu
  Cu6      1.0000 0.47108  0.00204  0.11867  Biso   1.000  Cu
  P1       1.0000 0.21457  0.54897  0.39097  Biso   1.000  P
  P2       1.0000 0.78543  0.45103  0.60903  Biso   1.000  P
  P3       1.0000 0.16282  0.29299  0.45370  Biso   1.000  P
  P4       1.0000 0.83718  0.70701  0.54630  Biso   1.000  P
  P5       1.0000 0.47545  0.13444  0.85018  Biso   1.000  P
  P6       1.0000 0.52455  0.86556  0.14982  Biso   1.000  P
  P7       1.0000 0.70298  0.01104  0.88188  Biso   1.000  P
  P8       1.0000 0.29702  0.98896  0.11812  Biso   1.000  P
  N1       1.0000 0.26160  0.55690  0.55840  Biso   1.000  N
  N2       1.0000 0.73840  0.44310  0.44160  Biso   1.000  N
  N3       1.0000 0.03680  0.49030  0.49112  Biso   1.000  N
  N4       1.0000 0.96320  0.50970  0.50888  Biso   1.000  N
  N5       1.0000 0.50560  0.00020  0.97298  Biso   1.000  N
  N6       1.0000 0.49440  0.99980  0.02702  Biso   1.000  N
  N7       1.0000 0.45040  0.86110  0.81650  Biso   1.000  N
  N8       1.0000 0.54960  0.13890  0.18350  Biso   1.000  N
  C1       1.0000 0.29280  0.61010  0.61150  Biso   1.000  C
  C2       1.0000 0.70720  0.38990  0.38850  Biso   1.000  C
  C3       1.0000 0.40660  0.78960  0.77370  Biso   1.000  C
  C4       1.0000 0.59340  0.21040  0.22630  Biso   1.000  C
  C5       1.0000 0.11630  0.51780  0.31550  Biso   1.000  C
  C6       1.0000 0.88370  0.48220  0.68450  Biso   1.000  C
  C7       1.0000 0.03460  0.43270  0.30540  Biso   1.000  C
  C8       1.0000 0.96540  0.56730  0.69460  Biso   1.000  C
  H1       1.0000 0.03270  0.38980  0.33620  Biso   1.000  H
  H2       1.0000 0.96730  0.61020  0.66380  Biso   1.000  H
  C9       1.0000 0.95390  0.40740  0.25090  Biso   1.000  C
  C10      1.0000 0.04610  0.59260  0.74910  Biso   1.000  C
  H3       1.0000 0.89660  0.34900  0.24540  Biso   1.000  H
  H4       1.0000 0.10340  0.65100  0.75460  Biso   1.000  H
  C11      1.0000 0.95730  0.46620  0.20590  Biso   1.000  C
  C12      1.0000 0.04270  0.53380  0.79410  Biso   1.000  C
  H5       1.0000 0.90310  0.44870  0.16820  Biso   1.000  H
  H6       1.0000 0.09690  0.55130  0.83180  Biso   1.000  H
  C13      1.0000 0.03910  0.55060  0.21510  Biso   1.000  C
  C14      1.0000 0.96090  0.44940  0.78490  Biso   1.000  C
  H7       1.0000 0.04150  0.59180  0.18330  Biso   1.000  H
  H8       1.0000 0.95850  0.40820  0.81670  Biso   1.000  H
  C15      1.0000 0.11800  0.57760  0.26940  Biso   1.000  C
  C16      1.0000 0.88200  0.42240  0.73060  Biso   1.000  C
  H9       1.0000 0.17390  0.63750  0.27520  Biso   1.000  H
  H10      1.0000 0.82610  0.36250  0.72480  Biso   1.000  H
  C17      1.0000 0.23200  0.69170  0.42171  Biso   1.000  C
  C18      1.0000 0.76800  0.30830  0.57829  Biso   1.000  C
  C19      1.0000 0.14980  0.72720  0.44470  Biso   1.000  C
  C20      1.0000 0.85020  0.27280  0.55530  Biso   1.000  C
  H11      1.0000 0.08650  0.67790  0.44290  Biso   1.000  H
  H12      1.0000 0.91350  0.32210  0.55710  Biso   1.000  H
  C21      1.0000 0.15760  0.83250  0.47010  Biso   1.000  C
  C22      1.0000 0.84240  0.16750  0.52990  Biso   1.000  C
  H13      1.0000 0.09970  0.85540  0.48530  Biso   1.000  H
  H14      1.0000 0.90030  0.14460  0.51470  Biso   1.000  H
  C23      1.0000 0.24820  0.90490  0.47380  Biso   1.000  C
  C24      1.0000 0.75180  0.09510  0.52620  Biso   1.000  C
  H15      1.0000 0.25370  0.97790  0.49160  Biso   1.000  H
  H16      1.0000 0.74630  0.02210  0.50840  Biso   1.000  H
  C25      1.0000 0.33020  0.87120  0.45180  Biso   1.000  C
  C26      1.0000 0.66980  0.12880  0.54820  Biso   1.000  C
  H17      1.0000 0.39360  0.92090  0.45460  Biso   1.000  H
  H18      1.0000 0.60640  0.07910  0.54540  Biso   1.000  H
  C27      1.0000 0.32230  0.76440  0.42510  Biso   1.000  C
  C28      1.0000 0.67770  0.23560  0.57490  Biso   1.000  C
  H19      1.0000 0.37990  0.74190  0.40920  Biso   1.000  H
  H20      1.0000 0.62010  0.25810  0.59080  Biso   1.000  H
  C29      1.0000 0.33520  0.53550  0.36170  Biso   1.000  C
  C30      1.0000 0.66480  0.46450  0.63830  Biso   1.000  C
  C31      1.0000 0.34740  0.51030  0.29500  Biso   1.000  C
  C32      1.0000 0.65260  0.48970  0.70500  Biso   1.000  C
  H21      1.0000 0.29060  0.50140  0.26020  Biso   1.000  H
  H22      1.0000 0.70940  0.49860  0.73980  Biso   1.000  H
  C33      1.0000 0.44370  0.49790  0.27890  Biso   1.000  C
  C34      1.0000 0.55630  0.50210  0.72110  Biso   1.000  C
  H23      1.0000 0.45160  0.47900  0.23300  Biso   1.000  H
  H24      1.0000 0.54840  0.52100  0.76700  Biso   1.000  H
  C35      1.0000 0.52610  0.51240  0.32800  Biso   1.000  C
  C36      1.0000 0.47390  0.48760  0.67200  Biso   1.000  C
  H25      1.0000 0.59150  0.50520  0.31640  Biso   1.000  H
  H26      1.0000 0.40850  0.49480  0.68360  Biso   1.000  H
  C37      1.0000 0.51550  0.53700  0.39320  Biso   1.000  C
  C38      1.0000 0.48450  0.46300  0.60680  Biso   1.000  C
  H27      1.0000 0.57330  0.54700  0.42750  Biso   1.000  H
  H28      1.0000 0.42670  0.45300  0.57250  Biso   1.000  H
  C39      1.0000 0.42110  0.54780  0.41040  Biso   1.000  C
  C40      1.0000 0.57890  0.45220  0.58960  Biso   1.000  C
  H29      1.0000 0.41450  0.56410  0.45660  Biso   1.000  H
  H30      1.0000 0.58550  0.43590  0.54340  Biso   1.000  H
  C41      1.0000 0.05500  0.20610  0.38887  Biso   1.000  C
  C42      1.0000 0.94500  0.79390  0.61113  Biso   1.000  C
  C43      1.0000 0.06510  0.12320  0.33870  Biso   1.000  C
  C44      1.0000 0.93490  0.87680  0.66130  Biso   1.000  C
  H31      1.0000 0.13080  0.10670  0.33720  Biso   1.000  H
  H32      1.0000 0.86920  0.89330  0.66280  Biso   1.000  H
  C45      1.0000 0.97960  0.06380  0.29050  Biso   1.000  C
  C46      1.0000 0.02040  0.93620  0.70950  Biso   1.000  C
  H33      1.0000 0.98760  0.00750  0.25580  Biso   1.000  H
  H34      1.0000 0.01240  0.99250  0.74420  Biso   1.000  H
  C47      1.0000 0.88530  0.08500  0.29230  Biso   1.000  C
  C48      1.0000 0.11470  0.91500  0.70770  Biso   1.000  C
  H35      1.0000 0.82760  0.04460  0.25860  Biso   1.000  H
  H36      1.0000 0.17240  0.95540  0.74140  Biso   1.000  H
  C49      1.0000 0.87290  0.16560  0.34340  Biso   1.000  C
  C50      1.0000 0.12710  0.83440  0.65660  Biso   1.000  C
  H37      1.0000 0.80600  0.17870  0.34610  Biso   1.000  H
  H38      1.0000 0.19400  0.82130  0.65390  Biso   1.000  H
  C51      1.0000 0.95820  0.22720  0.39060  Biso   1.000  C
  C52      1.0000 0.04180  0.77280  0.60940  Biso   1.000  C
  H39      1.0000 0.95020  0.28460  0.42450  Biso   1.000  H
  H40      1.0000 0.04980  0.71540  0.57550  Biso   1.000  H
  C53      1.0000 0.14390  0.24130  0.52680  Biso   1.000  C
  C54      1.0000 0.85610  0.75870  0.47320  Biso   1.000  C
  C55      1.0000 0.15360  0.31160  0.58830  Biso   1.000  C
  C56      1.0000 0.84640  0.68840  0.41170  Biso   1.000  C
  H41      1.0000 0.16890  0.38510  0.59170  Biso   1.000  H
  H42      1.0000 0.83110  0.61490  0.40830  Biso   1.000  H
  C57      1.0000 0.14120  0.27630  0.64550  Biso   1.000  C
  C58      1.0000 0.85880  0.72370  0.35450  Biso   1.000  C
  H43      1.0000 0.14730  0.32520  0.68770  Biso   1.000  H
  H44      1.0000 0.85270  0.67480  0.31230  Biso   1.000  H
  C59      1.0000 0.12010  0.17010  0.64070  Biso   1.000  C
  C60      1.0000 0.87990  0.82990  0.35930  Biso   1.000  C
  H45      1.0000 0.11250  0.14560  0.67990  Biso   1.000  H
  H46      1.0000 0.88750  0.85440  0.32010  Biso   1.000  H
  C61      1.0000 0.11000  0.10020  0.58040  Biso   1.000  C
  C62      1.0000 0.89000  0.89980  0.41960  Biso   1.000  C
  H47      1.0000 0.09550  0.02680  0.57750  Biso   1.000  H
  H48      1.0000 0.90450  0.97320  0.42250  Biso   1.000  H
  C63      1.0000 0.12070  0.13500  0.52330  Biso   1.000  C
  C64      1.0000 0.87930  0.86500  0.47670  Biso   1.000  C
  H49      1.0000 0.11200  0.08520  0.48100  Biso   1.000  H
  H50      1.0000 0.88800  0.91480  0.51900  Biso   1.000  H
  C65      1.0000 0.27710  0.25350  0.42797  Biso   1.000  C
  C66      1.0000 0.72290  0.74650  0.57203  Biso   1.000  C
  C67      1.0000 0.30460  0.26840  0.36760  Biso   1.000  C
  C68      1.0000 0.69540  0.73160  0.63240  Biso   1.000  C
  H51      1.0000 0.26130  0.29580  0.34000  Biso   1.000  H
  H52      1.0000 0.73870  0.70420  0.66000  Biso   1.000  H
  C69      1.0000 0.39250  0.24460  0.34680  Biso   1.000  C
  C70      1.0000 0.60750  0.75540  0.65320  Biso   1.000  C
  H53      1.0000 0.40840  0.25370  0.30460  Biso   1.000  H
  H54      1.0000 0.59160  0.74630  0.69540  Biso   1.000  H
  C71      1.0000 0.45750  0.20770  0.38670  Biso   1.000  C
  C72      1.0000 0.54250  0.79230  0.61330  Biso   1.000  C
  H55      1.0000 0.51900  0.19190  0.37250  Biso   1.000  H
  H56      1.0000 0.48100  0.80810  0.62750  Biso   1.000  H
  C73      1.0000 0.43340  0.19380  0.44650  Biso   1.000  C
  C74      1.0000 0.56660  0.80620  0.55350  Biso   1.000  C
  H57      1.0000 0.47870  0.16890  0.47440  Biso   1.000  H
  H58      1.0000 0.52130  0.83110  0.52560  Biso   1.000  H
  C75      1.0000 0.34310  0.21580  0.46740  Biso   1.000  C
  C76      1.0000 0.65690  0.78420  0.53260  Biso   1.000  C
  H59      1.0000 0.32680  0.20480  0.50910  Biso   1.000  H
  H60      1.0000 0.67320  0.79520  0.49090  Biso   1.000  H
  C77      1.0000 0.45810  0.13070  0.76060  Biso   1.000  C
  C78      1.0000 0.54190  0.86930  0.23940  Biso   1.000  C
  C79      1.0000 0.42090  0.03290  0.71530  Biso   1.000  C
  C80      1.0000 0.57910  0.96710  0.28470  Biso   1.000  C
  H61      1.0000 0.40970  0.97140  0.73150  Biso   1.000  H
  H62      1.0000 0.59030  0.02860  0.26850  Biso   1.000  H
  C81      1.0000 0.39940  0.02270  0.64630  Biso   1.000  C
  C82      1.0000 0.60060  0.97730  0.35370  Biso   1.000  C
  H63      1.0000 0.37420  0.95490  0.61580  Biso   1.000  H
  H64      1.0000 0.62580  0.04510  0.38420  Biso   1.000  H
  C83      1.0000 0.41440  0.10990  0.62310  Biso   1.000  C
  C84      1.0000 0.58560  0.89010  0.37690  Biso   1.000  C
  H65      1.0000 0.39880  0.10300  0.57610  Biso   1.000  H
  H66      1.0000 0.60120  0.89700  0.42390  Biso   1.000  H
  C85      1.0000 0.45120  0.20630  0.66560  Biso   1.000  C
  C86      1.0000 0.54880  0.79370  0.33440  Biso   1.000  C
  H67      1.0000 0.46250  0.26670  0.64840  Biso   1.000  H
  H68      1.0000 0.53750  0.73330  0.35160  Biso   1.000  H
  C87      1.0000 0.47280  0.21790  0.73450  Biso   1.000  C
  C88      1.0000 0.52720  0.78210  0.26550  Biso   1.000  C
  H69      1.0000 0.49790  0.28640  0.76420  Biso   1.000  H
  H70      1.0000 0.50210  0.71360  0.23580  Biso   1.000  H
  C89      1.0000 0.34820  0.15010  0.86790  Biso   1.000  C
  C90      1.0000 0.65180  0.84990  0.13210  Biso   1.000  C
  C91      1.0000 0.29130  0.08020  0.89470  Biso   1.000  C
  C92      1.0000 0.70870  0.91980  0.10530  Biso   1.000  C
  H71      1.0000 0.31890  0.02500  0.90530  Biso   1.000  H
  H72      1.0000 0.68110  0.97500  0.09470  Biso   1.000  H
  C93      1.0000 0.19230  0.08740  0.90720  Biso   1.000  C
  C94      1.0000 0.80770  0.91260  0.09280  Biso   1.000  C
  H73      1.0000 0.15250  0.03690  0.92560  Biso   1.000  H
  H74      1.0000 0.84750  0.96310  0.07440  Biso   1.000  H
  C95      1.0000 0.15320  0.16660  0.89290  Biso   1.000  C
  C96      1.0000 0.84680  0.83340  0.10710  Biso   1.000  C
  H75      1.0000 0.08740  0.17420  0.90370  Biso   1.000  H
  H76      1.0000 0.91260  0.82580  0.09630  Biso   1.000  H
  C97      1.0000 0.20700  0.23430  0.86360  Biso   1.000  C
  C98      1.0000 0.79300  0.76570  0.13640  Biso   1.000  C
  H77      1.0000 0.17750  0.28720  0.85120  Biso   1.000  H
  H78      1.0000 0.82250  0.71280  0.14880  Biso   1.000  H
  C99      1.0000 0.30460  0.22780  0.85150  Biso   1.000  C
  C100     1.0000 0.69540  0.77220  0.14850  Biso   1.000  C
  H79      1.0000 0.34260  0.27730  0.83160  Biso   1.000  H
  H80      1.0000 0.65740  0.72270  0.16840  Biso   1.000  H
  C101     1.0000 0.56100  0.26260  0.89170  Biso   1.000  C
  C102     1.0000 0.43900  0.73740  0.10830  Biso   1.000  C
  C103     1.0000 0.54330  0.32220  0.94990  Biso   1.000  C
  C104     1.0000 0.45670  0.67780  0.05010  Biso   1.000  C
  H81      1.0000 0.48080  0.30020  0.96610  Biso   1.000  H
  H82      1.0000 0.51920  0.69980  0.03390  Biso   1.000  H
  C105     1.0000 0.61520  0.41520  0.98650  Biso   1.000  C
  C106     1.0000 0.38480  0.58480  0.01350  Biso   1.000  C
  H83      1.0000 0.60290  0.45470  0.02780  Biso   1.000  H
  H84      1.0000 0.39710  0.54530  0.97220  Biso   1.000  H
  C107     1.0000 0.70180  0.44790  0.96230  Biso   1.000  C
  C108     1.0000 0.29820  0.55210  0.03770  Biso   1.000  C
  H85      1.0000 0.74780  0.51390  0.98520  Biso   1.000  H
  H86      1.0000 0.25220  0.48610  0.01480  Biso   1.000  H
  C109     1.0000 0.72520  0.38990  0.90670  Biso   1.000  C
  C110     1.0000 0.27480  0.61010  0.09330  Biso   1.000  C
  H87      1.0000 0.78950  0.41200  0.89250  Biso   1.000  H
  H88      1.0000 0.21050  0.58800  0.10750  Biso   1.000  H
  C111     1.0000 0.65290  0.29560  0.86940  Biso   1.000  C
  C112     1.0000 0.34710  0.70440  0.13060  Biso   1.000  C
  H89      1.0000 0.66750  0.25510  0.82920  Biso   1.000  H
  H90      1.0000 0.33250  0.74490  0.17080  Biso   1.000  H
  C113     1.0000 0.75660  0.05990  0.81560  Biso   1.000  C
  C114     1.0000 0.24340  0.94010  0.18440  Biso   1.000  C
  C115     1.0000 0.84980  0.13270  0.82420  Biso   1.000  C
  C116     1.0000 0.15020  0.86730  0.17580  Biso   1.000  C
  H91      1.0000 0.89060  0.16120  0.86790  Biso   1.000  H
  H92      1.0000 0.10940  0.83880  0.13210  Biso   1.000  H
  C117     1.0000 0.88520  0.16500  0.76980  Biso   1.000  C
  C118     1.0000 0.11480  0.83500  0.23020  Biso   1.000  C
  H93      1.0000 0.95010  0.21450  0.77630  Biso   1.000  H
  H94      1.0000 0.04990  0.78550  0.22370  Biso   1.000  H
  C119     1.0000 0.82600  0.12500  0.70720  Biso   1.000  C
  C120     1.0000 0.17400  0.87500  0.29280  Biso   1.000  C
  H95      1.0000 0.84920  0.14750  0.67000  Biso   1.000  H
  H96      1.0000 0.15080  0.85250  0.33000  Biso   1.000  H
  C121     1.0000 0.73430  0.05350  0.69790  Biso   1.000  C
  C122     1.0000 0.26570  0.94650  0.30210  Biso   1.000  C
  H97      1.0000 0.69390  0.02520  0.65410  Biso   1.000  H
  H98      1.0000 0.30610  0.97480  0.34590  Biso   1.000  H
  C123     1.0000 0.69930  0.02160  0.75140  Biso   1.000  C
  C124     1.0000 0.30070  0.97840  0.24860  Biso   1.000  C
  H99      1.0000 0.63420  0.97210  0.74420  Biso   1.000  H
  H100     1.0000 0.36580  0.02790  0.25580  Biso   1.000  H
  C125     1.0000 0.73600  0.88330  0.87100  Biso   1.000  C
  C126     1.0000 0.26400  0.11670  0.12900  Biso   1.000  C
  C127     1.0000 0.69430  0.81970  0.90920  Biso   1.000  C
  C128     1.0000 0.30570  0.18030  0.09080  Biso   1.000  C
  H101     1.0000 0.64860  0.84150  0.93840  Biso   1.000  H
  H102     1.0000 0.35140  0.15850  0.06160  Biso   1.000  H
  C129     1.0000 0.71900  0.72350  0.90500  Biso   1.000  C
  C130     1.0000 0.28100  0.27650  0.09500  Biso   1.000  C
  H103     1.0000 0.69250  0.68150  0.93330  Biso   1.000  H
  H104     1.0000 0.30750  0.31850  0.06670  Biso   1.000  H
  C131     1.0000 0.77910  0.68820  0.86240  Biso   1.000  C
  C132     1.0000 0.22090  0.31180  0.13760  Biso   1.000  C
  H105     1.0000 0.79330  0.62100  0.85930  Biso   1.000  H
  H106     1.0000 0.20670  0.37900  0.14070  Biso   1.000  H
  C133     1.0000 0.81990  0.74970  0.82330  Biso   1.000  C
  C134     1.0000 0.18010  0.25030  0.17670  Biso   1.000  C
  H107     1.0000 0.86280  0.72500  0.79280  Biso   1.000  H
  H108     1.0000 0.13720  0.27500  0.20720  Biso   1.000  H
  C135     1.0000 0.79950  0.84850  0.82740  Biso   1.000  C
  C136     1.0000 0.20050  0.15150  0.17260  Biso   1.000  C
  H109     1.0000 0.82910  0.89130  0.80040  Biso   1.000  H
  H110     1.0000 0.17090  0.10870  0.19960  Biso   1.000  H
  C137     1.0000 0.79120  0.08920  0.95840  Biso   1.000  C
  C138     1.0000 0.20880  0.91080  0.04160  Biso   1.000  C
  C139     1.0000 0.75520  0.15810  0.00420  Biso   1.000  C
  C140     1.0000 0.24480  0.84190  0.99580  Biso   1.000  C
  H111     1.0000 0.68520  0.16320  0.99550  Biso   1.000  H
  H112     1.0000 0.31480  0.83680  0.00450  Biso   1.000  H
  C141     1.0000 0.82030  0.22080  0.06350  Biso   1.000  C
  C142     1.0000 0.17970  0.77920  0.93650  Biso   1.000  C
  H113     1.0000 0.79500  0.26870  0.09500  Biso   1.000  H
  H114     1.0000 0.20500  0.73130  0.90500  Biso   1.000  H
  C143     1.0000 0.92080  0.21280  0.07580  Biso   1.000  C
  C144     1.0000 0.07920  0.78720  0.92420  Biso   1.000  C
  H115     1.0000 0.96530  0.25540  0.11620  Biso   1.000  H
  H116     1.0000 0.03470  0.74460  0.88380  Biso   1.000  H
  C145     1.0000 0.95860  0.14420  0.03070  Biso   1.000  C
  C146     1.0000 0.04140  0.85580  0.96930  Biso   1.000  C
  H117     1.0000 0.02890  0.14000  0.03900  Biso   1.000  H
  H118     1.0000 0.97110  0.86000  0.96100  Biso   1.000  H
  C147     1.0000 0.89280  0.08190  0.97340  Biso   1.000  C
  C148     1.0000 0.10720  0.91810  0.02660  Biso   1.000  C
  H119     1.0000 0.91770  0.03220  0.94300  Biso   1.000  H
  H120     1.0000 0.08230  0.96780  0.05700  Biso   1.000  H
