data_image0
_cell_length_a       6.673
_cell_length_b       14.874
_cell_length_c       12.472
_cell_angle_alpha    90
_cell_angle_beta     90
_cell_angle_gamma    90

_symmetry_space_group_name_H-M    "P 1"
_symmetry_int_tables_number       1

loop_
  _symmetry_equiv_pos_as_xyz
  'x, y, z'

loop_
  _atom_site_label
  _atom_site_occupancy
  _atom_site_fract_x
  _atom_site_fract_y
  _atom_site_fract_z
  _atom_site_thermal_displace_type
  _atom_site_B_iso_or_equiv
  _atom_site_type_symbol
  Cu1      1.0000 0.26589  0.76059  0.02574  Biso   1.000  Cu
  Cu2      1.0000 0.73411  0.23941  0.52574  Biso   1.000  Cu
  Cu3      1.0000 0.23411  0.26059  0.52574  Biso   1.000  Cu
  Cu4      1.0000 0.76589  0.73941  0.02574  Biso   1.000  Cu
  O1       1.0000 0.87520  0.42580  0.57060  Biso   1.000  O
  O2       1.0000 0.12480  0.57420  0.07060  Biso   1.000  O
  O3       1.0000 0.62480  0.92580  0.07060  Biso   1.000  O
  O4       1.0000 0.37520  0.07420  0.57060  Biso   1.000  O
  O5       1.0000 0.16590  0.42710  0.47970  Biso   1.000  O
  O6       1.0000 0.83410  0.57290  0.97970  Biso   1.000  O
  O7       1.0000 0.33410  0.92710  0.97970  Biso   1.000  O
  O8       1.0000 0.66590  0.07290  0.47970  Biso   1.000  O
  N1       1.0000 0.19040  0.78330  0.17080  Biso   1.000  N
  N2       1.0000 0.80960  0.21670  0.67080  Biso   1.000  N
  N3       1.0000 0.30960  0.28330  0.67080  Biso   1.000  N
  N4       1.0000 0.69040  0.71670  0.17080  Biso   1.000  N
  N5       1.0000 0.11280  0.75570  0.33850  Biso   1.000  N
  N6       1.0000 0.88720  0.24430  0.83850  Biso   1.000  N
  N7       1.0000 0.38720  0.25570  0.83850  Biso   1.000  N
  N8       1.0000 0.61280  0.74430  0.33850  Biso   1.000  N
  N9       1.0000 0.83360  0.77400  0.88280  Biso   1.000  N
  N10      1.0000 0.16640  0.22600  0.38280  Biso   1.000  N
  N11      1.0000 0.66640  0.27400  0.38280  Biso   1.000  N
  N12      1.0000 0.33360  0.72600  0.88280  Biso   1.000  N
  N13      1.0000 0.91640  0.75230  0.71270  Biso   1.000  N
  N14      1.0000 0.08360  0.24770  0.21270  Biso   1.000  N
  N15      1.0000 0.58360  0.25230  0.21270  Biso   1.000  N
  N16      1.0000 0.41640  0.74770  0.71270  Biso   1.000  N
  C1       1.0000 0.16810  0.86350  0.22210  Biso   1.000  C
  C2       1.0000 0.83190  0.13650  0.72210  Biso   1.000  C
  C3       1.0000 0.33190  0.36350  0.72210  Biso   1.000  C
  C4       1.0000 0.66810  0.63650  0.22210  Biso   1.000  C
  H1       1.0000 0.18340  0.91980  0.19060  Biso   1.000  H
  H2       1.0000 0.81660  0.08020  0.69060  Biso   1.000  H
  H3       1.0000 0.31660  0.41980  0.69060  Biso   1.000  H
  H4       1.0000 0.68340  0.58020  0.19060  Biso   1.000  H
  C5       1.0000 0.12030  0.84850  0.32600  Biso   1.000  C
  C6       1.0000 0.87970  0.15150  0.82600  Biso   1.000  C
  C7       1.0000 0.37970  0.34850  0.82600  Biso   1.000  C
  C8       1.0000 0.62030  0.65150  0.32600  Biso   1.000  C
  H5       1.0000 0.09700  0.89160  0.37860  Biso   1.000  H
  H6       1.0000 0.90300  0.10840  0.87860  Biso   1.000  H
  H7       1.0000 0.40300  0.39160  0.87860  Biso   1.000  H
  H8       1.0000 0.59700  0.60840  0.37860  Biso   1.000  H
  C9       1.0000 0.15580  0.71950  0.24170  Biso   1.000  C
  C10      1.0000 0.84420  0.28050  0.74170  Biso   1.000  C
  C11      1.0000 0.34420  0.21950  0.74170  Biso   1.000  C
  C12      1.0000 0.65580  0.78050  0.24170  Biso   1.000  C
  H9       1.0000 0.16040  0.65820  0.22720  Biso   1.000  H
  H10      1.0000 0.83960  0.34180  0.72720  Biso   1.000  H
  H11      1.0000 0.33960  0.15820  0.72720  Biso   1.000  H
  H12      1.0000 0.66040  0.84180  0.22720  Biso   1.000  H
  C13      1.0000 0.87170  0.71280  0.80890  Biso   1.000  C
  C14      1.0000 0.12830  0.28720  0.30890  Biso   1.000  C
  C15      1.0000 0.62830  0.21280  0.30890  Biso   1.000  C
  C16      1.0000 0.37170  0.78720  0.80890  Biso   1.000  C
  H13      1.0000 0.86860  0.65110  0.82060  Biso   1.000  H
  H14      1.0000 0.13140  0.34890  0.32060  Biso   1.000  H
  H15      1.0000 0.63140  0.15110  0.32060  Biso   1.000  H
  H16      1.0000 0.36860  0.84890  0.82060  Biso   1.000  H
  C17      1.0000 0.85650  0.85610  0.83450  Biso   1.000  C
  C18      1.0000 0.14350  0.14390  0.33450  Biso   1.000  C
  C19      1.0000 0.64350  0.35610  0.33450  Biso   1.000  C
  C20      1.0000 0.35650  0.64390  0.83450  Biso   1.000  C
  H17      1.0000 0.83900  0.91130  0.86850  Biso   1.000  H
  H18      1.0000 0.16100  0.08870  0.36850  Biso   1.000  H
  H19      1.0000 0.66100  0.41130  0.36850  Biso   1.000  H
  H20      1.0000 0.33900  0.58870  0.86850  Biso   1.000  H
  C21      1.0000 0.90860  0.84530  0.72910  Biso   1.000  C
  C22      1.0000 0.09140  0.15470  0.22910  Biso   1.000  C
  C23      1.0000 0.59140  0.34530  0.22910  Biso   1.000  C
  C24      1.0000 0.40860  0.65470  0.72910  Biso   1.000  C
  H21      1.0000 0.93360  0.89020  0.67910  Biso   1.000  H
  H22      1.0000 0.06640  0.10980  0.17910  Biso   1.000  H
  H23      1.0000 0.56640  0.39020  0.17910  Biso   1.000  H
  H24      1.0000 0.43360  0.60980  0.67910  Biso   1.000  H
  C25      1.0000 0.96250  0.70590  0.61750  Biso   1.000  C
  C26      1.0000 0.03750  0.29410  0.11750  Biso   1.000  C
  C27      1.0000 0.53750  0.20590  0.11750  Biso   1.000  C
  C28      1.0000 0.46250  0.79410  0.61750  Biso   1.000  C
  C29      1.0000 0.01580  0.75410  0.52640  Biso   1.000  C
  C30      1.0000 0.98420  0.24590  0.02640  Biso   1.000  C
  C31      1.0000 0.48420  0.25410  0.02640  Biso   1.000  C
  C32      1.0000 0.51580  0.74590  0.52640  Biso   1.000  C
  H25      1.0000 0.01700  0.81660  0.52730  Biso   1.000  H
  H26      1.0000 0.98300  0.18340  0.02730  Biso   1.000  H
  H27      1.0000 0.48300  0.31660  0.02730  Biso   1.000  H
  H28      1.0000 0.51700  0.68340  0.52730  Biso   1.000  H
  C33      1.0000 0.06780  0.70700  0.43310  Biso   1.000  C
  C34      1.0000 0.93220  0.29300  0.93310  Biso   1.000  C
  C35      1.0000 0.43220  0.20700  0.93310  Biso   1.000  C
  C36      1.0000 0.56780  0.79300  0.43310  Biso   1.000  C
  C37      1.0000 0.07820  0.61280  0.43310  Biso   1.000  C
  C38      1.0000 0.92180  0.38720  0.93310  Biso   1.000  C
  C39      1.0000 0.42180  0.11280  0.93310  Biso   1.000  C
  C40      1.0000 0.57820  0.88720  0.43310  Biso   1.000  C
  H29      1.0000 0.12370  0.58190  0.37300  Biso   1.000  H
  H30      1.0000 0.87630  0.41810  0.87300  Biso   1.000  H
  H31      1.0000 0.37630  0.08190  0.87300  Biso   1.000  H
  H32      1.0000 0.62370  0.91810  0.37300  Biso   1.000  H
  C41      1.0000 0.01850  0.56590  0.52590  Biso   1.000  C
  C42      1.0000 0.98150  0.43410  0.02590  Biso   1.000  C
  C43      1.0000 0.48150  0.06590  0.02590  Biso   1.000  C
  C44      1.0000 0.51850  0.93410  0.52590  Biso   1.000  C
  C45      1.0000 0.95570  0.61210  0.61450  Biso   1.000  C
  C46      1.0000 0.04430  0.38790  0.11450  Biso   1.000  C
  C47      1.0000 0.54430  0.11210  0.11450  Biso   1.000  C
  C48      1.0000 0.45570  0.88790  0.61450  Biso   1.000  C
  H33      1.0000 0.90780  0.58060  0.67360  Biso   1.000  H
  H34      1.0000 0.09220  0.41940  0.17360  Biso   1.000  H
  H35      1.0000 0.59220  0.08060  0.17360  Biso   1.000  H
  H36      1.0000 0.40780  0.91940  0.67360  Biso   1.000  H
  C49      1.0000 0.01840  0.46440  0.52260  Biso   1.000  C
  C50      1.0000 0.98160  0.53560  0.02260  Biso   1.000  C
  C51      1.0000 0.48160  0.96440  0.02260  Biso   1.000  C
  C52      1.0000 0.51840  0.03560  0.52260  Biso   1.000  C
  O9       1.0000 0.01830  0.97990  0.53150  Biso   1.000  O
  O10      1.0000 0.98170  0.02010  0.03150  Biso   1.000  O
  O11      1.0000 0.48170  0.47990  0.03150  Biso   1.000  O
  O12      1.0000 0.51830  0.52010  0.53150  Biso   1.000  O
  H37      1.0000 0.92200  0.01800  0.51900  Biso   1.000  H
  H38      1.0000 0.07800  0.98200  0.01900  Biso   1.000  H
  H39      1.0000 0.57800  0.51800  0.01900  Biso   1.000  H
  H40      1.0000 0.42200  0.48200  0.51900  Biso   1.000  H
  H41      1.0000 0.10000  0.01700  0.57200  Biso   1.000  H
  H42      1.0000 0.90000  0.98300  0.07200  Biso   1.000  H
  H43      1.0000 0.40000  0.51700  0.07200  Biso   1.000  H
  H44      1.0000 0.60000  0.48300  0.57200  Biso   1.000  H
