data_image0
_cell_length_a       7.186
_cell_length_b       10.847
_cell_length_c       12.141
_cell_angle_alpha    114.115
_cell_angle_beta     97.896
_cell_angle_gamma    101.7

_symmetry_space_group_name_H-M    "P 1"
_symmetry_int_tables_number       1

loop_
  _symmetry_equiv_pos_as_xyz
  'x, y, z'

loop_
  _atom_site_label
  _atom_site_occupancy
  _atom_site_fract_x
  _atom_site_fract_y
  _atom_site_fract_z
  _atom_site_thermal_displace_type
  _atom_site_B_iso_or_equiv
  _atom_site_type_symbol
  I1       1.0000 0.67686  0.13398  0.83079  Biso   1.000  I
  I2       1.0000 0.32314  0.86602  0.16921  Biso   1.000  I
  I3       1.0000 0.89307  0.08216  0.16422  Biso   1.000  I
  I4       1.0000 0.10693  0.91784  0.83578  Biso   1.000  I
  I5       1.0000 0.54052  0.71229  0.82381  Biso   1.000  I
  I6       1.0000 0.45948  0.28771  0.17619  Biso   1.000  I
  Cu1      1.0000 0.78784  0.96586  0.91739  Biso   1.000  Cu
  Cu2      1.0000 0.21216  0.03414  0.08261  Biso   1.000  Cu
  Cu3      1.0000 0.37348  0.18127  0.93545  Biso   1.000  Cu
  Cu4      1.0000 0.62652  0.81873  0.06455  Biso   1.000  Cu
  Cu5      1.0000 0.77071  0.24193  0.07028  Biso   1.000  Cu
  Cu6      1.0000 0.22929  0.75807  0.92972  Biso   1.000  Cu
  S1       1.0000 0.47560  0.19960  0.55030  Biso   1.000  S
  S2       1.0000 0.52440  0.80040  0.44970  Biso   1.000  S
  C1       1.0000 0.19720  0.39550  0.88960  Biso   1.000  C
  C2       1.0000 0.80280  0.60450  0.11040  Biso   1.000  C
  N1       1.0000 0.26910  0.47940  0.00880  Biso   1.000  N
  N2       1.0000 0.73090  0.52060  0.99120  Biso   1.000  N
  H1       1.0000 0.33230  0.45170  0.05530  Biso   1.000  H
  H2       1.0000 0.66770  0.54830  0.94470  Biso   1.000  H
  H3       1.0000 0.25300  0.56210  0.04050  Biso   1.000  H
  H4       1.0000 0.74700  0.43790  0.95950  Biso   1.000  H
  N3       1.0000 0.91670  0.39140  0.62520  Biso   1.000  N
  N4       1.0000 0.08330  0.60860  0.37480  Biso   1.000  N
  N5       1.0000 0.03410  0.20080  0.63360  Biso   1.000  N
  N6       1.0000 0.96590  0.79920  0.36640  Biso   1.000  N
  N7       1.0000 0.27700  0.36420  0.47620  Biso   1.000  N
  N8       1.0000 0.72300  0.63580  0.52380  Biso   1.000  N
  C3       1.0000 0.36370  0.29420  0.50520  Biso   1.000  C
  C4       1.0000 0.63630  0.70580  0.49480  Biso   1.000  C
  C5       1.0000 0.93960  0.52650  0.71260  Biso   1.000  C
  C6       1.0000 0.06040  0.47350  0.28740  Biso   1.000  C
  H5       1.0000 0.88340  0.58950  0.69680  Biso   1.000  H
  H6       1.0000 0.11660  0.41050  0.30320  Biso   1.000  H
  C7       1.0000 0.80820  0.32490  0.49510  Biso   1.000  C
  C8       1.0000 0.19180  0.67510  0.50490  Biso   1.000  C
  H7       1.0000 0.74290  0.38870  0.48030  Biso   1.000  H
  H8       1.0000 0.25710  0.61130  0.51970  Biso   1.000  H
  H9       1.0000 0.89940  0.30760  0.44240  Biso   1.000  H
  H10      1.0000 0.10060  0.69240  0.55760  Biso   1.000  H
  N9       1.0000 0.22380  0.26350  0.84010  Biso   1.000  N
  N10      1.0000 0.77620  0.73650  0.15990  Biso   1.000  N
  N11      1.0000 0.05010  0.55700  0.82180  Biso   1.000  N
  N12      1.0000 0.94990  0.44300  0.17820  Biso   1.000  N
  C9       1.0000 0.65710  0.18720  0.46000  Biso   1.000  C
  C10      1.0000 0.34290  0.81280  0.54000  Biso   1.000  C
  H11      1.0000 0.59000  0.14790  0.37290  Biso   1.000  H
  H12      1.0000 0.41000  0.85210  0.62710  Biso   1.000  H
  H13      1.0000 0.72480  0.12160  0.46880  Biso   1.000  H
  H14      1.0000 0.27520  0.87840  0.53120  Biso   1.000  H
  C11      1.0000 0.14320  0.17660  0.71690  Biso   1.000  C
  C12      1.0000 0.85680  0.82340  0.28310  Biso   1.000  C
  H15      1.0000 0.16700  0.08900  0.68670  Biso   1.000  H
  H16      1.0000 0.83300  0.91100  0.31330  Biso   1.000  H
  C13      1.0000 0.10030  0.43260  0.80470  Biso   1.000  C
  C14      1.0000 0.89970  0.56740  0.19530  Biso   1.000  C
  C15      1.0000 0.02180  0.33130  0.68470  Biso   1.000  C
  C16      1.0000 0.97820  0.66870  0.31530  Biso   1.000  C
