data_image0
_cell_length_a       11.755
_cell_length_b       29.139
_cell_length_c       4.0874
_cell_angle_alpha    90
_cell_angle_beta     90
_cell_angle_gamma    90

_symmetry_space_group_name_H-M    "P 1"
_symmetry_int_tables_number       1

loop_
  _symmetry_equiv_pos_as_xyz
  'x, y, z'

loop_
  _atom_site_label
  _atom_site_occupancy
  _atom_site_fract_x
  _atom_site_fract_y
  _atom_site_fract_z
  _atom_site_thermal_displace_type
  _atom_site_B_iso_or_equiv
  _atom_site_type_symbol
  Br1      1.0000 0.20374  0.25000  0.17400  Biso   1.000  Br
  Br2      1.0000 0.70374  0.25000  0.32600  Biso   1.000  Br
  Br3      1.0000 0.79626  0.75000  0.82600  Biso   1.000  Br
  Br4      1.0000 0.29626  0.75000  0.67400  Biso   1.000  Br
  Cu1      1.0000 0.01015  0.25000  0.94230  Biso   1.000  Cu
  Cu2      1.0000 0.51015  0.25000  0.55770  Biso   1.000  Cu
  Cu3      1.0000 0.98985  0.75000  0.05770  Biso   1.000  Cu
  Cu4      1.0000 0.48985  0.75000  0.44230  Biso   1.000  Cu
  Cu5      1.0000 0.36968  0.20048  0.07220  Biso   1.000  Cu
  Cu6      1.0000 0.86968  0.29952  0.42780  Biso   1.000  Cu
  Cu7      1.0000 0.63032  0.70048  0.92780  Biso   1.000  Cu
  Cu8      1.0000 0.13032  0.79952  0.57220  Biso   1.000  Cu
  Cu9      1.0000 0.63032  0.79952  0.92780  Biso   1.000  Cu
  Cu10     1.0000 0.13032  0.70048  0.57220  Biso   1.000  Cu
  Cu11     1.0000 0.36968  0.29952  0.07220  Biso   1.000  Cu
  Cu12     1.0000 0.86968  0.20048  0.42780  Biso   1.000  Cu
  S1       1.0000 0.92866  0.31882  0.92400  Biso   1.000  S
  S2       1.0000 0.42866  0.18118  0.57600  Biso   1.000  S
  S3       1.0000 0.07134  0.81882  0.07600  Biso   1.000  S
  S4       1.0000 0.57134  0.68118  0.42400  Biso   1.000  S
  S5       1.0000 0.07134  0.68118  0.07600  Biso   1.000  S
  S6       1.0000 0.57134  0.81882  0.42400  Biso   1.000  S
  S7       1.0000 0.92866  0.18118  0.92400  Biso   1.000  S
  S8       1.0000 0.42866  0.31882  0.57600  Biso   1.000  S
  C1       1.0000 0.52820  0.13576  0.55320  Biso   1.000  C
  C2       1.0000 0.02820  0.36424  0.94680  Biso   1.000  C
  C3       1.0000 0.47180  0.63576  0.44680  Biso   1.000  C
  C4       1.0000 0.97180  0.86424  0.05320  Biso   1.000  C
  C5       1.0000 0.47180  0.86424  0.44680  Biso   1.000  C
  C6       1.0000 0.97180  0.63576  0.05320  Biso   1.000  C
  C7       1.0000 0.52820  0.36424  0.55320  Biso   1.000  C
  C8       1.0000 0.02820  0.13576  0.94680  Biso   1.000  C
  C9       1.0000 0.49760  0.09609  0.37830  Biso   1.000  C
  C10      1.0000 0.99760  0.40391  0.12170  Biso   1.000  C
  C11      1.0000 0.50240  0.59609  0.62170  Biso   1.000  C
  C12      1.0000 0.00240  0.90391  0.87830  Biso   1.000  C
  C13      1.0000 0.50240  0.90391  0.62170  Biso   1.000  C
  C14      1.0000 0.00240  0.59609  0.87830  Biso   1.000  C
  C15      1.0000 0.49760  0.40391  0.37830  Biso   1.000  C
  C16      1.0000 0.99760  0.09609  0.12170  Biso   1.000  C
  C17      1.0000 0.63370  0.13747  0.70210  Biso   1.000  C
  C18      1.0000 0.13370  0.36253  0.79790  Biso   1.000  C
  C19      1.0000 0.36630  0.63747  0.29790  Biso   1.000  C
  C20      1.0000 0.86630  0.86253  0.20210  Biso   1.000  C
  C21      1.0000 0.36630  0.86253  0.29790  Biso   1.000  C
  C22      1.0000 0.86630  0.63747  0.20210  Biso   1.000  C
  C23      1.0000 0.63370  0.36253  0.70210  Biso   1.000  C
  C24      1.0000 0.13370  0.13747  0.79790  Biso   1.000  C
  H1       1.0000 0.42630  0.09410  0.28100  Biso   1.000  H
  H2       1.0000 0.92630  0.40590  0.21900  Biso   1.000  H
  H3       1.0000 0.57370  0.59410  0.71900  Biso   1.000  H
  H4       1.0000 0.07370  0.90590  0.78100  Biso   1.000  H
  H5       1.0000 0.57370  0.90590  0.71900  Biso   1.000  H
  H6       1.0000 0.07370  0.59410  0.78100  Biso   1.000  H
  H7       1.0000 0.42630  0.40590  0.28100  Biso   1.000  H
  H8       1.0000 0.92630  0.09410  0.21900  Biso   1.000  H
  C25      1.0000 0.57280  0.06024  0.35060  Biso   1.000  C
  C26      1.0000 0.07280  0.43976  0.14940  Biso   1.000  C
  C27      1.0000 0.42720  0.56024  0.64940  Biso   1.000  C
  C28      1.0000 0.92720  0.93976  0.85060  Biso   1.000  C
  C29      1.0000 0.42720  0.93976  0.64940  Biso   1.000  C
  C30      1.0000 0.92720  0.56024  0.85060  Biso   1.000  C
  C31      1.0000 0.57280  0.43976  0.35060  Biso   1.000  C
  C32      1.0000 0.07280  0.06024  0.14940  Biso   1.000  C
  C33      1.0000 0.70900  0.10114  0.67170  Biso   1.000  C
  C34      1.0000 0.20900  0.39886  0.82830  Biso   1.000  C
  C35      1.0000 0.29100  0.60114  0.32830  Biso   1.000  C
  C36      1.0000 0.79100  0.89886  0.17170  Biso   1.000  C
  C37      1.0000 0.29100  0.89886  0.32830  Biso   1.000  C
  C38      1.0000 0.79100  0.60114  0.17170  Biso   1.000  C
  C39      1.0000 0.70900  0.39886  0.67170  Biso   1.000  C
  C40      1.0000 0.20900  0.10114  0.82830  Biso   1.000  C
  H9       1.0000 0.65430  0.16320  0.82350  Biso   1.000  H
  H10      1.0000 0.15430  0.33680  0.67650  Biso   1.000  H
  H11      1.0000 0.34570  0.66320  0.17650  Biso   1.000  H
  H12      1.0000 0.84570  0.83680  0.32350  Biso   1.000  H
  H13      1.0000 0.34570  0.83680  0.17650  Biso   1.000  H
  H14      1.0000 0.84570  0.66320  0.32350  Biso   1.000  H
  H15      1.0000 0.65430  0.33680  0.82350  Biso   1.000  H
  H16      1.0000 0.15430  0.16320  0.67650  Biso   1.000  H
  C41      1.0000 0.67850  0.06352  0.49350  Biso   1.000  C
  C42      1.0000 0.17850  0.43648  0.00650  Biso   1.000  C
  C43      1.0000 0.32150  0.56352  0.50650  Biso   1.000  C
  C44      1.0000 0.82150  0.93648  0.99350  Biso   1.000  C
  C45      1.0000 0.32150  0.93648  0.50650  Biso   1.000  C
  C46      1.0000 0.82150  0.56352  0.99350  Biso   1.000  C
  C47      1.0000 0.67850  0.43648  0.49350  Biso   1.000  C
  C48      1.0000 0.17850  0.06352  0.00650  Biso   1.000  C
  H17      1.0000 0.55240  0.03390  0.23610  Biso   1.000  H
  H18      1.0000 0.05240  0.46610  0.26390  Biso   1.000  H
  H19      1.0000 0.44760  0.53390  0.76390  Biso   1.000  H
  H20      1.0000 0.94760  0.96610  0.73610  Biso   1.000  H
  H21      1.0000 0.44760  0.96610  0.76390  Biso   1.000  H
  H22      1.0000 0.94760  0.53390  0.73610  Biso   1.000  H
  H23      1.0000 0.55240  0.46610  0.23610  Biso   1.000  H
  H24      1.0000 0.05240  0.03390  0.26390  Biso   1.000  H
  H25      1.0000 0.78000  0.10240  0.77210  Biso   1.000  H
  H26      1.0000 0.28000  0.39760  0.72790  Biso   1.000  H
  H27      1.0000 0.22000  0.60240  0.22790  Biso   1.000  H
  H28      1.0000 0.72000  0.89760  0.27210  Biso   1.000  H
  H29      1.0000 0.22000  0.89760  0.22790  Biso   1.000  H
  H30      1.0000 0.72000  0.60240  0.27210  Biso   1.000  H
  H31      1.0000 0.78000  0.39760  0.77210  Biso   1.000  H
  H32      1.0000 0.28000  0.10240  0.72790  Biso   1.000  H
  O1       1.0000 0.76030  0.02885  0.46790  Biso   1.000  O
  O2       1.0000 0.26030  0.47115  0.03210  Biso   1.000  O
  O3       1.0000 0.23970  0.52885  0.53210  Biso   1.000  O
  O4       1.0000 0.73970  0.97115  0.96790  Biso   1.000  O
  O5       1.0000 0.23970  0.97115  0.53210  Biso   1.000  O
  O6       1.0000 0.73970  0.52885  0.96790  Biso   1.000  O
  O7       1.0000 0.76030  0.47115  0.46790  Biso   1.000  O
  O8       1.0000 0.26030  0.02885  0.03210  Biso   1.000  O
  H33      1.0000 0.74210  0.01100  0.32170  Biso   1.000  H
  H34      1.0000 0.24210  0.48900  0.17830  Biso   1.000  H
  H35      1.0000 0.25790  0.51100  0.67830  Biso   1.000  H
  H36      1.0000 0.75790  0.98900  0.82170  Biso   1.000  H
  H37      1.0000 0.25790  0.98900  0.67830  Biso   1.000  H
  H38      1.0000 0.75790  0.51100  0.82170  Biso   1.000  H
  H39      1.0000 0.74210  0.48900  0.32170  Biso   1.000  H
  H40      1.0000 0.24210  0.01100  0.17830  Biso   1.000  H
