data_image0
_cell_length_a       11.4551
_cell_length_b       29.1988
_cell_length_c       4.0876
_cell_angle_alpha    90
_cell_angle_beta     90
_cell_angle_gamma    90

_symmetry_space_group_name_H-M    "P 1"
_symmetry_int_tables_number       1

loop_
  _symmetry_equiv_pos_as_xyz
  'x, y, z'

loop_
  _atom_site_label
  _atom_site_occupancy
  _atom_site_fract_x
  _atom_site_fract_y
  _atom_site_fract_z
  _atom_site_thermal_displace_type
  _atom_site_B_iso_or_equiv
  _atom_site_type_symbol
  Cu1      1.0000 0.13813  0.29917  0.46179  Biso   1.000  Cu
  Cu2      1.0000 0.36187  0.70083  0.96179  Biso   1.000  Cu
  Cu3      1.0000 0.86187  0.79917  0.53821  Biso   1.000  Cu
  Cu4      1.0000 0.63813  0.20083  0.03821  Biso   1.000  Cu
  Cu5      1.0000 0.86187  0.70083  0.53821  Biso   1.000  Cu
  Cu6      1.0000 0.63813  0.29917  0.03821  Biso   1.000  Cu
  Cu7      1.0000 0.13813  0.20083  0.46179  Biso   1.000  Cu
  Cu8      1.0000 0.36187  0.79917  0.96179  Biso   1.000  Cu
  Cu9      1.0000 0.49371  0.25000  0.52527  Biso   1.000  Cu
  Cu10     1.0000 0.00629  0.75000  0.02527  Biso   1.000  Cu
  Cu11     1.0000 0.50629  0.75000  0.47473  Biso   1.000  Cu
  Cu12     1.0000 0.99371  0.25000  0.97473  Biso   1.000  Cu
  Cl1      1.0000 0.29628  0.25000  0.38500  Biso   1.000  Cl
  Cl2      1.0000 0.20372  0.75000  0.88500  Biso   1.000  Cl
  Cl3      1.0000 0.70372  0.75000  0.61500  Biso   1.000  Cl
  Cl4      1.0000 0.79628  0.25000  0.11500  Biso   1.000  Cl
  C1       1.0000 0.97680  0.36422  0.97060  Biso   1.000  C
  C2       1.0000 0.52320  0.63578  0.47060  Biso   1.000  C
  C3       1.0000 0.02320  0.86422  0.02940  Biso   1.000  C
  C4       1.0000 0.47680  0.13578  0.52940  Biso   1.000  C
  C5       1.0000 0.02320  0.63578  0.02940  Biso   1.000  C
  C6       1.0000 0.47680  0.36422  0.52940  Biso   1.000  C
  C7       1.0000 0.97680  0.13578  0.97060  Biso   1.000  C
  C8       1.0000 0.52320  0.86422  0.47060  Biso   1.000  C
  C9       1.0000 0.87029  0.36198  0.80670  Biso   1.000  C
  C10      1.0000 0.62971  0.63802  0.30670  Biso   1.000  C
  C11      1.0000 0.12971  0.86198  0.19330  Biso   1.000  C
  C12      1.0000 0.37029  0.13802  0.69330  Biso   1.000  C
  C13      1.0000 0.12971  0.63802  0.19330  Biso   1.000  C
  C14      1.0000 0.37029  0.36198  0.69330  Biso   1.000  C
  C15      1.0000 0.87029  0.13802  0.80670  Biso   1.000  C
  C16      1.0000 0.62971  0.86198  0.30670  Biso   1.000  C
  H1       1.0000 0.85100  0.33560  0.68180  Biso   1.000  H
  H2       1.0000 0.64900  0.66440  0.18180  Biso   1.000  H
  H3       1.0000 0.14900  0.83560  0.31820  Biso   1.000  H
  H4       1.0000 0.35100  0.16440  0.81820  Biso   1.000  H
  H5       1.0000 0.14900  0.66440  0.31820  Biso   1.000  H
  H6       1.0000 0.35100  0.33560  0.81820  Biso   1.000  H
  H7       1.0000 0.85100  0.16440  0.68180  Biso   1.000  H
  H8       1.0000 0.64900  0.83560  0.18180  Biso   1.000  H
  C17      1.0000 0.79252  0.39817  0.82590  Biso   1.000  C
  C18      1.0000 0.70748  0.60183  0.32590  Biso   1.000  C
  C19      1.0000 0.20748  0.89817  0.17410  Biso   1.000  C
  C20      1.0000 0.29252  0.10183  0.67410  Biso   1.000  C
  C21      1.0000 0.20748  0.60183  0.17410  Biso   1.000  C
  C22      1.0000 0.29252  0.39817  0.67410  Biso   1.000  C
  C23      1.0000 0.79252  0.10183  0.82590  Biso   1.000  C
  C24      1.0000 0.70748  0.89817  0.32590  Biso   1.000  C
  H9       1.0000 0.71960  0.39650  0.71600  Biso   1.000  H
  H10      1.0000 0.78040  0.60350  0.21600  Biso   1.000  H
  H11      1.0000 0.28040  0.89650  0.28400  Biso   1.000  H
  H12      1.0000 0.21960  0.10350  0.78400  Biso   1.000  H
  H13      1.0000 0.28040  0.60350  0.28400  Biso   1.000  H
  H14      1.0000 0.21960  0.39650  0.78400  Biso   1.000  H
  H15      1.0000 0.71960  0.10350  0.71600  Biso   1.000  H
  H16      1.0000 0.78040  0.89650  0.21600  Biso   1.000  H
  C25      1.0000 0.82120  0.43671  0.00530  Biso   1.000  C
  C26      1.0000 0.67880  0.56329  0.50530  Biso   1.000  C
  C27      1.0000 0.17880  0.93671  0.99470  Biso   1.000  C
  C28      1.0000 0.32120  0.06329  0.49470  Biso   1.000  C
  C29      1.0000 0.17880  0.56329  0.99470  Biso   1.000  C
  C30      1.0000 0.32120  0.43671  0.49470  Biso   1.000  C
  C31      1.0000 0.82120  0.06329  0.00530  Biso   1.000  C
  C32      1.0000 0.67880  0.93671  0.50530  Biso   1.000  C
  C33      1.0000 0.92850  0.44042  0.16040  Biso   1.000  C
  C34      1.0000 0.57150  0.55958  0.66040  Biso   1.000  C
  C35      1.0000 0.07150  0.94042  0.83960  Biso   1.000  C
  C36      1.0000 0.42850  0.05958  0.33960  Biso   1.000  C
  C37      1.0000 0.07150  0.55958  0.83960  Biso   1.000  C
  C38      1.0000 0.42850  0.44042  0.33960  Biso   1.000  C
  C39      1.0000 0.92850  0.05958  0.16040  Biso   1.000  C
  C40      1.0000 0.57150  0.94042  0.66040  Biso   1.000  C
  H17      1.0000 0.94890  0.46750  0.27560  Biso   1.000  H
  H18      1.0000 0.55110  0.53250  0.77560  Biso   1.000  H
  H19      1.0000 0.05110  0.96750  0.72440  Biso   1.000  H
  H20      1.0000 0.44890  0.03250  0.22440  Biso   1.000  H
  H21      1.0000 0.05110  0.53250  0.72440  Biso   1.000  H
  H22      1.0000 0.44890  0.46750  0.22440  Biso   1.000  H
  H23      1.0000 0.94890  0.03250  0.27560  Biso   1.000  H
  H24      1.0000 0.55110  0.96750  0.77560  Biso   1.000  H
  C41      1.0000 0.00603  0.40371  0.14440  Biso   1.000  C
  C42      1.0000 0.49397  0.59629  0.64440  Biso   1.000  C
  C43      1.0000 0.99397  0.90371  0.85560  Biso   1.000  C
  C44      1.0000 0.50603  0.09629  0.35560  Biso   1.000  C
  C45      1.0000 0.99397  0.59629  0.85560  Biso   1.000  C
  C46      1.0000 0.50603  0.40371  0.35560  Biso   1.000  C
  C47      1.0000 0.00603  0.09629  0.14440  Biso   1.000  C
  C48      1.0000 0.49397  0.90371  0.64440  Biso   1.000  C
  H25      1.0000 0.07930  0.40560  0.25260  Biso   1.000  H
  H26      1.0000 0.42070  0.59440  0.75260  Biso   1.000  H
  H27      1.0000 0.92070  0.90560  0.74740  Biso   1.000  H
  H28      1.0000 0.57930  0.09440  0.24740  Biso   1.000  H
  H29      1.0000 0.92070  0.59440  0.74740  Biso   1.000  H
  H30      1.0000 0.57930  0.40560  0.24740  Biso   1.000  H
  H31      1.0000 0.07930  0.09440  0.25260  Biso   1.000  H
  H32      1.0000 0.42070  0.90560  0.75260  Biso   1.000  H
  O1       1.0000 0.73875  0.47159  0.01770  Biso   1.000  O
  O2       1.0000 0.76125  0.52841  0.51770  Biso   1.000  O
  O3       1.0000 0.26125  0.97159  0.98230  Biso   1.000  O
  O4       1.0000 0.23875  0.02841  0.48230  Biso   1.000  O
  O5       1.0000 0.26125  0.52841  0.98230  Biso   1.000  O
  O6       1.0000 0.23875  0.47159  0.48230  Biso   1.000  O
  O7       1.0000 0.73875  0.02841  0.01770  Biso   1.000  O
  O8       1.0000 0.76125  0.97159  0.51770  Biso   1.000  O
  H33      1.0000 0.75370  0.48900  0.17570  Biso   1.000  H
  H34      1.0000 0.74630  0.51100  0.67570  Biso   1.000  H
  H35      1.0000 0.24630  0.98900  0.82430  Biso   1.000  H
  H36      1.0000 0.25370  0.01100  0.32430  Biso   1.000  H
  H37      1.0000 0.24630  0.51100  0.82430  Biso   1.000  H
  H38      1.0000 0.25370  0.48900  0.32430  Biso   1.000  H
  H39      1.0000 0.75370  0.01100  0.17570  Biso   1.000  H
  H40      1.0000 0.74630  0.98900  0.67570  Biso   1.000  H
  S1       1.0000 0.07921  0.31825  0.95902  Biso   1.000  S
  S2       1.0000 0.42079  0.68175  0.45902  Biso   1.000  S
  S3       1.0000 0.92079  0.81825  0.04098  Biso   1.000  S
  S4       1.0000 0.57921  0.18175  0.54098  Biso   1.000  S
  S5       1.0000 0.92079  0.68175  0.04098  Biso   1.000  S
  S6       1.0000 0.57921  0.31825  0.54098  Biso   1.000  S
  S7       1.0000 0.07921  0.18175  0.95902  Biso   1.000  S
  S8       1.0000 0.42079  0.81825  0.45902  Biso   1.000  S
