data_image0
_cell_length_a       11.689
_cell_length_b       29.0773
_cell_length_c       4.0849
_cell_angle_alpha    90
_cell_angle_beta     90
_cell_angle_gamma    90

_symmetry_space_group_name_H-M    "P 1"
_symmetry_int_tables_number       1

loop_
  _symmetry_equiv_pos_as_xyz
  'x, y, z'

loop_
  _atom_site_label
  _atom_site_occupancy
  _atom_site_fract_x
  _atom_site_fract_y
  _atom_site_fract_z
  _atom_site_thermal_displace_type
  _atom_site_B_iso_or_equiv
  _atom_site_type_symbol
  Br1      1.0000 0.20018  0.25000  0.17659  Biso   1.000  Br
  Br2      1.0000 0.29982  0.75000  0.67659  Biso   1.000  Br
  Br3      1.0000 0.79982  0.75000  0.82341  Biso   1.000  Br
  Br4      1.0000 0.70018  0.25000  0.32341  Biso   1.000  Br
  Cu1      1.0000 0.00540  0.25000  0.94300  Biso   1.000  Cu
  Cu2      1.0000 0.49460  0.75000  0.44300  Biso   1.000  Cu
  Cu3      1.0000 0.99460  0.75000  0.05700  Biso   1.000  Cu
  Cu4      1.0000 0.50540  0.25000  0.55700  Biso   1.000  Cu
  Cu5      1.0000 0.36696  0.20076  0.06761  Biso   1.000  Cu
  Cu6      1.0000 0.13304  0.79924  0.56761  Biso   1.000  Cu
  Cu7      1.0000 0.63304  0.70076  0.93239  Biso   1.000  Cu
  Cu8      1.0000 0.86696  0.29924  0.43239  Biso   1.000  Cu
  Cu9      1.0000 0.63304  0.79924  0.93239  Biso   1.000  Cu
  Cu10     1.0000 0.86696  0.20076  0.43239  Biso   1.000  Cu
  Cu11     1.0000 0.36696  0.29924  0.06761  Biso   1.000  Cu
  Cu12     1.0000 0.13304  0.70076  0.56761  Biso   1.000  Cu
  S1       1.0000 0.92435  0.31912  0.92836  Biso   1.000  S
  S2       1.0000 0.57565  0.68088  0.42836  Biso   1.000  S
  S3       1.0000 0.07565  0.81912  0.07164  Biso   1.000  S
  S4       1.0000 0.42435  0.18088  0.57164  Biso   1.000  S
  S5       1.0000 0.07565  0.68088  0.07164  Biso   1.000  S
  S6       1.0000 0.42435  0.31912  0.57164  Biso   1.000  S
  S7       1.0000 0.92435  0.18088  0.92836  Biso   1.000  S
  S8       1.0000 0.57565  0.81912  0.42836  Biso   1.000  S
  C1       1.0000 0.52607  0.13526  0.54930  Biso   1.000  C
  C2       1.0000 0.97393  0.86474  0.04930  Biso   1.000  C
  C3       1.0000 0.47393  0.63526  0.45070  Biso   1.000  C
  C4       1.0000 0.02607  0.36474  0.95070  Biso   1.000  C
  C5       1.0000 0.47393  0.86474  0.45070  Biso   1.000  C
  C6       1.0000 0.02607  0.13526  0.95070  Biso   1.000  C
  C7       1.0000 0.52607  0.36474  0.54930  Biso   1.000  C
  C8       1.0000 0.97393  0.63526  0.04930  Biso   1.000  C
  C9       1.0000 0.63227  0.13764  0.70290  Biso   1.000  C
  C10      1.0000 0.86773  0.86236  0.20290  Biso   1.000  C
  C11      1.0000 0.36773  0.63764  0.29710  Biso   1.000  C
  C12      1.0000 0.13227  0.36236  0.79710  Biso   1.000  C
  C13      1.0000 0.36773  0.86236  0.29710  Biso   1.000  C
  C14      1.0000 0.13227  0.13764  0.79710  Biso   1.000  C
  C15      1.0000 0.63227  0.36236  0.70290  Biso   1.000  C
  C16      1.0000 0.86773  0.63764  0.20290  Biso   1.000  C
  C17      1.0000 0.49595  0.09593  0.37280  Biso   1.000  C
  C18      1.0000 0.00405  0.90407  0.87280  Biso   1.000  C
  C19      1.0000 0.50405  0.59593  0.62720  Biso   1.000  C
  C20      1.0000 0.99595  0.40407  0.12720  Biso   1.000  C
  C21      1.0000 0.50405  0.90407  0.62720  Biso   1.000  C
  C22      1.0000 0.99595  0.09593  0.12720  Biso   1.000  C
  C23      1.0000 0.49595  0.40407  0.37280  Biso   1.000  C
  C24      1.0000 0.00405  0.59593  0.87280  Biso   1.000  C
  C25      1.0000 0.70894  0.10158  0.66940  Biso   1.000  C
  C26      1.0000 0.79106  0.89842  0.16940  Biso   1.000  C
  C27      1.0000 0.29106  0.60158  0.33060  Biso   1.000  C
  C28      1.0000 0.20894  0.39842  0.83060  Biso   1.000  C
  C29      1.0000 0.29106  0.89842  0.33060  Biso   1.000  C
  C30      1.0000 0.20894  0.10158  0.83060  Biso   1.000  C
  C31      1.0000 0.70894  0.39842  0.66940  Biso   1.000  C
  C32      1.0000 0.79106  0.60158  0.16940  Biso   1.000  C
  H1       1.0000 0.65200  0.16380  0.83000  Biso   1.000  H
  H2       1.0000 0.84800  0.83620  0.33000  Biso   1.000  H
  H3       1.0000 0.34800  0.66380  0.17000  Biso   1.000  H
  H4       1.0000 0.15200  0.33620  0.67000  Biso   1.000  H
  H5       1.0000 0.34800  0.83620  0.17000  Biso   1.000  H
  H6       1.0000 0.15200  0.16380  0.67000  Biso   1.000  H
  H7       1.0000 0.65200  0.33620  0.83000  Biso   1.000  H
  H8       1.0000 0.84800  0.66380  0.33000  Biso   1.000  H
  C33      1.0000 0.57273  0.05957  0.34380  Biso   1.000  C
  C34      1.0000 0.92727  0.94043  0.84380  Biso   1.000  C
  C35      1.0000 0.42727  0.55957  0.65620  Biso   1.000  C
  C36      1.0000 0.07273  0.44043  0.15620  Biso   1.000  C
  C37      1.0000 0.42727  0.94043  0.65620  Biso   1.000  C
  C38      1.0000 0.07273  0.05957  0.15620  Biso   1.000  C
  C39      1.0000 0.57273  0.44043  0.34380  Biso   1.000  C
  C40      1.0000 0.92727  0.55957  0.84380  Biso   1.000  C
  H9       1.0000 0.42280  0.09400  0.27220  Biso   1.000  H
  H10      1.0000 0.07720  0.90600  0.77220  Biso   1.000  H
  H11      1.0000 0.57720  0.59400  0.72780  Biso   1.000  H
  H12      1.0000 0.92280  0.40600  0.22780  Biso   1.000  H
  H13      1.0000 0.57720  0.90600  0.72780  Biso   1.000  H
  H14      1.0000 0.92280  0.09400  0.22780  Biso   1.000  H
  H15      1.0000 0.42280  0.40600  0.27220  Biso   1.000  H
  H16      1.0000 0.07720  0.59400  0.77220  Biso   1.000  H
  H17      1.0000 0.78190  0.10330  0.77090  Biso   1.000  H
  H18      1.0000 0.71810  0.89670  0.27090  Biso   1.000  H
  H19      1.0000 0.21810  0.60330  0.22910  Biso   1.000  H
  H20      1.0000 0.28190  0.39670  0.72910  Biso   1.000  H
  H21      1.0000 0.21810  0.89670  0.22910  Biso   1.000  H
  H22      1.0000 0.28190  0.10330  0.72910  Biso   1.000  H
  H23      1.0000 0.78190  0.39670  0.77090  Biso   1.000  H
  H24      1.0000 0.71810  0.60330  0.27090  Biso   1.000  H
  C41      1.0000 0.67969  0.06295  0.48830  Biso   1.000  C
  C42      1.0000 0.82031  0.93705  0.98830  Biso   1.000  C
  C43      1.0000 0.32031  0.56295  0.51170  Biso   1.000  C
  C44      1.0000 0.17969  0.43705  0.01170  Biso   1.000  C
  C45      1.0000 0.32031  0.93705  0.51170  Biso   1.000  C
  C46      1.0000 0.17969  0.06295  0.01170  Biso   1.000  C
  C47      1.0000 0.67969  0.43705  0.48830  Biso   1.000  C
  C48      1.0000 0.82031  0.56295  0.98830  Biso   1.000  C
  H25      1.0000 0.55200  0.03270  0.22600  Biso   1.000  H
  H26      1.0000 0.94800  0.96730  0.72600  Biso   1.000  H
  H27      1.0000 0.44800  0.53270  0.77400  Biso   1.000  H
  H28      1.0000 0.05200  0.46730  0.27400  Biso   1.000  H
  H29      1.0000 0.44800  0.96730  0.77400  Biso   1.000  H
  H30      1.0000 0.05200  0.03270  0.27400  Biso   1.000  H
  H31      1.0000 0.55200  0.46730  0.22600  Biso   1.000  H
  H32      1.0000 0.94800  0.53270  0.72600  Biso   1.000  H
  O1       1.0000 0.76144  0.02867  0.46220  Biso   1.000  O
  O2       1.0000 0.73856  0.97133  0.96220  Biso   1.000  O
  O3       1.0000 0.23856  0.52867  0.53780  Biso   1.000  O
  O4       1.0000 0.26144  0.47133  0.03780  Biso   1.000  O
  O5       1.0000 0.23856  0.97133  0.53780  Biso   1.000  O
  O6       1.0000 0.26144  0.02867  0.03780  Biso   1.000  O
  O7       1.0000 0.76144  0.47133  0.46220  Biso   1.000  O
  O8       1.0000 0.73856  0.52867  0.96220  Biso   1.000  O
  H33      1.0000 0.74670  0.01210  0.29940  Biso   1.000  H
  H34      1.0000 0.75330  0.98790  0.79940  Biso   1.000  H
  H35      1.0000 0.25330  0.51210  0.70060  Biso   1.000  H
  H36      1.0000 0.24670  0.48790  0.20060  Biso   1.000  H
  H37      1.0000 0.25330  0.98790  0.70060  Biso   1.000  H
  H38      1.0000 0.24670  0.01210  0.20060  Biso   1.000  H
  H39      1.0000 0.74670  0.48790  0.29940  Biso   1.000  H
  H40      1.0000 0.75330  0.51210  0.79940  Biso   1.000  H
