data_image0
_cell_length_a       11.5194
_cell_length_b       29.3267
_cell_length_c       4.0971
_cell_angle_alpha    90
_cell_angle_beta     90
_cell_angle_gamma    90

_symmetry_space_group_name_H-M    "P 1"
_symmetry_int_tables_number       1

loop_
  _symmetry_equiv_pos_as_xyz
  'x, y, z'

loop_
  _atom_site_label
  _atom_site_occupancy
  _atom_site_fract_x
  _atom_site_fract_y
  _atom_site_fract_z
  _atom_site_thermal_displace_type
  _atom_site_B_iso_or_equiv
  _atom_site_type_symbol
  Cu1      1.0000 0.13491  0.29931  0.45913  Biso   1.000  Cu
  Cu2      1.0000 0.63491  0.20069  0.04087  Biso   1.000  Cu
  Cu3      1.0000 0.86509  0.79931  0.54087  Biso   1.000  Cu
  Cu4      1.0000 0.36509  0.70069  0.95913  Biso   1.000  Cu
  Cu5      1.0000 0.86509  0.70069  0.54087  Biso   1.000  Cu
  Cu6      1.0000 0.36509  0.79931  0.95913  Biso   1.000  Cu
  Cu7      1.0000 0.13491  0.20069  0.45913  Biso   1.000  Cu
  Cu8      1.0000 0.63491  0.29931  0.04087  Biso   1.000  Cu
  Cu9      1.0000 0.48931  0.25000  0.52516  Biso   1.000  Cu
  Cu10     1.0000 0.98931  0.25000  0.97484  Biso   1.000  Cu
  Cu11     1.0000 0.51069  0.75000  0.47484  Biso   1.000  Cu
  Cu12     1.0000 0.01069  0.75000  0.02516  Biso   1.000  Cu
  Cl1      1.0000 0.29258  0.25000  0.39150  Biso   1.000  Cl
  Cl2      1.0000 0.79258  0.25000  0.10850  Biso   1.000  Cl
  Cl3      1.0000 0.70742  0.75000  0.60850  Biso   1.000  Cl
  Cl4      1.0000 0.20742  0.75000  0.89150  Biso   1.000  Cl
  C1       1.0000 0.97490  0.36372  0.96720  Biso   1.000  C
  C2       1.0000 0.47490  0.13628  0.53280  Biso   1.000  C
  C3       1.0000 0.02510  0.86372  0.03280  Biso   1.000  C
  C4       1.0000 0.52510  0.63628  0.46720  Biso   1.000  C
  C5       1.0000 0.02510  0.63628  0.03280  Biso   1.000  C
  C6       1.0000 0.52510  0.86372  0.46720  Biso   1.000  C
  C7       1.0000 0.97490  0.13628  0.96720  Biso   1.000  C
  C8       1.0000 0.47490  0.36372  0.53280  Biso   1.000  C
  C9       1.0000 0.86870  0.36189  0.80790  Biso   1.000  C
  C10      1.0000 0.36870  0.13811  0.69210  Biso   1.000  C
  C11      1.0000 0.13130  0.86189  0.19210  Biso   1.000  C
  C12      1.0000 0.63130  0.63811  0.30790  Biso   1.000  C
  C13      1.0000 0.13130  0.63811  0.19210  Biso   1.000  C
  C14      1.0000 0.63130  0.86189  0.30790  Biso   1.000  C
  C15      1.0000 0.86870  0.13811  0.80790  Biso   1.000  C
  C16      1.0000 0.36870  0.36189  0.69210  Biso   1.000  C
  H1       1.0000 0.84890  0.33610  0.68780  Biso   1.000  H
  H2       1.0000 0.34890  0.16390  0.81220  Biso   1.000  H
  H3       1.0000 0.15110  0.83610  0.31220  Biso   1.000  H
  H4       1.0000 0.65110  0.66390  0.18780  Biso   1.000  H
  H5       1.0000 0.15110  0.66390  0.31220  Biso   1.000  H
  H6       1.0000 0.65110  0.83610  0.18780  Biso   1.000  H
  H7       1.0000 0.84890  0.16390  0.68780  Biso   1.000  H
  H8       1.0000 0.34890  0.33610  0.81220  Biso   1.000  H
  C17      1.0000 0.79200  0.39810  0.82650  Biso   1.000  C
  C18      1.0000 0.29200  0.10190  0.67350  Biso   1.000  C
  C19      1.0000 0.20800  0.89810  0.17350  Biso   1.000  C
  C20      1.0000 0.70800  0.60190  0.32650  Biso   1.000  C
  C21      1.0000 0.20800  0.60190  0.17350  Biso   1.000  C
  C22      1.0000 0.70800  0.89810  0.32650  Biso   1.000  C
  C23      1.0000 0.79200  0.10190  0.82650  Biso   1.000  C
  C24      1.0000 0.29200  0.39810  0.67350  Biso   1.000  C
  H9       1.0000 0.72070  0.39650  0.72060  Biso   1.000  H
  H10      1.0000 0.22070  0.10350  0.77940  Biso   1.000  H
  H11      1.0000 0.27930  0.89650  0.27940  Biso   1.000  H
  H12      1.0000 0.77930  0.60350  0.22060  Biso   1.000  H
  H13      1.0000 0.27930  0.60350  0.27940  Biso   1.000  H
  H14      1.0000 0.77930  0.89650  0.22060  Biso   1.000  H
  H15      1.0000 0.72070  0.10350  0.72060  Biso   1.000  H
  H16      1.0000 0.22070  0.39650  0.77940  Biso   1.000  H
  C25      1.0000 0.82120  0.43649  0.00200  Biso   1.000  C
  C26      1.0000 0.32120  0.06351  0.49800  Biso   1.000  C
  C27      1.0000 0.17880  0.93649  0.99800  Biso   1.000  C
  C28      1.0000 0.67880  0.56351  0.50200  Biso   1.000  C
  C29      1.0000 0.17880  0.56351  0.99800  Biso   1.000  C
  C30      1.0000 0.67880  0.93649  0.50200  Biso   1.000  C
  C31      1.0000 0.82120  0.06351  0.00200  Biso   1.000  C
  C32      1.0000 0.32120  0.43649  0.49800  Biso   1.000  C
  C33      1.0000 0.92750  0.43975  0.15550  Biso   1.000  C
  C34      1.0000 0.42750  0.06025  0.34450  Biso   1.000  C
  C35      1.0000 0.07250  0.93975  0.84450  Biso   1.000  C
  C36      1.0000 0.57250  0.56025  0.65550  Biso   1.000  C
  C37      1.0000 0.07250  0.56025  0.84450  Biso   1.000  C
  C38      1.0000 0.57250  0.93975  0.65550  Biso   1.000  C
  C39      1.0000 0.92750  0.06025  0.15550  Biso   1.000  C
  C40      1.0000 0.42750  0.43975  0.34450  Biso   1.000  C
  H17      1.0000 0.94760  0.46620  0.26780  Biso   1.000  H
  H18      1.0000 0.44760  0.03380  0.23220  Biso   1.000  H
  H19      1.0000 0.05240  0.96620  0.73220  Biso   1.000  H
  H20      1.0000 0.55240  0.53380  0.76780  Biso   1.000  H
  H21      1.0000 0.05240  0.53380  0.73220  Biso   1.000  H
  H22      1.0000 0.55240  0.96620  0.76780  Biso   1.000  H
  H23      1.0000 0.94760  0.03380  0.26780  Biso   1.000  H
  H24      1.0000 0.44760  0.46620  0.23220  Biso   1.000  H
  C41      1.0000 0.00400  0.40336  0.14090  Biso   1.000  C
  C42      1.0000 0.50400  0.09664  0.35910  Biso   1.000  C
  C43      1.0000 0.99600  0.90336  0.85910  Biso   1.000  C
  C44      1.0000 0.49600  0.59664  0.64090  Biso   1.000  C
  C45      1.0000 0.99600  0.59664  0.85910  Biso   1.000  C
  C46      1.0000 0.49600  0.90336  0.64090  Biso   1.000  C
  C47      1.0000 0.00400  0.09664  0.14090  Biso   1.000  C
  C48      1.0000 0.50400  0.40336  0.35910  Biso   1.000  C
  H25      1.0000 0.07530  0.40520  0.24690  Biso   1.000  H
  H26      1.0000 0.57530  0.09480  0.25310  Biso   1.000  H
  H27      1.0000 0.92470  0.90520  0.75310  Biso   1.000  H
  H28      1.0000 0.42470  0.59480  0.74690  Biso   1.000  H
  H29      1.0000 0.92470  0.59480  0.75310  Biso   1.000  H
  H30      1.0000 0.42470  0.90520  0.74690  Biso   1.000  H
  H31      1.0000 0.07530  0.09480  0.24690  Biso   1.000  H
  H32      1.0000 0.57530  0.40520  0.25310  Biso   1.000  H
  O1       1.0000 0.73910  0.47119  0.01450  Biso   1.000  O
  O2       1.0000 0.23910  0.02881  0.48550  Biso   1.000  O
  O3       1.0000 0.26090  0.97119  0.98550  Biso   1.000  O
  O4       1.0000 0.76090  0.52881  0.51450  Biso   1.000  O
  O5       1.0000 0.26090  0.52881  0.98550  Biso   1.000  O
  O6       1.0000 0.76090  0.97119  0.51450  Biso   1.000  O
  O7       1.0000 0.73910  0.02881  0.01450  Biso   1.000  O
  O8       1.0000 0.23910  0.47119  0.48550  Biso   1.000  O
  H33      1.0000 0.75370  0.48820  0.16810  Biso   1.000  H
  H34      1.0000 0.25370  0.01180  0.33190  Biso   1.000  H
  H35      1.0000 0.24630  0.98820  0.83190  Biso   1.000  H
  H36      1.0000 0.74630  0.51180  0.66810  Biso   1.000  H
  H37      1.0000 0.24630  0.51180  0.83190  Biso   1.000  H
  H38      1.0000 0.74630  0.98820  0.66810  Biso   1.000  H
  H39      1.0000 0.75370  0.01180  0.16810  Biso   1.000  H
  H40      1.0000 0.25370  0.48820  0.33190  Biso   1.000  H
  S1       1.0000 0.07566  0.31783  0.95679  Biso   1.000  S
  S2       1.0000 0.57566  0.18217  0.54321  Biso   1.000  S
  S3       1.0000 0.92434  0.81783  0.04321  Biso   1.000  S
  S4       1.0000 0.42434  0.68217  0.45679  Biso   1.000  S
  S5       1.0000 0.92434  0.68217  0.04321  Biso   1.000  S
  S6       1.0000 0.42434  0.81783  0.45679  Biso   1.000  S
  S7       1.0000 0.07566  0.18217  0.95679  Biso   1.000  S
  S8       1.0000 0.57566  0.31783  0.54321  Biso   1.000  S
