data_image0
_cell_length_a       29.247
_cell_length_b       5.9047
_cell_length_c       4.117
_cell_angle_alpha    90
_cell_angle_beta     90
_cell_angle_gamma    90

_symmetry_space_group_name_H-M    "P 1"
_symmetry_int_tables_number       1

loop_
  _symmetry_equiv_pos_as_xyz
  'x, y, z'

loop_
  _atom_site_label
  _atom_site_occupancy
  _atom_site_fract_x
  _atom_site_fract_y
  _atom_site_fract_z
  _atom_site_thermal_displace_type
  _atom_site_B_iso_or_equiv
  _atom_site_type_symbol
  Cu1      1.0000 0.00000  0.54730  0.75920  Biso   1.000  Cu
  Cu2      1.0000 0.50000  0.45270  0.25920  Biso   1.000  Cu
  S1       1.0000 0.93362  0.34730  0.74100  Biso   1.000  S
  S2       1.0000 0.56638  0.65270  0.24100  Biso   1.000  S
  S3       1.0000 0.43362  0.65270  0.24100  Biso   1.000  S
  S4       1.0000 0.06638  0.34730  0.74100  Biso   1.000  S
  Cu3      1.0000 0.95110  0.22950  0.25520  Biso   1.000  Cu
  Cu4      1.0000 0.54890  0.77050  0.75520  Biso   1.000  Cu
  Cu5      1.0000 0.45110  0.77050  0.75520  Biso   1.000  Cu
  Cu6      1.0000 0.04890  0.22950  0.25520  Biso   1.000  Cu
  C1       1.0000 0.88230  0.51750  0.70500  Biso   1.000  C
  C2       1.0000 0.61770  0.48250  0.20500  Biso   1.000  C
  C3       1.0000 0.38230  0.48250  0.20500  Biso   1.000  C
  C4       1.0000 0.11770  0.51750  0.70500  Biso   1.000  C
  I1       1.0000 0.00000  0.85837  0.25980  Biso   1.000  I
  I2       1.0000 0.50000  0.14163  0.75980  Biso   1.000  I
  C5       1.0000 0.84480  0.42640  0.54300  Biso   1.000  C
  C6       1.0000 0.65520  0.57360  0.04300  Biso   1.000  C
  C7       1.0000 0.34480  0.57360  0.04300  Biso   1.000  C
  C8       1.0000 0.15520  0.42640  0.54300  Biso   1.000  C
  C9       1.0000 0.87930  0.73100  0.84500  Biso   1.000  C
  C10      1.0000 0.62070  0.26900  0.34500  Biso   1.000  C
  C11      1.0000 0.37930  0.26900  0.34500  Biso   1.000  C
  C12      1.0000 0.12070  0.73100  0.84500  Biso   1.000  C
  C13      1.0000 0.80440  0.54880  0.52200  Biso   1.000  C
  C14      1.0000 0.69560  0.45120  0.02200  Biso   1.000  C
  C15      1.0000 0.30440  0.45120  0.02200  Biso   1.000  C
  C16      1.0000 0.19560  0.54880  0.52200  Biso   1.000  C
  H1       1.0000 0.84690  0.28350  0.44910  Biso   1.000  H
  H2       1.0000 0.65310  0.71650  0.94910  Biso   1.000  H
  H3       1.0000 0.34690  0.71650  0.94910  Biso   1.000  H
  H4       1.0000 0.15310  0.28350  0.44910  Biso   1.000  H
  C17      1.0000 0.83880  0.85340  0.82400  Biso   1.000  C
  C18      1.0000 0.66120  0.14660  0.32400  Biso   1.000  C
  C19      1.0000 0.33880  0.14660  0.32400  Biso   1.000  C
  C20      1.0000 0.16120  0.85340  0.82400  Biso   1.000  C
  H5       1.0000 0.90430  0.79190  0.95350  Biso   1.000  H
  H6       1.0000 0.59570  0.20810  0.45350  Biso   1.000  H
  H7       1.0000 0.40430  0.20810  0.45350  Biso   1.000  H
  H8       1.0000 0.09570  0.79190  0.95350  Biso   1.000  H
  C21      1.0000 0.80130  0.76230  0.66300  Biso   1.000  C
  C22      1.0000 0.69870  0.23770  0.16300  Biso   1.000  C
  C23      1.0000 0.30130  0.23770  0.16300  Biso   1.000  C
  C24      1.0000 0.19870  0.76230  0.66300  Biso   1.000  C
  H9       1.0000 0.77930  0.48790  0.41380  Biso   1.000  H
  H10      1.0000 0.72070  0.51210  0.91380  Biso   1.000  H
  H11      1.0000 0.27930  0.51210  0.91380  Biso   1.000  H
  H12      1.0000 0.22070  0.48790  0.41380  Biso   1.000  H
  H13      1.0000 0.83670  0.99630  0.91820  Biso   1.000  H
  H14      1.0000 0.66330  0.00370  0.41820  Biso   1.000  H
  H15      1.0000 0.33670  0.00370  0.41820  Biso   1.000  H
  H16      1.0000 0.16330  0.99630  0.91820  Biso   1.000  H
  O1       1.0000 0.75950  0.87300  0.65800  Biso   1.000  O
  O2       1.0000 0.74050  0.12700  0.15800  Biso   1.000  O
  O3       1.0000 0.25950  0.12700  0.15800  Biso   1.000  O
  O4       1.0000 0.24050  0.87300  0.65800  Biso   1.000  O
  H17      1.0000 0.76180  0.99470  0.75370  Biso   1.000  H
  H18      1.0000 0.73820  0.00530  0.25370  Biso   1.000  H
  H19      1.0000 0.26180  0.00530  0.25370  Biso   1.000  H
  H20      1.0000 0.23820  0.99470  0.75370  Biso   1.000  H
