data_image0
_cell_length_a       4.1031
_cell_length_b       29.1
_cell_length_c       5.8698
_cell_angle_alpha    90
_cell_angle_beta     90
_cell_angle_gamma    90

_symmetry_space_group_name_H-M    "P 1"
_symmetry_int_tables_number       1

loop_
  _symmetry_equiv_pos_as_xyz
  'x, y, z'

loop_
  _atom_site_label
  _atom_site_occupancy
  _atom_site_fract_x
  _atom_site_fract_y
  _atom_site_fract_z
  _atom_site_thermal_displace_type
  _atom_site_B_iso_or_equiv
  _atom_site_type_symbol
  Cu1      1.0000 0.97470  0.04897  0.71980  Biso   1.000  Cu
  Cu2      1.0000 0.47470  0.45103  0.28020  Biso   1.000  Cu
  Cu3      1.0000 0.52530  0.54897  0.28020  Biso   1.000  Cu
  Cu4      1.0000 0.02530  0.95103  0.71980  Biso   1.000  Cu
  S1       1.0000 0.46980  0.06672  0.83900  Biso   1.000  S
  S2       1.0000 0.96980  0.43328  0.16100  Biso   1.000  S
  S3       1.0000 0.03020  0.56672  0.16100  Biso   1.000  S
  S4       1.0000 0.53020  0.93328  0.83900  Biso   1.000  S
  C1       1.0000 0.44900  0.11750  0.01200  Biso   1.000  C
  C2       1.0000 0.94900  0.38250  0.98800  Biso   1.000  C
  C3       1.0000 0.05100  0.61750  0.98800  Biso   1.000  C
  C4       1.0000 0.55100  0.88250  0.01200  Biso   1.000  C
  Cu5      1.0000 0.50000  0.00000  0.03930  Biso   1.000  Cu
  Cu6      1.0000 0.00000  0.50000  0.96070  Biso   1.000  Cu
  C5       1.0000 0.59200  0.12140  0.22200  Biso   1.000  C
  C6       1.0000 0.09200  0.37860  0.77800  Biso   1.000  C
  C7       1.0000 0.90800  0.62140  0.77800  Biso   1.000  C
  C8       1.0000 0.40800  0.87860  0.22200  Biso   1.000  C
  C9       1.0000 0.26400  0.15480  0.92400  Biso   1.000  C
  C10      1.0000 0.76400  0.34520  0.07600  Biso   1.000  C
  C11      1.0000 0.23600  0.65480  0.07600  Biso   1.000  C
  C12      1.0000 0.73600  0.84520  0.92400  Biso   1.000  C
  I1       1.0000 0.00000  0.00000  0.34839  Biso   1.000  I
  I2       1.0000 0.50000  0.50000  0.65161  Biso   1.000  I
  C13      1.0000 0.57500  0.16250  0.34600  Biso   1.000  C
  C14      1.0000 0.07500  0.33750  0.65400  Biso   1.000  C
  C15      1.0000 0.92500  0.66250  0.65400  Biso   1.000  C
  C16      1.0000 0.42500  0.83750  0.34600  Biso   1.000  C
  H1       1.0000 0.70550  0.09590  0.28430  Biso   1.000  H
  H2       1.0000 0.20550  0.40410  0.71570  Biso   1.000  H
  H3       1.0000 0.79450  0.59590  0.71570  Biso   1.000  H
  H4       1.0000 0.29450  0.90410  0.28430  Biso   1.000  H
  C17      1.0000 0.24400  0.19480  0.04500  Biso   1.000  C
  C18      1.0000 0.74400  0.30520  0.95500  Biso   1.000  C
  C19      1.0000 0.25600  0.69480  0.95500  Biso   1.000  C
  C20      1.0000 0.75600  0.80520  0.04500  Biso   1.000  C
  H5       1.0000 0.15480  0.15190  0.78180  Biso   1.000  H
  H6       1.0000 0.65480  0.34810  0.21820  Biso   1.000  H
  H7       1.0000 0.34520  0.65190  0.21820  Biso   1.000  H
  H8       1.0000 0.84520  0.84810  0.78180  Biso   1.000  H
  C21      1.0000 0.40300  0.19880  0.25300  Biso   1.000  C
  C22      1.0000 0.90300  0.30120  0.74700  Biso   1.000  C
  C23      1.0000 0.09700  0.69880  0.74700  Biso   1.000  C
  C24      1.0000 0.59700  0.80120  0.25300  Biso   1.000  C
  H9       1.0000 0.67790  0.16530  0.48980  Biso   1.000  H
  H10      1.0000 0.17790  0.33470  0.51020  Biso   1.000  H
  H11      1.0000 0.82210  0.66530  0.51020  Biso   1.000  H
  H12      1.0000 0.32210  0.83470  0.48980  Biso   1.000  H
  H13      1.0000 0.12180  0.21990  0.98650  Biso   1.000  H
  H14      1.0000 0.62180  0.28010  0.01350  Biso   1.000  H
  H15      1.0000 0.37820  0.71990  0.01350  Biso   1.000  H
  H16      1.0000 0.87820  0.78010  0.98650  Biso   1.000  H
  O1       1.0000 0.37200  0.24070  0.36840  Biso   1.000  O
  O2       1.0000 0.87200  0.25930  0.63160  Biso   1.000  O
  O3       1.0000 0.12800  0.74070  0.63160  Biso   1.000  O
  O4       1.0000 0.62800  0.75930  0.36840  Biso   1.000  O
  H17      1.0000 0.55150  0.24770  0.42850  Biso   1.000  H
  H18      1.0000 0.05150  0.25230  0.57150  Biso   1.000  H
  H19      1.0000 0.94850  0.74770  0.57150  Biso   1.000  H
  H20      1.0000 0.44850  0.75230  0.42850  Biso   1.000  H
