data_image0
_cell_length_a       8.514
_cell_length_b       9.777
_cell_length_c       10.175
_cell_angle_alpha    98.11
_cell_angle_beta     103.04
_cell_angle_gamma    106.58

_symmetry_space_group_name_H-M    "P 1"
_symmetry_int_tables_number       1

loop_
  _symmetry_equiv_pos_as_xyz
  'x, y, z'

loop_
  _atom_site_label
  _atom_site_occupancy
  _atom_site_fract_x
  _atom_site_fract_y
  _atom_site_fract_z
  _atom_site_thermal_displace_type
  _atom_site_B_iso_or_equiv
  _atom_site_type_symbol
  Cu1      1.0000 0.96397  0.36714  0.08251  Biso   1.000  Cu
  Cu2      1.0000 0.03603  0.63286  0.91749  Biso   1.000  Cu
  I1       1.0000 0.79039  0.35893  0.82061  Biso   1.000  I
  I2       1.0000 0.20961  0.64107  0.17939  Biso   1.000  I
  N1       1.0000 0.09800  0.23010  0.06370  Biso   1.000  N
  N2       1.0000 0.90200  0.76990  0.93630  Biso   1.000  N
  N3       1.0000 0.80580  0.38120  0.20110  Biso   1.000  N
  N4       1.0000 0.19420  0.61880  0.79890  Biso   1.000  N
  C1       1.0000 0.17020  0.22570  0.96010  Biso   1.000  C
  C2       1.0000 0.82980  0.77430  0.03990  Biso   1.000  C
  H1       1.0000 0.14240  0.27620  0.89100  Biso   1.000  H
  H2       1.0000 0.85760  0.72380  0.10900  Biso   1.000  H
  C3       1.0000 0.28340  0.15100  0.94920  Biso   1.000  C
  C4       1.0000 0.71660  0.84900  0.05080  Biso   1.000  C
  H3       1.0000 0.33320  0.15380  0.87570  Biso   1.000  H
  H4       1.0000 0.66680  0.84620  0.12430  Biso   1.000  H
  C5       1.0000 0.32330  0.07240  0.04620  Biso   1.000  C
  C6       1.0000 0.67670  0.92760  0.95380  Biso   1.000  C
  C7       1.0000 0.24630  0.07250  0.15010  Biso   1.000  C
  C8       1.0000 0.75370  0.92750  0.84990  Biso   1.000  C
  H5       1.0000 0.26900  0.01930  0.21800  Biso   1.000  H
  H6       1.0000 0.73100  0.98070  0.78200  Biso   1.000  H
  C9       1.0000 0.13460  0.15080  0.15580  Biso   1.000  C
  C10      1.0000 0.86540  0.84920  0.84420  Biso   1.000  C
  H7       1.0000 0.08220  0.14800  0.22790  Biso   1.000  H
  H8       1.0000 0.91780  0.85200  0.77210  Biso   1.000  H
  C11      1.0000 0.45500  0.99440  0.04940  Biso   1.000  C
  C12      1.0000 0.54500  0.00560  0.95060  Biso   1.000  C
  H9       1.0000 0.39640  0.89030  0.04130  Biso   1.000  H
  H10      1.0000 0.60360  0.10970  0.95870  Biso   1.000  H
  H11      1.0000 0.53840  0.03100  0.14080  Biso   1.000  H
  H12      1.0000 0.46160  0.96900  0.85920  Biso   1.000  H
  C13      1.0000 0.83910  0.36430  0.32960  Biso   1.000  C
  C14      1.0000 0.16090  0.63570  0.67040  Biso   1.000  C
  H13      1.0000 0.93650  0.33890  0.36460  Biso   1.000  H
  H14      1.0000 0.06350  0.66110  0.63540  Biso   1.000  H
  C15      1.0000 0.73960  0.38160  0.41480  Biso   1.000  C
  C16      1.0000 0.26040  0.61840  0.58520  Biso   1.000  C
  H15      1.0000 0.77060  0.37020  0.50620  Biso   1.000  H
  H16      1.0000 0.22940  0.62980  0.49380  Biso   1.000  H
  C17      1.0000 0.59280  0.41610  0.36650  Biso   1.000  C
  C18      1.0000 0.40720  0.58390  0.63350  Biso   1.000  C
  C19      1.0000 0.56520  0.44070  0.23620  Biso   1.000  C
  C20      1.0000 0.43480  0.55930  0.76380  Biso   1.000  C
  H17      1.0000 0.47320  0.47250  0.20040  Biso   1.000  H
  H18      1.0000 0.52680  0.52750  0.79960  Biso   1.000  H
  C21      1.0000 0.66960  0.41970  0.15660  Biso   1.000  C
  C22      1.0000 0.33040  0.58030  0.84340  Biso   1.000  C
  H19      1.0000 0.64340  0.43340  0.06570  Biso   1.000  H
  H20      1.0000 0.35660  0.56660  0.93430  Biso   1.000  H
  C23      1.0000 0.46900  0.42900  0.45530  Biso   1.000  C
  C24      1.0000 0.53100  0.57100  0.54470  Biso   1.000  C
  H21      1.0000 0.45990  0.35420  0.51060  Biso   1.000  H
  H22      1.0000 0.54010  0.64580  0.48940  Biso   1.000  H
  H23      1.0000 0.35510  0.41270  0.39470  Biso   1.000  H
  H24      1.0000 0.64490  0.58730  0.60530  Biso   1.000  H
  C25      1.0000 0.87620  0.86870  0.42060  Biso   1.000  C
  C26      1.0000 0.12380  0.13130  0.57940  Biso   1.000  C
  H25      1.0000 0.79570  0.77980  0.36650  Biso   1.000  H
  H26      1.0000 0.20430  0.22020  0.63350  Biso   1.000  H
  C27      1.0000 0.04600  0.89050  0.44910  Biso   1.000  C
  C28      1.0000 0.95400  0.10950  0.55090  Biso   1.000  C
  H27      1.0000 0.07870  0.81220  0.41330  Biso   1.000  H
  H28      1.0000 0.92130  0.18780  0.58670  Biso   1.000  H
  C29      1.0000 0.82450  0.98380  0.47460  Biso   1.000  C
  C30      1.0000 0.17550  0.01620  0.52540  Biso   1.000  C
  N5       1.0000 0.35850  0.03990  0.55540  Biso   1.000  N
  N6       1.0000 0.64150  0.96010  0.44460  Biso   1.000  N
  H29      1.0000 0.61680  0.04070  0.40860  Biso   1.000  H
  H30      1.0000 0.38320  0.95930  0.59140  Biso   1.000  H
  H31      1.0000 0.57920  0.86930  0.37650  Biso   1.000  H
  H32      1.0000 0.42080  0.13070  0.62350  Biso   1.000  H
  H33      1.0000 0.60700  0.95450  0.52880  Biso   1.000  H
  H34      1.0000 0.39300  0.04550  0.47120  Biso   1.000  H
