data_image0
_cell_length_a       8.1227
_cell_length_b       10.181
_cell_length_c       10.299
_cell_angle_alpha    99.64
_cell_angle_beta     108.9
_cell_angle_gamma    105.8

_symmetry_space_group_name_H-M    "P 1"
_symmetry_int_tables_number       1

loop_
  _symmetry_equiv_pos_as_xyz
  'x, y, z'

loop_
  _atom_site_label
  _atom_site_occupancy
  _atom_site_fract_x
  _atom_site_fract_y
  _atom_site_fract_z
  _atom_site_thermal_displace_type
  _atom_site_B_iso_or_equiv
  _atom_site_type_symbol
  Cu1      1.0000 0.02958  0.41005  0.63804  Biso   1.000  Cu
  Cu2      1.0000 0.97042  0.58995  0.36196  Biso   1.000  Cu
  I1       1.0000 0.22358  0.68199  0.65349  Biso   1.000  I
  I2       1.0000 0.77642  0.31801  0.34651  Biso   1.000  I
  N1       1.0000 0.18780  0.29240  0.62190  Biso   1.000  N
  N2       1.0000 0.81220  0.70760  0.37810  Biso   1.000  N
  C1       1.0000 0.16260  0.16490  0.65800  Biso   1.000  C
  C2       1.0000 0.83740  0.83510  0.34200  Biso   1.000  C
  H1       1.0000 0.07890  0.13650  0.70180  Biso   1.000  H
  H2       1.0000 0.92110  0.86350  0.29820  Biso   1.000  H
  C3       1.0000 0.26120  0.07930  0.62950  Biso   1.000  C
  C4       1.0000 0.73880  0.92070  0.37050  Biso   1.000  C
  H3       1.0000 0.24410  0.99310  0.65390  Biso   1.000  H
  H4       1.0000 0.75590  0.00690  0.34610  Biso   1.000  H
  C5       1.0000 0.38490  0.12130  0.56480  Biso   1.000  C
  C6       1.0000 0.61510  0.87870  0.43520  Biso   1.000  C
  C7       1.0000 0.41010  0.24880  0.52870  Biso   1.000  C
  C8       1.0000 0.58990  0.75120  0.47130  Biso   1.000  C
  H5       1.0000 0.49380  0.27720  0.48490  Biso   1.000  H
  H6       1.0000 0.50620  0.72280  0.51510  Biso   1.000  H
  C9       1.0000 0.31160  0.33440  0.55720  Biso   1.000  C
  C10      1.0000 0.68840  0.66560  0.44280  Biso   1.000  C
  H7       1.0000 0.32870  0.42060  0.53280  Biso   1.000  H
  H8       1.0000 0.67130  0.57940  0.46720  Biso   1.000  H
  C11      1.0000 0.53800  0.05750  0.56960  Biso   1.000  C
  C12      1.0000 0.46200  0.94250  0.43040  Biso   1.000  C
  H9       1.0000 0.56650  0.01730  0.65080  Biso   1.000  H
  H10      1.0000 0.43350  0.98270  0.34920  Biso   1.000  H
  H11      1.0000 0.65170  0.13070  0.57930  Biso   1.000  H
  H12      1.0000 0.34830  0.86930  0.42070  Biso   1.000  H
  N3       1.0000 0.89270  0.42740  0.76730  Biso   1.000  N
  N4       1.0000 0.10730  0.57260  0.23270  Biso   1.000  N
  C13      1.0000 0.86020  0.33070  0.84460  Biso   1.000  C
  C14      1.0000 0.13980  0.66930  0.15540  Biso   1.000  C
  H13      1.0000 0.91340  0.25950  0.84510  Biso   1.000  H
  H14      1.0000 0.08660  0.74050  0.15490  Biso   1.000  H
  C15      1.0000 0.74890  0.33930  0.92140  Biso   1.000  C
  C16      1.0000 0.25110  0.66070  0.07860  Biso   1.000  C
  H15      1.0000 0.72690  0.27390  0.97370  Biso   1.000  H
  H16      1.0000 0.27310  0.72610  0.02630  Biso   1.000  H
  C17      1.0000 0.67010  0.44460  0.92070  Biso   1.000  C
  C18      1.0000 0.32990  0.55540  0.07930  Biso   1.000  C
  C19      1.0000 0.70260  0.54130  0.84340  Biso   1.000  C
  C20      1.0000 0.29740  0.45870  0.15660  Biso   1.000  C
  H17      1.0000 0.64940  0.61260  0.84290  Biso   1.000  H
  H18      1.0000 0.35060  0.38740  0.15710  Biso   1.000  H
  C21      1.0000 0.81390  0.53280  0.76660  Biso   1.000  C
  C22      1.0000 0.18610  0.46720  0.23340  Biso   1.000  C
  H19      1.0000 0.83600  0.59820  0.71430  Biso   1.000  H
  H20      1.0000 0.16400  0.40180  0.28570  Biso   1.000  H
  C23      1.0000 0.54360  0.44470  0.00290  Biso   1.000  C
  C24      1.0000 0.45640  0.55530  0.99710  Biso   1.000  C
  H21      1.0000 0.61630  0.45600  0.10340  Biso   1.000  H
  H22      1.0000 0.38370  0.54400  0.89660  Biso   1.000  H
  H23      1.0000 0.44440  0.35130  0.96590  Biso   1.000  H
  H24      1.0000 0.55560  0.64870  0.03410  Biso   1.000  H
  N5       1.0000 0.33600  0.02200  0.98700  Biso   1.000  N
  N6       1.0000 0.66400  0.97800  0.01300  Biso   1.000  N
  H25      1.0000 0.43730  0.07360  0.06110  Biso   1.000  H
  H26      1.0000 0.56270  0.92640  0.93890  Biso   1.000  H
  H27      1.0000 0.34250  0.97880  0.90960  Biso   1.000  H
  H28      1.0000 0.65750  0.02120  0.09040  Biso   1.000  H
  H29      1.0000 0.25900  0.05700  0.96300  Biso   1.000  H
  H30      1.0000 0.74100  0.94300  0.03700  Biso   1.000  H
  C25      1.0000 0.16820  0.00860  0.99310  Biso   1.000  C
  C26      1.0000 0.83180  0.99140  0.00690  Biso   1.000  C
  C27      1.0000 0.15990  0.07770  0.11710  Biso   1.000  C
  C28      1.0000 0.84010  0.92230  0.88290  Biso   1.000  C
  H31      1.0000 0.27030  0.13200  0.19680  Biso   1.000  H
  H32      1.0000 0.72970  0.86800  0.80320  Biso   1.000  H
  C29      1.0000 0.00390  0.93220  0.87570  Biso   1.000  C
  C30      1.0000 0.99610  0.06780  0.12430  Biso   1.000  C
  H33      1.0000 0.00800  0.88690  0.79000  Biso   1.000  H
  H34      1.0000 0.99200  0.11310  0.21000  Biso   1.000  H
  C31      1.0000 0.59500  0.00220  0.52900  Biso   1.000  C
  C32      1.0000 0.40500  0.99780  0.47100  Biso   1.000  C
  H35      1.0000 0.62870  0.99470  0.62690  Biso   1.000  H
  H36      1.0000 0.37130  0.00530  0.37310  Biso   1.000  H
  H37      1.0000 0.67970  0.09270  0.53070  Biso   1.000  H
  H38      1.0000 0.32030  0.90730  0.46930  Biso   1.000  H
