data_image0
_cell_length_a       8.6245
_cell_length_b       21.039
_cell_length_c       10.674
_cell_angle_alpha    90
_cell_angle_beta     113.48
_cell_angle_gamma    90

_symmetry_space_group_name_H-M    "P 1"
_symmetry_int_tables_number       1

loop_
  _symmetry_equiv_pos_as_xyz
  'x, y, z'

loop_
  _atom_site_label
  _atom_site_occupancy
  _atom_site_fract_x
  _atom_site_fract_y
  _atom_site_fract_z
  _atom_site_thermal_displace_type
  _atom_site_B_iso_or_equiv
  _atom_site_type_symbol
  I1       1.0000 0.62643  0.53486  0.37538  Biso   1.000  I
  I2       1.0000 0.37357  0.03486  0.12462  Biso   1.000  I
  I3       1.0000 0.37357  0.46514  0.62462  Biso   1.000  I
  I4       1.0000 0.62643  0.96514  0.87538  Biso   1.000  I
  Cu1      1.0000 0.67863  0.47359  0.62083  Biso   1.000  Cu
  Cu2      1.0000 0.32137  0.97359  0.87917  Biso   1.000  Cu
  Cu3      1.0000 0.32137  0.52641  0.37917  Biso   1.000  Cu
  Cu4      1.0000 0.67863  0.02641  0.12083  Biso   1.000  Cu
  N1       1.0000 0.78920  0.38753  0.59990  Biso   1.000  N
  N2       1.0000 0.21080  0.88753  0.90010  Biso   1.000  N
  N3       1.0000 0.21080  0.61247  0.40010  Biso   1.000  N
  N4       1.0000 0.78920  0.11247  0.09990  Biso   1.000  N
  N5       1.0000 0.67020  0.33202  0.72540  Biso   1.000  N
  N6       1.0000 0.32980  0.83202  0.77460  Biso   1.000  N
  N7       1.0000 0.32980  0.66798  0.27460  Biso   1.000  N
  N8       1.0000 0.67020  0.16798  0.22540  Biso   1.000  N
  H1       1.0000 0.65880  0.36720  0.76190  Biso   1.000  H
  H2       1.0000 0.34120  0.86720  0.73810  Biso   1.000  H
  H3       1.0000 0.34120  0.63280  0.23810  Biso   1.000  H
  H4       1.0000 0.65880  0.13280  0.26190  Biso   1.000  H
  N9       1.0000 0.29040  0.04924  0.60540  Biso   1.000  N
  N10      1.0000 0.70960  0.54924  0.89460  Biso   1.000  N
  N11      1.0000 0.70960  0.95076  0.39460  Biso   1.000  N
  N12      1.0000 0.29040  0.45076  0.10540  Biso   1.000  N
  H5       1.0000 0.36960  0.02710  0.66450  Biso   1.000  H
  H6       1.0000 0.63040  0.52710  0.83550  Biso   1.000  H
  H7       1.0000 0.63040  0.97290  0.33550  Biso   1.000  H
  H8       1.0000 0.36960  0.47290  0.16450  Biso   1.000  H
  N13      1.0000 0.14030  0.03033  0.73770  Biso   1.000  N
  N14      1.0000 0.85970  0.53033  0.76230  Biso   1.000  N
  N15      1.0000 0.85970  0.96967  0.26230  Biso   1.000  N
  N16      1.0000 0.14030  0.46967  0.23770  Biso   1.000  N
  C1       1.0000 0.88730  0.38849  0.52900  Biso   1.000  C
  C2       1.0000 0.11270  0.88849  0.97100  Biso   1.000  C
  C3       1.0000 0.11270  0.61151  0.47100  Biso   1.000  C
  C4       1.0000 0.88730  0.11151  0.02900  Biso   1.000  C
  H9       1.0000 0.90450  0.42740  0.49530  Biso   1.000  H
  H10      1.0000 0.09550  0.92740  0.00470  Biso   1.000  H
  H11      1.0000 0.09550  0.57260  0.50470  Biso   1.000  H
  H12      1.0000 0.90450  0.07260  0.99530  Biso   1.000  H
  C5       1.0000 0.96390  0.33598  0.50270  Biso   1.000  C
  C6       1.0000 0.03610  0.83598  0.99730  Biso   1.000  C
  C7       1.0000 0.03610  0.66402  0.49730  Biso   1.000  C
  C8       1.0000 0.96390  0.16402  0.00270  Biso   1.000  C
  H13      1.0000 0.03180  0.33920  0.45370  Biso   1.000  H
  H14      1.0000 0.96820  0.83920  0.04630  Biso   1.000  H
  H15      1.0000 0.96820  0.66080  0.54630  Biso   1.000  H
  H16      1.0000 0.03180  0.16080  0.95370  Biso   1.000  H
  C9       1.0000 0.93650  0.27804  0.55180  Biso   1.000  C
  C10      1.0000 0.06350  0.77804  0.94820  Biso   1.000  C
  C11      1.0000 0.06350  0.72196  0.44820  Biso   1.000  C
  C12      1.0000 0.93650  0.22196  0.05180  Biso   1.000  C
  H17      1.0000 0.98500  0.24130  0.53510  Biso   1.000  H
  H18      1.0000 0.01500  0.74130  0.96490  Biso   1.000  H
  H19      1.0000 0.01500  0.75870  0.46490  Biso   1.000  H
  H20      1.0000 0.98500  0.25870  0.03510  Biso   1.000  H
  C13      1.0000 0.83790  0.27500  0.62500  Biso   1.000  C
  C14      1.0000 0.16210  0.77500  0.87500  Biso   1.000  C
  C15      1.0000 0.16210  0.72500  0.37500  Biso   1.000  C
  C16      1.0000 0.83790  0.22500  0.12500  Biso   1.000  C
  H21      1.0000 0.81890  0.23630  0.65840  Biso   1.000  H
  H22      1.0000 0.18110  0.73630  0.84160  Biso   1.000  H
  H23      1.0000 0.18110  0.76370  0.34160  Biso   1.000  H
  H24      1.0000 0.81890  0.26370  0.15840  Biso   1.000  H
  C17      1.0000 0.76560  0.33104  0.64910  Biso   1.000  C
  C18      1.0000 0.23440  0.83104  0.85090  Biso   1.000  C
  C19      1.0000 0.23440  0.66896  0.35090  Biso   1.000  C
  C20      1.0000 0.76560  0.16896  0.14910  Biso   1.000  C
  C21      1.0000 0.58770  0.27524  0.74660  Biso   1.000  C
  C22      1.0000 0.41230  0.77524  0.75340  Biso   1.000  C
  C23      1.0000 0.41230  0.72476  0.25340  Biso   1.000  C
  C24      1.0000 0.58770  0.22476  0.24660  Biso   1.000  C
  H25      1.0000 0.52480  0.28640  0.80120  Biso   1.000  H
  H26      1.0000 0.47520  0.78640  0.69880  Biso   1.000  H
  H27      1.0000 0.47520  0.71360  0.19880  Biso   1.000  H
  H28      1.0000 0.52480  0.21360  0.30120  Biso   1.000  H
  H29      1.0000 0.67390  0.24480  0.79850  Biso   1.000  H
  H30      1.0000 0.32610  0.74480  0.70150  Biso   1.000  H
  H31      1.0000 0.32610  0.75520  0.20150  Biso   1.000  H
  H32      1.0000 0.67390  0.25520  0.29850  Biso   1.000  H
  C25      1.0000 0.46800  0.24347  0.61630  Biso   1.000  C
  C26      1.0000 0.53200  0.74347  0.88370  Biso   1.000  C
  C27      1.0000 0.53200  0.75653  0.38370  Biso   1.000  C
  C28      1.0000 0.46800  0.25653  0.11630  Biso   1.000  C
  C29      1.0000 0.37890  0.27885  0.49910  Biso   1.000  C
  C30      1.0000 0.62110  0.77885  0.00090  Biso   1.000  C
  C31      1.0000 0.62110  0.72115  0.50090  Biso   1.000  C
  C32      1.0000 0.37890  0.22115  0.99910  Biso   1.000  C
  H33      1.0000 0.39270  0.32270  0.50000  Biso   1.000  H
  H34      1.0000 0.60730  0.82270  0.00000  Biso   1.000  H
  H35      1.0000 0.60730  0.67730  0.50000  Biso   1.000  H
  H36      1.0000 0.39270  0.17730  0.00000  Biso   1.000  H
  C33      1.0000 0.27030  0.24901  0.38190  Biso   1.000  C
  C34      1.0000 0.72970  0.74901  0.11810  Biso   1.000  C
  C35      1.0000 0.72970  0.75099  0.61810  Biso   1.000  C
  C36      1.0000 0.27030  0.25099  0.88190  Biso   1.000  C
  H37      1.0000 0.21020  0.27280  0.30420  Biso   1.000  H
  H38      1.0000 0.78980  0.77280  0.19580  Biso   1.000  H
  H39      1.0000 0.78980  0.72720  0.69580  Biso   1.000  H
  H40      1.0000 0.21020  0.22720  0.80420  Biso   1.000  H
  C37      1.0000 0.25040  0.18325  0.37950  Biso   1.000  C
  C38      1.0000 0.74960  0.68325  0.12050  Biso   1.000  C
  C39      1.0000 0.74960  0.81675  0.62050  Biso   1.000  C
  C40      1.0000 0.25040  0.31675  0.87950  Biso   1.000  C
  H41      1.0000 0.17790  0.16330  0.30000  Biso   1.000  H
  H42      1.0000 0.82210  0.66330  0.20000  Biso   1.000  H
  H43      1.0000 0.82210  0.83670  0.70000  Biso   1.000  H
  H44      1.0000 0.17790  0.33670  0.80000  Biso   1.000  H
  C41      1.0000 0.33760  0.14747  0.49450  Biso   1.000  C
  C42      1.0000 0.66240  0.64747  0.00550  Biso   1.000  C
  C43      1.0000 0.66240  0.85253  0.50550  Biso   1.000  C
  C44      1.0000 0.33760  0.35253  0.99450  Biso   1.000  C
  C45      1.0000 0.44600  0.17798  0.61300  Biso   1.000  C
  C46      1.0000 0.55400  0.67798  0.88700  Biso   1.000  C
  C47      1.0000 0.55400  0.82202  0.38700  Biso   1.000  C
  C48      1.0000 0.44600  0.32202  0.11300  Biso   1.000  C
  H45      1.0000 0.50460  0.15410  0.69100  Biso   1.000  H
  H46      1.0000 0.49540  0.65410  0.80900  Biso   1.000  H
  H47      1.0000 0.49540  0.84590  0.30900  Biso   1.000  H
  H48      1.0000 0.50460  0.34590  0.19100  Biso   1.000  H
  C49      1.0000 0.31960  0.07570  0.49060  Biso   1.000  C
  C50      1.0000 0.68040  0.57570  0.00940  Biso   1.000  C
  C51      1.0000 0.68040  0.92430  0.50940  Biso   1.000  C
  C52      1.0000 0.31960  0.42430  0.99060  Biso   1.000  C
  H49      1.0000 0.22620  0.06380  0.40650  Biso   1.000  H
  H50      1.0000 0.77380  0.56380  0.09350  Biso   1.000  H
  H51      1.0000 0.77380  0.93620  0.59350  Biso   1.000  H
  H52      1.0000 0.22620  0.43620  0.90650  Biso   1.000  H
  H53      1.0000 0.42150  0.05700  0.48900  Biso   1.000  H
  H54      1.0000 0.57850  0.55700  0.01100  Biso   1.000  H
  H55      1.0000 0.57850  0.94300  0.51100  Biso   1.000  H
  H56      1.0000 0.42150  0.44300  0.98900  Biso   1.000  H
  C53      1.0000 0.14540  0.05761  0.62440  Biso   1.000  C
  C54      1.0000 0.85460  0.55761  0.87560  Biso   1.000  C
  C55      1.0000 0.85460  0.94239  0.37560  Biso   1.000  C
  C56      1.0000 0.14540  0.44239  0.12440  Biso   1.000  C
  C57      1.0000 0.00590  0.09167  0.53200  Biso   1.000  C
  C58      1.0000 0.99410  0.59167  0.96800  Biso   1.000  C
  C59      1.0000 0.99410  0.90833  0.46800  Biso   1.000  C
  C60      1.0000 0.00590  0.40833  0.03200  Biso   1.000  C
  H57      1.0000 0.01060  0.10960  0.45400  Biso   1.000  H
  H58      1.0000 0.98940  0.60960  0.04600  Biso   1.000  H
  H59      1.0000 0.98940  0.89040  0.54600  Biso   1.000  H
  H60      1.0000 0.01060  0.39040  0.95400  Biso   1.000  H
  C61      1.0000 0.86410  0.09809  0.55780  Biso   1.000  C
  C62      1.0000 0.13590  0.59809  0.94220  Biso   1.000  C
  C63      1.0000 0.13590  0.90191  0.44220  Biso   1.000  C
  C64      1.0000 0.86410  0.40191  0.05780  Biso   1.000  C
  H61      1.0000 0.77150  0.12040  0.49740  Biso   1.000  H
  H62      1.0000 0.22850  0.62040  0.00260  Biso   1.000  H
  H63      1.0000 0.22850  0.87960  0.50260  Biso   1.000  H
  H64      1.0000 0.77150  0.37960  0.99740  Biso   1.000  H
  C65      1.0000 0.85850  0.07107  0.67500  Biso   1.000  C
  C66      1.0000 0.14150  0.57107  0.82500  Biso   1.000  C
  C67      1.0000 0.14150  0.92893  0.32500  Biso   1.000  C
  C68      1.0000 0.85850  0.42893  0.17500  Biso   1.000  C
  H65      1.0000 0.76370  0.07540  0.69530  Biso   1.000  H
  H66      1.0000 0.23630  0.57540  0.80470  Biso   1.000  H
  H67      1.0000 0.23630  0.92460  0.30470  Biso   1.000  H
  H68      1.0000 0.76370  0.42460  0.19530  Biso   1.000  H
  C69      1.0000 0.99750  0.03798  0.75890  Biso   1.000  C
  C70      1.0000 0.00250  0.53798  0.74110  Biso   1.000  C
  C71      1.0000 0.00250  0.96202  0.24110  Biso   1.000  C
  C72      1.0000 0.99750  0.46202  0.25890  Biso   1.000  C
  H69      1.0000 0.99320  0.01940  0.83650  Biso   1.000  H
  H70      1.0000 0.00680  0.51940  0.66350  Biso   1.000  H
  H71      1.0000 0.00680  0.98060  0.16350  Biso   1.000  H
  H72      1.0000 0.99320  0.48060  0.33650  Biso   1.000  H
