data_image0
_cell_length_a       9.2955
_cell_length_b       21.656
_cell_length_c       9.4977
_cell_angle_alpha    90
_cell_angle_beta     105.69
_cell_angle_gamma    90

_symmetry_space_group_name_H-M    "P 1"
_symmetry_int_tables_number       1

loop_
  _symmetry_equiv_pos_as_xyz
  'x, y, z'

loop_
  _atom_site_label
  _atom_site_occupancy
  _atom_site_fract_x
  _atom_site_fract_y
  _atom_site_fract_z
  _atom_site_thermal_displace_type
  _atom_site_B_iso_or_equiv
  _atom_site_type_symbol
  Cu1      1.0000 0.42327  0.05549  0.41759  Biso   1.000  Cu
  Cu2      1.0000 0.57673  0.55549  0.08241  Biso   1.000  Cu
  Cu3      1.0000 0.57673  0.94451  0.58241  Biso   1.000  Cu
  Cu4      1.0000 0.42327  0.44451  0.91759  Biso   1.000  Cu
  I1       1.0000 0.28735  0.95553  0.49887  Biso   1.000  I
  I2       1.0000 0.71265  0.45554  0.00113  Biso   1.000  I
  I3       1.0000 0.71265  0.04446  0.50113  Biso   1.000  I
  I4       1.0000 0.28735  0.54446  0.99887  Biso   1.000  I
  N1       1.0000 0.34190  0.06770  0.19430  Biso   1.000  N
  N2       1.0000 0.65810  0.56770  0.30570  Biso   1.000  N
  N3       1.0000 0.65810  0.93230  0.80570  Biso   1.000  N
  N4       1.0000 0.34190  0.43230  0.69430  Biso   1.000  N
  N5       1.0000 0.46940  0.08510  0.86440  Biso   1.000  N
  N6       1.0000 0.53060  0.58510  0.63560  Biso   1.000  N
  N7       1.0000 0.53060  0.91490  0.13560  Biso   1.000  N
  N8       1.0000 0.46940  0.41490  0.36440  Biso   1.000  N
  H1       1.0000 0.42960  0.09230  0.77310  Biso   1.000  H
  H2       1.0000 0.57040  0.59230  0.72690  Biso   1.000  H
  H3       1.0000 0.57040  0.90770  0.22690  Biso   1.000  H
  H4       1.0000 0.42960  0.40770  0.27310  Biso   1.000  H
  N9       1.0000 0.00760  0.33540  0.12280  Biso   1.000  N
  N10      1.0000 0.99240  0.83540  0.37720  Biso   1.000  N
  N11      1.0000 0.99240  0.66460  0.87720  Biso   1.000  N
  N12      1.0000 0.00760  0.16460  0.62280  Biso   1.000  N
  H5       1.0000 0.95730  0.36760  0.08650  Biso   1.000  H
  H6       1.0000 0.04270  0.86760  0.41350  Biso   1.000  H
  H7       1.0000 0.04270  0.63240  0.91350  Biso   1.000  H
  H8       1.0000 0.95730  0.13240  0.58650  Biso   1.000  H
  N13      1.0000 0.33470  0.36860  0.00020  Biso   1.000  N
  N14      1.0000 0.66530  0.86860  0.49980  Biso   1.000  N
  N15      1.0000 0.66530  0.63140  0.99980  Biso   1.000  N
  N16      1.0000 0.33470  0.13140  0.50020  Biso   1.000  N
  C1       1.0000 0.43020  0.07520  0.10540  Biso   1.000  C
  C2       1.0000 0.56980  0.57520  0.39460  Biso   1.000  C
  C3       1.0000 0.56980  0.92480  0.89460  Biso   1.000  C
  C4       1.0000 0.43020  0.42480  0.60540  Biso   1.000  C
  H9       1.0000 0.53270  0.07800  0.14720  Biso   1.000  H
  H10      1.0000 0.46730  0.57800  0.35280  Biso   1.000  H
  H11      1.0000 0.46730  0.92200  0.85280  Biso   1.000  H
  H12      1.0000 0.53270  0.42200  0.64720  Biso   1.000  H
  C5       1.0000 0.37770  0.07900  0.95450  Biso   1.000  C
  C6       1.0000 0.62230  0.57900  0.54550  Biso   1.000  C
  C7       1.0000 0.62230  0.92100  0.04550  Biso   1.000  C
  C8       1.0000 0.37770  0.42100  0.45450  Biso   1.000  C
  C9       1.0000 0.22190  0.07490  0.89590  Biso   1.000  C
  C10      1.0000 0.77810  0.57490  0.60410  Biso   1.000  C
  C11      1.0000 0.77810  0.92510  0.10410  Biso   1.000  C
  C12      1.0000 0.22190  0.42510  0.39590  Biso   1.000  C
  H13      1.0000 0.18050  0.07630  0.79520  Biso   1.000  H
  H14      1.0000 0.81950  0.57630  0.70480  Biso   1.000  H
  H15      1.0000 0.81950  0.92370  0.20480  Biso   1.000  H
  H16      1.0000 0.18050  0.42370  0.29520  Biso   1.000  H
  C13      1.0000 0.13230  0.06890  0.98630  Biso   1.000  C
  C14      1.0000 0.86770  0.56890  0.51370  Biso   1.000  C
  C15      1.0000 0.86770  0.93110  0.01370  Biso   1.000  C
  C16      1.0000 0.13230  0.43110  0.48630  Biso   1.000  C
  H17      1.0000 0.02900  0.06740  0.94830  Biso   1.000  H
  H18      1.0000 0.97100  0.56740  0.55170  Biso   1.000  H
  H19      1.0000 0.97100  0.93260  0.05170  Biso   1.000  H
  H20      1.0000 0.02900  0.43260  0.44830  Biso   1.000  H
  C17      1.0000 0.19550  0.06500  0.13550  Biso   1.000  C
  C18      1.0000 0.80450  0.56500  0.36450  Biso   1.000  C
  C19      1.0000 0.80450  0.93500  0.86450  Biso   1.000  C
  C20      1.0000 0.19550  0.43500  0.63550  Biso   1.000  C
  H21      1.0000 0.13320  0.06020  0.19660  Biso   1.000  H
  H22      1.0000 0.86680  0.56020  0.30340  Biso   1.000  H
  H23      1.0000 0.86680  0.93980  0.80340  Biso   1.000  H
  H24      1.0000 0.13320  0.43980  0.69660  Biso   1.000  H
  C21      1.0000 0.63050  0.07990  0.91590  Biso   1.000  C
  C22      1.0000 0.36950  0.57990  0.58410  Biso   1.000  C
  C23      1.0000 0.36950  0.92010  0.08410  Biso   1.000  C
  C24      1.0000 0.63050  0.42010  0.41590  Biso   1.000  C
  H25      1.0000 0.66930  0.07170  0.83270  Biso   1.000  H
  H26      1.0000 0.33070  0.57170  0.66730  Biso   1.000  H
  H27      1.0000 0.33070  0.92830  0.16730  Biso   1.000  H
  H28      1.0000 0.66930  0.42830  0.33270  Biso   1.000  H
  H29      1.0000 0.65500  0.04480  0.98120  Biso   1.000  H
  H30      1.0000 0.34500  0.54480  0.51880  Biso   1.000  H
  H31      1.0000 0.34500  0.95520  0.01880  Biso   1.000  H
  H32      1.0000 0.65500  0.45520  0.48120  Biso   1.000  H
  C25      1.0000 0.70820  0.13620  0.99470  Biso   1.000  C
  C26      1.0000 0.29180  0.63620  0.50530  Biso   1.000  C
  C27      1.0000 0.29180  0.86380  0.00530  Biso   1.000  C
  C28      1.0000 0.70820  0.36380  0.49470  Biso   1.000  C
  C29      1.0000 0.81120  0.13030  0.12930  Biso   1.000  C
  C30      1.0000 0.18880  0.63030  0.37070  Biso   1.000  C
  C31      1.0000 0.18880  0.86970  0.87070  Biso   1.000  C
  C32      1.0000 0.81120  0.36970  0.62930  Biso   1.000  C
  H33      1.0000 0.82880  0.09160  0.17330  Biso   1.000  H
  H34      1.0000 0.17120  0.59160  0.32670  Biso   1.000  H
  H35      1.0000 0.17120  0.90840  0.82670  Biso   1.000  H
  H36      1.0000 0.82880  0.40840  0.67330  Biso   1.000  H
  C33      1.0000 0.88850  0.18110  0.19970  Biso   1.000  C
  C34      1.0000 0.11150  0.68110  0.30030  Biso   1.000  C
  C35      1.0000 0.11150  0.81890  0.80030  Biso   1.000  C
  C36      1.0000 0.88850  0.31890  0.69970  Biso   1.000  C
  H37      1.0000 0.95680  0.17620  0.29080  Biso   1.000  H
  H38      1.0000 0.04320  0.67620  0.20920  Biso   1.000  H
  H39      1.0000 0.04320  0.82380  0.70920  Biso   1.000  H
  H40      1.0000 0.95680  0.32380  0.79080  Biso   1.000  H
  C37      1.0000 0.86570  0.23890  0.13670  Biso   1.000  C
  C38      1.0000 0.13430  0.73890  0.36330  Biso   1.000  C
  C39      1.0000 0.13430  0.76110  0.86330  Biso   1.000  C
  C40      1.0000 0.86570  0.26110  0.63670  Biso   1.000  C
  C41      1.0000 0.76190  0.24510  0.00170  Biso   1.000  C
  C42      1.0000 0.23810  0.74510  0.49830  Biso   1.000  C
  C43      1.0000 0.23810  0.75490  0.99830  Biso   1.000  C
  C44      1.0000 0.76190  0.25490  0.50170  Biso   1.000  C
  H41      1.0000 0.74480  0.28370  0.95770  Biso   1.000  H
  H42      1.0000 0.25520  0.78370  0.54230  Biso   1.000  H
  H43      1.0000 0.25520  0.71630  0.04230  Biso   1.000  H
  H44      1.0000 0.74480  0.21630  0.45770  Biso   1.000  H
  C45      1.0000 0.68350  0.19440  0.93190  Biso   1.000  C
  C46      1.0000 0.31650  0.69440  0.56810  Biso   1.000  C
  C47      1.0000 0.31650  0.80560  0.06810  Biso   1.000  C
  C48      1.0000 0.68350  0.30560  0.43190  Biso   1.000  C
  H45      1.0000 0.61350  0.19940  0.84200  Biso   1.000  H
  H46      1.0000 0.38650  0.69940  0.65800  Biso   1.000  H
  H47      1.0000 0.38650  0.80060  0.15800  Biso   1.000  H
  H48      1.0000 0.61350  0.30060  0.34200  Biso   1.000  H
  C49      1.0000 0.94700  0.29510  0.21500  Biso   1.000  C
  C50      1.0000 0.05300  0.79510  0.28500  Biso   1.000  C
  C51      1.0000 0.05300  0.70490  0.78500  Biso   1.000  C
  C52      1.0000 0.94700  0.20490  0.71500  Biso   1.000  C
  H49      1.0000 0.87840  0.31870  0.25470  Biso   1.000  H
  H50      1.0000 0.12160  0.81870  0.24530  Biso   1.000  H
  H51      1.0000 0.12160  0.68130  0.74530  Biso   1.000  H
  H52      1.0000 0.87840  0.18130  0.75470  Biso   1.000  H
  H53      1.0000 0.02810  0.28130  0.29650  Biso   1.000  H
  H54      1.0000 0.97190  0.78130  0.20350  Biso   1.000  H
  H55      1.0000 0.97190  0.71870  0.70350  Biso   1.000  H
  H56      1.0000 0.02810  0.21870  0.79650  Biso   1.000  H
  C53      1.0000 0.20460  0.37270  0.03050  Biso   1.000  C
  C54      1.0000 0.79540  0.87270  0.46950  Biso   1.000  C
  C55      1.0000 0.79540  0.62730  0.96950  Biso   1.000  C
  C56      1.0000 0.20460  0.12730  0.53050  Biso   1.000  C
  H57      1.0000 0.15260  0.40970  0.01040  Biso   1.000  H
  H58      1.0000 0.84740  0.90970  0.48960  Biso   1.000  H
  H59      1.0000 0.84740  0.59030  0.98960  Biso   1.000  H
  H60      1.0000 0.15260  0.09030  0.51040  Biso   1.000  H
  C57      1.0000 0.14000  0.32470  0.09100  Biso   1.000  C
  C58      1.0000 0.86000  0.82470  0.40900  Biso   1.000  C
  C59      1.0000 0.86000  0.67530  0.90900  Biso   1.000  C
  C60      1.0000 0.14000  0.17530  0.59100  Biso   1.000  C
  C61      1.0000 0.21840  0.26930  0.11690  Biso   1.000  C
  C62      1.0000 0.78160  0.76930  0.38310  Biso   1.000  C
  C63      1.0000 0.78160  0.73070  0.88310  Biso   1.000  C
  C64      1.0000 0.21840  0.23070  0.61690  Biso   1.000  C
  H61      1.0000 0.18060  0.23580  0.15660  Biso   1.000  H
  H62      1.0000 0.81940  0.73580  0.34340  Biso   1.000  H
  H63      1.0000 0.81940  0.76420  0.84340  Biso   1.000  H
  H64      1.0000 0.18060  0.26420  0.65660  Biso   1.000  H
  C65      1.0000 0.35240  0.26490  0.08310  Biso   1.000  C
  C66      1.0000 0.64760  0.76490  0.41690  Biso   1.000  C
  C67      1.0000 0.64760  0.73510  0.91690  Biso   1.000  C
  C68      1.0000 0.35240  0.23510  0.58310  Biso   1.000  C
  H65      1.0000 0.40540  0.22790  0.09840  Biso   1.000  H
  H66      1.0000 0.59460  0.72790  0.40160  Biso   1.000  H
  H67      1.0000 0.59460  0.77210  0.90160  Biso   1.000  H
  H68      1.0000 0.40540  0.27210  0.59840  Biso   1.000  H
  C69      1.0000 0.40850  0.31520  0.02650  Biso   1.000  C
  C70      1.0000 0.59150  0.81520  0.47350  Biso   1.000  C
  C71      1.0000 0.59150  0.68480  0.97350  Biso   1.000  C
  C72      1.0000 0.40850  0.18480  0.52650  Biso   1.000  C
  H69      1.0000 0.50050  0.31190  0.00600  Biso   1.000  H
  H70      1.0000 0.49950  0.81190  0.49400  Biso   1.000  H
  H71      1.0000 0.49950  0.68810  0.99400  Biso   1.000  H
  H72      1.0000 0.50050  0.18810  0.50600  Biso   1.000  H
