data_image0
_cell_length_a       8.2067
_cell_length_b       12.7371
_cell_length_c       12.8425
_cell_angle_alpha    112.781
_cell_angle_beta     102.329
_cell_angle_gamma    102.976

_symmetry_space_group_name_H-M    "P 1"
_symmetry_int_tables_number       1

loop_
  _symmetry_equiv_pos_as_xyz
  'x, y, z'

loop_
  _atom_site_label
  _atom_site_occupancy
  _atom_site_fract_x
  _atom_site_fract_y
  _atom_site_fract_z
  _atom_site_thermal_displace_type
  _atom_site_B_iso_or_equiv
  _atom_site_type_symbol
  I1       1.0000 0.75568  0.34780  0.46398  Biso   1.000  I
  I2       1.0000 0.24432  0.65220  0.53602  Biso   1.000  I
  Cu1      1.0000 0.09579  0.41874  0.47907  Biso   1.000  Cu
  Cu2      1.0000 0.90421  0.58126  0.52093  Biso   1.000  Cu
  N1       1.0000 0.11510  0.31910  0.31530  Biso   1.000  N
  N2       1.0000 0.88490  0.68090  0.68470  Biso   1.000  N
  N3       1.0000 0.45020  0.30460  0.17160  Biso   1.000  N
  N4       1.0000 0.54980  0.69540  0.82840  Biso   1.000  N
  H1       1.0000 0.53670  0.36340  0.23160  Biso   1.000  H
  H2       1.0000 0.46330  0.63660  0.76840  Biso   1.000  H
  N5       1.0000 0.22940  0.40340  0.62350  Biso   1.000  N
  N6       1.0000 0.77060  0.59660  0.37650  Biso   1.000  N
  N7       1.0000 0.61310  0.31980  0.70680  Biso   1.000  N
  N8       1.0000 0.38690  0.68020  0.29320  Biso   1.000  N
  H3       1.0000 0.64020  0.30910  0.64330  Biso   1.000  H
  H4       1.0000 0.35980  0.69090  0.35670  Biso   1.000  H
  C1       1.0000 0.97220  0.23120  0.22540  Biso   1.000  C
  C2       1.0000 0.02780  0.76880  0.77460  Biso   1.000  C
  H5       1.0000 0.86440  0.21570  0.23890  Biso   1.000  H
  H6       1.0000 0.13560  0.78430  0.76110  Biso   1.000  H
  C3       1.0000 0.97810  0.16350  0.11460  Biso   1.000  C
  C4       1.0000 0.02190  0.83650  0.88540  Biso   1.000  C
  H7       1.0000 0.87590  0.10330  0.05430  Biso   1.000  H
  H8       1.0000 0.12410  0.89670  0.94570  Biso   1.000  H
  C5       1.0000 0.13630  0.18500  0.09300  Biso   1.000  C
  C6       1.0000 0.86370  0.81500  0.90700  Biso   1.000  C
  H9       1.0000 0.14140  0.14020  0.01760  Biso   1.000  H
  H10      1.0000 0.85860  0.85980  0.98240  Biso   1.000  H
  C7       1.0000 0.28900  0.27440  0.18470  Biso   1.000  C
  C8       1.0000 0.71100  0.72560  0.81530  Biso   1.000  C
  C9       1.0000 0.26830  0.33940  0.29410  Biso   1.000  C
  C10      1.0000 0.73170  0.66060  0.70590  Biso   1.000  C
  H11      1.0000 0.36780  0.40080  0.35610  Biso   1.000  H
  H12      1.0000 0.63220  0.59920  0.64390  Biso   1.000  H
  C11      1.0000 0.48330  0.24280  0.06170  Biso   1.000  C
  C12      1.0000 0.51670  0.75720  0.93830  Biso   1.000  C
  H13      1.0000 0.59570  0.29220  0.06610  Biso   1.000  H
  H14      1.0000 0.40430  0.70780  0.93390  Biso   1.000  H
  H15      1.0000 0.39180  0.23760  0.99620  Biso   1.000  H
  H16      1.0000 0.60820  0.76240  0.00380  Biso   1.000  H
  C13      1.0000 0.48890  0.11610  0.03100  Biso   1.000  C
  C14      1.0000 0.51110  0.88390  0.96900  Biso   1.000  C
  C15      1.0000 0.48010  0.04210  0.91680  Biso   1.000  C
  C16      1.0000 0.51990  0.95790  0.08320  Biso   1.000  C
  H17      1.0000 0.46530  0.06920  0.85890  Biso   1.000  H
  H18      1.0000 0.53470  0.93080  0.14110  Biso   1.000  H
  C17      1.0000 0.50690  0.07190  0.11340  Biso   1.000  C
  C18      1.0000 0.49310  0.92810  0.88660  Biso   1.000  C
  H19      1.0000 0.51050  0.11930  0.19060  Biso   1.000  H
  H20      1.0000 0.48950  0.88070  0.80940  Biso   1.000  H
  C19      1.0000 0.18270  0.42980  0.72200  Biso   1.000  C
  C20      1.0000 0.81730  0.57020  0.27800  Biso   1.000  C
  H21      1.0000 0.08400  0.45390  0.72380  Biso   1.000  H
  H22      1.0000 0.91600  0.54610  0.27620  Biso   1.000  H
  C21      1.0000 0.27430  0.42280  0.81990  Biso   1.000  C
  C22      1.0000 0.72570  0.57720  0.18010  Biso   1.000  C
  H23      1.0000 0.23780  0.44230  0.88670  Biso   1.000  H
  H24      1.0000 0.76220  0.55770  0.11330  Biso   1.000  H
  C23      1.0000 0.42120  0.38680  0.81970  Biso   1.000  C
  C24      1.0000 0.57880  0.61320  0.18030  Biso   1.000  C
  H25      1.0000 0.48420  0.38160  0.88590  Biso   1.000  H
  H26      1.0000 0.51580  0.61840  0.11410  Biso   1.000  H
  C25      1.0000 0.47320  0.35830  0.71820  Biso   1.000  C
  C26      1.0000 0.52680  0.64170  0.28180  Biso   1.000  C
  C27      1.0000 0.37150  0.36900  0.62300  Biso   1.000  C
  C28      1.0000 0.62850  0.63100  0.37700  Biso   1.000  C
  H27      1.0000 0.40500  0.35110  0.55500  Biso   1.000  H
  H28      1.0000 0.59500  0.64890  0.44500  Biso   1.000  H
  C29      1.0000 0.71880  0.29590  0.79410  Biso   1.000  C
  C30      1.0000 0.28120  0.70410  0.20590  Biso   1.000  C
  H29      1.0000 0.77470  0.24050  0.75380  Biso   1.000  H
  H30      1.0000 0.22530  0.75950  0.24620  Biso   1.000  H
  H31      1.0000 0.63980  0.25470  0.82330  Biso   1.000  H
  H32      1.0000 0.36020  0.74530  0.17670  Biso   1.000  H
  C31      1.0000 0.86210  0.40460  0.90130  Biso   1.000  C
  C32      1.0000 0.13790  0.59540  0.09870  Biso   1.000  C
  C33      1.0000 0.95290  0.38740  0.99340  Biso   1.000  C
  C34      1.0000 0.04710  0.61260  0.00660  Biso   1.000  C
  H33      1.0000 0.92060  0.31110  0.99010  Biso   1.000  H
  H34      1.0000 0.07940  0.68890  0.00990  Biso   1.000  H
  C35      1.0000 0.90960  0.51880  0.90990  Biso   1.000  C
  C36      1.0000 0.09040  0.48120  0.09010  Biso   1.000  C
  H35      1.0000 0.84820  0.53290  0.84980  Biso   1.000  H
  H36      1.0000 0.15180  0.46710  0.15020  Biso   1.000  H
  C37      1.0000 0.07100  0.93200  0.23900  Biso   1.000  C
  C38      1.0000 0.92900  0.06800  0.76100  Biso   1.000  C
  H37      1.0000 0.09440  0.86510  0.18300  Biso   1.000  H
  H38      1.0000 0.90560  0.13490  0.81700  Biso   1.000  H
  H39      1.0000 0.00110  0.96150  0.19370  Biso   1.000  H
  H40      1.0000 0.99890  0.03850  0.80630  Biso   1.000  H
  Cl1      1.0000 0.26200  0.04200  0.32900  Biso   1.000  Cl
  Cl2      1.0000 0.73800  0.95800  0.67100  Biso   1.000  Cl
  Cl3      1.0000 0.95400  0.88100  0.31100  Biso   1.000  Cl
  Cl4      1.0000 0.04600  0.11900  0.68900  Biso   1.000  Cl
  C39      1.0000 0.10100  0.03000  0.37500  Biso   1.000  C
  C40      1.0000 0.89900  0.97000  0.62500  Biso   1.000  C
  Cl5      1.0000 0.22800  0.97800  0.44500  Biso   1.000  Cl
  Cl6      1.0000 0.77200  0.02200  0.55500  Biso   1.000  Cl
  Cl7      1.0000 0.95600  0.92800  0.24200  Biso   1.000  Cl
  Cl8      1.0000 0.04400  0.07200  0.75800  Biso   1.000  Cl
  H41      1.0000 0.17660  0.09320  0.36520  Biso   1.000  H
  H42      1.0000 0.82340  0.90680  0.63480  Biso   1.000  H
  H43      1.0000 0.03630  0.06630  0.42530  Biso   1.000  H
  H44      1.0000 0.96370  0.93370  0.57470  Biso   1.000  H
