data_image0
_cell_length_a       12.7
_cell_length_b       14.989
_cell_length_c       17.037
_cell_angle_alpha    108.43
_cell_angle_beta     108.18
_cell_angle_gamma    99.63

_symmetry_space_group_name_H-M    "P 1"
_symmetry_int_tables_number       1

loop_
  _symmetry_equiv_pos_as_xyz
  'x, y, z'

loop_
  _atom_site_label
  _atom_site_occupancy
  _atom_site_fract_x
  _atom_site_fract_y
  _atom_site_fract_z
  _atom_site_thermal_displace_type
  _atom_site_B_iso_or_equiv
  _atom_site_type_symbol
  Cu1      1.0000 0.28071  0.75348  0.34804  Biso   1.000  Cu
  Cu2      1.0000 0.71929  0.24652  0.65196  Biso   1.000  Cu
  Cu3      1.0000 0.23510  0.75821  0.15625  Biso   1.000  Cu
  Cu4      1.0000 0.76490  0.24179  0.84375  Biso   1.000  Cu
  Br1      1.0000 0.10426  0.63740  0.19087  Biso   1.000  Br
  Br2      1.0000 0.89574  0.36260  0.80913  Biso   1.000  Br
  Br3      1.0000 0.41003  0.87003  0.31006  Biso   1.000  Br
  Br4      1.0000 0.58997  0.12997  0.68994  Biso   1.000  Br
  P1       1.0000 0.36703  0.65411  0.39889  Biso   1.000  P
  P2       1.0000 0.63297  0.34589  0.60111  Biso   1.000  P
  P3       1.0000 0.14392  0.85318  0.10183  Biso   1.000  P
  P4       1.0000 0.85608  0.14682  0.89817  Biso   1.000  P
  N1       1.0000 0.29280  0.65800  0.07680  Biso   1.000  N
  N2       1.0000 0.70720  0.34200  0.92320  Biso   1.000  N
  N3       1.0000 0.47010  0.76890  0.12610  Biso   1.000  N
  N4       1.0000 0.52990  0.23110  0.87390  Biso   1.000  N
  H1       1.0000 0.44390  0.81000  0.15700  Biso   1.000  H
  H2       1.0000 0.55610  0.19000  0.84300  Biso   1.000  H
  N5       1.0000 0.05510  0.73270  0.38770  Biso   1.000  N
  N6       1.0000 0.94490  0.26730  0.61230  Biso   1.000  N
  H3       1.0000 0.08670  0.69210  0.36250  Biso   1.000  H
  H4       1.0000 0.91330  0.30790  0.63750  Biso   1.000  H
  N7       1.0000 0.22070  0.85230  0.42510  Biso   1.000  N
  N8       1.0000 0.77930  0.14770  0.57490  Biso   1.000  N
  C1       1.0000 0.21610  0.56970  0.02090  Biso   1.000  C
  C2       1.0000 0.78390  0.43030  0.97910  Biso   1.000  C
  H5       1.0000 0.14420  0.55500  0.02460  Biso   1.000  H
  H6       1.0000 0.85580  0.44500  0.97540  Biso   1.000  H
  C3       1.0000 0.23810  0.50080  0.95950  Biso   1.000  C
  C4       1.0000 0.76190  0.49920  0.04050  Biso   1.000  C
  H7       1.0000 0.18180  0.44080  0.92220  Biso   1.000  H
  H8       1.0000 0.81820  0.55920  0.07780  Biso   1.000  H
  C5       1.0000 0.34080  0.51930  0.95270  Biso   1.000  C
  C6       1.0000 0.65920  0.48070  0.04730  Biso   1.000  C
  H9       1.0000 0.35610  0.47260  0.91020  Biso   1.000  H
  H10      1.0000 0.64390  0.52740  0.08980  Biso   1.000  H
  C7       1.0000 0.42360  0.60770  0.00880  Biso   1.000  C
  C8       1.0000 0.57640  0.39230  0.99120  Biso   1.000  C
  H11      1.0000 0.49620  0.62120  0.00610  Biso   1.000  H
  H12      1.0000 0.50380  0.37880  0.99390  Biso   1.000  H
  C9       1.0000 0.39610  0.67760  0.07070  Biso   1.000  C
  C10      1.0000 0.60390  0.32240  0.92930  Biso   1.000  C
  C11      1.0000 0.59000  0.80240  0.13740  Biso   1.000  C
  C12      1.0000 0.41000  0.19760  0.86260  Biso   1.000  C
  H13      1.0000 0.61480  0.87380  0.16250  Biso   1.000  H
  H14      1.0000 0.38520  0.12620  0.83750  Biso   1.000  H
  H15      1.0000 0.59360  0.78040  0.07850  Biso   1.000  H
  H16      1.0000 0.40640  0.21960  0.92150  Biso   1.000  H
  C13      1.0000 0.67540  0.76780  0.19700  Biso   1.000  C
  C14      1.0000 0.32460  0.23220  0.80300  Biso   1.000  C
  C15      1.0000 0.77490  0.75660  0.18300  Biso   1.000  C
  C16      1.0000 0.22510  0.24340  0.81700  Biso   1.000  C
  H17      1.0000 0.78510  0.76400  0.13350  Biso   1.000  H
  H18      1.0000 0.21490  0.23600  0.86650  Biso   1.000  H
  C17      1.0000 0.85870  0.73470  0.24090  Biso   1.000  C
  C18      1.0000 0.14130  0.26530  0.75910  Biso   1.000  C
  H19      1.0000 0.92520  0.72860  0.23020  Biso   1.000  H
  H20      1.0000 0.07480  0.27140  0.76980  Biso   1.000  H
  C19      1.0000 0.84700  0.72150  0.31470  Biso   1.000  C
  C20      1.0000 0.15300  0.27850  0.68530  Biso   1.000  C
  C21      1.0000 0.74470  0.73000  0.32610  Biso   1.000  C
  C22      1.0000 0.25530  0.27000  0.67390  Biso   1.000  C
  H21      1.0000 0.73260  0.71960  0.37410  Biso   1.000  H
  H22      1.0000 0.26740  0.28040  0.62590  Biso   1.000  H
  C23      1.0000 0.66170  0.75290  0.26950  Biso   1.000  C
  C24      1.0000 0.33830  0.24710  0.73050  Biso   1.000  C
  H23      1.0000 0.59500  0.75870  0.27990  Biso   1.000  H
  H24      1.0000 0.40500  0.24130  0.72010  Biso   1.000  H
  C25      1.0000 0.93570  0.69390  0.37620  Biso   1.000  C
  C26      1.0000 0.06430  0.30610  0.62380  Biso   1.000  C
  H25      1.0000 0.93130  0.71660  0.43470  Biso   1.000  H
  H26      1.0000 0.06870  0.28340  0.56530  Biso   1.000  H
  H27      1.0000 0.91600  0.62270  0.35340  Biso   1.000  H
  H28      1.0000 0.08400  0.37730  0.64660  Biso   1.000  H
  C27      1.0000 0.11970  0.82780  0.43510  Biso   1.000  C
  C28      1.0000 0.88030  0.17220  0.56490  Biso   1.000  C
  C29      1.0000 0.08790  0.89870  0.49310  Biso   1.000  C
  C30      1.0000 0.91210  0.10130  0.50690  Biso   1.000  C
  H29      1.0000 0.01720  0.88220  0.49830  Biso   1.000  H
  H30      1.0000 0.98280  0.11780  0.50170  Biso   1.000  H
  C31      1.0000 0.16210  0.99150  0.54120  Biso   1.000  C
  C32      1.0000 0.83790  0.00850  0.45880  Biso   1.000  C
  H31      1.0000 0.14300  0.03840  0.58070  Biso   1.000  H
  H32      1.0000 0.85700  0.96160  0.41930  Biso   1.000  H
  C33      1.0000 0.26220  0.01530  0.53190  Biso   1.000  C
  C34      1.0000 0.73780  0.98470  0.46810  Biso   1.000  C
  H33      1.0000 0.31290  0.07870  0.56450  Biso   1.000  H
  H34      1.0000 0.68710  0.92130  0.43550  Biso   1.000  H
  C35      1.0000 0.28980  0.94570  0.47420  Biso   1.000  C
  C36      1.0000 0.71020  0.05430  0.52580  Biso   1.000  C
  H35      1.0000 0.35990  0.96360  0.46840  Biso   1.000  H
  H36      1.0000 0.64010  0.03640  0.53160  Biso   1.000  H
  C37      1.0000 0.28700  0.58690  0.44360  Biso   1.000  C
  C38      1.0000 0.71300  0.41310  0.55640  Biso   1.000  C
  C39      1.0000 0.16870  0.53810  0.39220  Biso   1.000  C
  C40      1.0000 0.83130  0.46190  0.60780  Biso   1.000  C
  H37      1.0000 0.13400  0.54150  0.33680  Biso   1.000  H
  H38      1.0000 0.86600  0.45850  0.66320  Biso   1.000  H
  C41      1.0000 0.10310  0.48530  0.42260  Biso   1.000  C
  C42      1.0000 0.89690  0.51470  0.57740  Biso   1.000  C
  H39      1.0000 0.02460  0.45380  0.38790  Biso   1.000  H
  H40      1.0000 0.97540  0.54620  0.61210  Biso   1.000  H
  C43      1.0000 0.15230  0.47890  0.50270  Biso   1.000  C
  C44      1.0000 0.84770  0.52110  0.49730  Biso   1.000  C
  H41      1.0000 0.10720  0.44240  0.52210  Biso   1.000  H
  H42      1.0000 0.89280  0.55760  0.47790  Biso   1.000  H
  C45      1.0000 0.26570  0.52470  0.55480  Biso   1.000  C
  C46      1.0000 0.73430  0.47530  0.44520  Biso   1.000  C
  H43      1.0000 0.29810  0.52050  0.61010  Biso   1.000  H
  H44      1.0000 0.70190  0.47950  0.38990  Biso   1.000  H
  C47      1.0000 0.33430  0.57860  0.52510  Biso   1.000  C
  C48      1.0000 0.66570  0.42140  0.47490  Biso   1.000  C
  H45      1.0000 0.41270  0.60920  0.56070  Biso   1.000  H
  H46      1.0000 0.58730  0.39080  0.43930  Biso   1.000  H
  C49      1.0000 0.50810  0.71650  0.49030  Biso   1.000  C
  C50      1.0000 0.49190  0.28350  0.50970  Biso   1.000  C
  C51      1.0000 0.52390  0.80900  0.55430  Biso   1.000  C
  C52      1.0000 0.47610  0.19100  0.44570  Biso   1.000  C
  H47      1.0000 0.46430  0.83800  0.54680  Biso   1.000  H
  H48      1.0000 0.53570  0.16200  0.45320  Biso   1.000  H
  C53      1.0000 0.62610  0.85690  0.62780  Biso   1.000  C
  C54      1.0000 0.37390  0.14310  0.37220  Biso   1.000  C
  H49      1.0000 0.63460  0.91760  0.67030  Biso   1.000  H
  H50      1.0000 0.36540  0.08240  0.32970  Biso   1.000  H
  C55      1.0000 0.71580  0.81660  0.63930  Biso   1.000  C
  C56      1.0000 0.28420  0.18340  0.36070  Biso   1.000  C
  H51      1.0000 0.78460  0.84970  0.68970  Biso   1.000  H
  H52      1.0000 0.21540  0.15030  0.31030  Biso   1.000  H
  C57      1.0000 0.70510  0.72840  0.57760  Biso   1.000  C
  C58      1.0000 0.29490  0.27160  0.42240  Biso   1.000  C
  H53      1.0000 0.76700  0.70190  0.58480  Biso   1.000  H
  H54      1.0000 0.23300  0.29810  0.41520  Biso   1.000  H
  C59      1.0000 0.60120  0.67800  0.50380  Biso   1.000  C
  C60      1.0000 0.39880  0.32200  0.49620  Biso   1.000  C
  H55      1.0000 0.59380  0.61700  0.46240  Biso   1.000  H
  H56      1.0000 0.40620  0.38300  0.53760  Biso   1.000  H
  C61      1.0000 0.39460  0.55650  0.31890  Biso   1.000  C
  C62      1.0000 0.60540  0.44350  0.68110  Biso   1.000  C
  C63      1.0000 0.40400  0.46880  0.32810  Biso   1.000  C
  C64      1.0000 0.59600  0.53120  0.67190  Biso   1.000  C
  H57      1.0000 0.39280  0.45730  0.37590  Biso   1.000  H
  H58      1.0000 0.60720  0.54270  0.62410  Biso   1.000  H
  C65      1.0000 0.42950  0.39860  0.26800  Biso   1.000  C
  C66      1.0000 0.57050  0.60140  0.73200  Biso   1.000  C
  H59      1.0000 0.43540  0.34030  0.27490  Biso   1.000  H
  H60      1.0000 0.56460  0.65970  0.72510  Biso   1.000  H
  C67      1.0000 0.44610  0.41660  0.19690  Biso   1.000  C
  C68      1.0000 0.55390  0.58340  0.80310  Biso   1.000  C
  H61      1.0000 0.46450  0.37060  0.15620  Biso   1.000  H
  H62      1.0000 0.53550  0.62940  0.84380  Biso   1.000  H
  C69      1.0000 0.43540  0.50170  0.18710  Biso   1.000  C
  C70      1.0000 0.56460  0.49830  0.81290  Biso   1.000  C
  H63      1.0000 0.44650  0.51290  0.13920  Biso   1.000  H
  H64      1.0000 0.55350  0.48710  0.86080  Biso   1.000  H
  C71      1.0000 0.40840  0.57160  0.24600  Biso   1.000  C
  C72      1.0000 0.59160  0.42840  0.75400  Biso   1.000  C
  H65      1.0000 0.39960  0.62850  0.23710  Biso   1.000  H
  H66      1.0000 0.60040  0.37150  0.76290  Biso   1.000  H
  C73      1.0000 0.04520  0.79020  0.98440  Biso   1.000  C
  C74      1.0000 0.95480  0.20980  0.01560  Biso   1.000  C
  C75      1.0000 0.03900  0.82970  0.92070  Biso   1.000  C
  C76      1.0000 0.96100  0.17030  0.07930  Biso   1.000  C
  H67      1.0000 0.08620  0.89280  0.93800  Biso   1.000  H
  H68      1.0000 0.91380  0.10720  0.06200  Biso   1.000  H
  C77      1.0000 0.96390  0.77740  0.83130  Biso   1.000  C
  C78      1.0000 0.03610  0.22260  0.16870  Biso   1.000  C
  H69      1.0000 0.96250  0.80510  0.78940  Biso   1.000  H
  H70      1.0000 0.03750  0.19490  0.21060  Biso   1.000  H
  C79      1.0000 0.89260  0.68630  0.80520  Biso   1.000  C
  C80      1.0000 0.10740  0.31370  0.19480  Biso   1.000  C
  H71      1.0000 0.84280  0.65080  0.74530  Biso   1.000  H
  H72      1.0000 0.15720  0.34920  0.25470  Biso   1.000  H
  C81      1.0000 0.89480  0.64680  0.86840  Biso   1.000  C
  C82      1.0000 0.10520  0.35320  0.13160  Biso   1.000  C
  H73      1.0000 0.84350  0.58550  0.85120  Biso   1.000  H
  H74      1.0000 0.15650  0.41450  0.14880  Biso   1.000  H
  C83      1.0000 0.97160  0.69630  0.95660  Biso   1.000  C
  C84      1.0000 0.02840  0.30370  0.04340  Biso   1.000  C
  H75      1.0000 0.97420  0.66710  0.99760  Biso   1.000  H
  H76      1.0000 0.02580  0.33290  0.00240  Biso   1.000  H
  C85      1.0000 0.23640  0.96100  0.10440  Biso   1.000  C
  C86      1.0000 0.76360  0.03900  0.89560  Biso   1.000  C
  C87      1.0000 0.33860  0.95520  0.09120  Biso   1.000  C
  C88      1.0000 0.66140  0.04480  0.90880  Biso   1.000  C
  H77      1.0000 0.35920  0.89730  0.08400  Biso   1.000  H
  H78      1.0000 0.64080  0.10270  0.91600  Biso   1.000  H
  C89      1.0000 0.41010  0.03450  0.08870  Biso   1.000  C
  C90      1.0000 0.58990  0.96550  0.91130  Biso   1.000  C
  H79      1.0000 0.47760  0.02920  0.07950  Biso   1.000  H
  H80      1.0000 0.52240  0.97080  0.92050  Biso   1.000  H
  C91      1.0000 0.38120  0.12030  0.09990  Biso   1.000  C
  C92      1.0000 0.61880  0.87970  0.90010  Biso   1.000  C
  H81      1.0000 0.42980  0.17370  0.09930  Biso   1.000  H
  H82      1.0000 0.57020  0.82630  0.90070  Biso   1.000  H
  C93      1.0000 0.28220  0.12780  0.11190  Biso   1.000  C
  C94      1.0000 0.71780  0.87220  0.88810  Biso   1.000  C
  H83      1.0000 0.26270  0.18620  0.11860  Biso   1.000  H
  H84      1.0000 0.73730  0.81380  0.88140  Biso   1.000  H
  C95      1.0000 0.20980  0.04980  0.11420  Biso   1.000  C
  C96      1.0000 0.79020  0.95020  0.88580  Biso   1.000  C
  H85      1.0000 0.14200  0.05640  0.12240  Biso   1.000  H
  H86      1.0000 0.85800  0.94360  0.87760  Biso   1.000  H
  C97      1.0000 0.05290  0.90440  0.15600  Biso   1.000  C
  C98      1.0000 0.94710  0.09560  0.84400  Biso   1.000  C
  C99      1.0000 0.95380  0.92470  0.11190  Biso   1.000  C
  C100     1.0000 0.04620  0.07530  0.88810  Biso   1.000  C
  H87      1.0000 0.92730  0.90660  0.05000  Biso   1.000  H
  H88      1.0000 0.07270  0.09340  0.95000  Biso   1.000  H
  C101     1.0000 0.89340  0.97170  0.15890  Biso   1.000  C
  C102     1.0000 0.10660  0.02830  0.84110  Biso   1.000  C
  H89      1.0000 0.82730  0.98530  0.12870  Biso   1.000  H
  H90      1.0000 0.17270  0.01470  0.87130  Biso   1.000  H
  C103     1.0000 0.93160  0.99800  0.24990  Biso   1.000  C
  C104     1.0000 0.06840  0.00200  0.75010  Biso   1.000  C
  H91      1.0000 0.89130  0.02900  0.28170  Biso   1.000  H
  H92      1.0000 0.10870  0.97100  0.71830  Biso   1.000  H
  C105     1.0000 0.02870  0.97850  0.29330  Biso   1.000  C
  C106     1.0000 0.97130  0.02150  0.70670  Biso   1.000  C
  H93      1.0000 0.05420  0.99710  0.35520  Biso   1.000  H
  H94      1.0000 0.94580  0.00290  0.64480  Biso   1.000  H
  C107     1.0000 0.09050  0.93260  0.24960  Biso   1.000  C
  C108     1.0000 0.90950  0.06740  0.75040  Biso   1.000  C
  H95      1.0000 0.15660  0.92010  0.28130  Biso   1.000  H
  H96      1.0000 0.84340  0.07990  0.71870  Biso   1.000  H
  C109     1.0000 0.76000  0.22070  0.36360  Biso   1.000  C
  C110     1.0000 0.24000  0.77930  0.63640  Biso   1.000  C
  H97      1.0000 0.77070  0.23180  0.42520  Biso   1.000  H
  H98      1.0000 0.22930  0.76820  0.57480  Biso   1.000  H
  H99      1.0000 0.72520  0.26940  0.34920  Biso   1.000  H
  H100     1.0000 0.27480  0.73060  0.65080  Biso   1.000  H
  C111     1.0000 0.20840  0.67350  0.83950  Biso   1.000  C
  C112     1.0000 0.79160  0.32650  0.16050  Biso   1.000  C
  H101     1.0000 0.20120  0.65450  0.88740  Biso   1.000  H
  H102     1.0000 0.79880  0.34550  0.11260  Biso   1.000  H
  H103     1.0000 0.13860  0.68970  0.81280  Biso   1.000  H
  H104     1.0000 0.86140  0.31030  0.18720  Biso   1.000  H
  Cl1      1.0000 0.67110  0.11820  0.30270  Biso   1.000  Cl
  Cl2      1.0000 0.32890  0.88180  0.69730  Biso   1.000  Cl
  Cl3      1.0000 0.89280  0.24420  0.36010  Biso   1.000  Cl
  Cl4      1.0000 0.10720  0.75580  0.63990  Biso   1.000  Cl
  Cl5      1.0000 0.32170  0.77200  0.88230  Biso   1.000  Cl
  Cl6      1.0000 0.67830  0.22800  0.11770  Biso   1.000  Cl
  Cl7      1.0000 0.21920  0.57980  0.76260  Biso   1.000  Cl
  Cl8      1.0000 0.78080  0.42020  0.23740  Biso   1.000  Cl
