data_image0
_cell_length_a       8.2047
_cell_length_b       29.11
_cell_length_c       16.703
_cell_angle_alpha    90
_cell_angle_beta     95.6
_cell_angle_gamma    90

_symmetry_space_group_name_H-M    "P 1"
_symmetry_int_tables_number       1

loop_
  _symmetry_equiv_pos_as_xyz
  'x, y, z'

loop_
  _atom_site_label
  _atom_site_occupancy
  _atom_site_fract_x
  _atom_site_fract_y
  _atom_site_fract_z
  _atom_site_thermal_displace_type
  _atom_site_B_iso_or_equiv
  _atom_site_type_symbol
  Cu1      1.0000 0.50089  0.40894  0.15785  Biso   1.000  Cu
  Cu2      1.0000 0.49911  0.40894  0.34215  Biso   1.000  Cu
  Cu3      1.0000 0.00089  0.90894  0.15785  Biso   1.000  Cu
  Cu4      1.0000 0.99911  0.90894  0.34215  Biso   1.000  Cu
  Cu5      1.0000 0.49911  0.59106  0.84215  Biso   1.000  Cu
  Cu6      1.0000 0.50089  0.59106  0.65785  Biso   1.000  Cu
  Cu7      1.0000 0.99911  0.09106  0.84215  Biso   1.000  Cu
  Cu8      1.0000 0.00089  0.09106  0.65785  Biso   1.000  Cu
  Cu9      1.0000 0.38287  0.32586  0.17648  Biso   1.000  Cu
  Cu10     1.0000 0.61713  0.32586  0.32352  Biso   1.000  Cu
  Cu11     1.0000 0.88287  0.82586  0.17648  Biso   1.000  Cu
  Cu12     1.0000 0.11713  0.82586  0.32352  Biso   1.000  Cu
  Cu13     1.0000 0.61713  0.67414  0.82352  Biso   1.000  Cu
  Cu14     1.0000 0.38287  0.67414  0.67648  Biso   1.000  Cu
  Cu15     1.0000 0.11713  0.17414  0.82352  Biso   1.000  Cu
  Cu16     1.0000 0.88287  0.17414  0.67648  Biso   1.000  Cu
  I1       1.0000 0.69511  0.33755  0.16358  Biso   1.000  I
  I2       1.0000 0.30489  0.33755  0.33642  Biso   1.000  I
  I3       1.0000 0.19511  0.83755  0.16358  Biso   1.000  I
  I4       1.0000 0.80489  0.83755  0.33642  Biso   1.000  I
  I5       1.0000 0.30489  0.66245  0.83642  Biso   1.000  I
  I6       1.0000 0.69511  0.66245  0.66358  Biso   1.000  I
  I7       1.0000 0.80489  0.16245  0.83642  Biso   1.000  I
  I8       1.0000 0.19511  0.16245  0.66358  Biso   1.000  I
  I9       1.0000 0.19875  0.39559  0.11110  Biso   1.000  I
  I10      1.0000 0.80125  0.39559  0.38890  Biso   1.000  I
  I11      1.0000 0.69875  0.89559  0.11110  Biso   1.000  I
  I12      1.0000 0.30125  0.89559  0.38890  Biso   1.000  I
  I13      1.0000 0.80125  0.60441  0.88890  Biso   1.000  I
  I14      1.0000 0.19875  0.60441  0.61110  Biso   1.000  I
  I15      1.0000 0.30125  0.10441  0.88890  Biso   1.000  I
  I16      1.0000 0.69875  0.10441  0.61110  Biso   1.000  I
  N1       1.0000 0.62120  0.46910  0.15230  Biso   1.000  N
  N2       1.0000 0.37880  0.46910  0.34770  Biso   1.000  N
  N3       1.0000 0.12120  0.96910  0.15230  Biso   1.000  N
  N4       1.0000 0.87880  0.96910  0.34770  Biso   1.000  N
  N5       1.0000 0.37880  0.53090  0.84770  Biso   1.000  N
  N6       1.0000 0.62120  0.53090  0.65230  Biso   1.000  N
  N7       1.0000 0.87880  0.03090  0.84770  Biso   1.000  N
  N8       1.0000 0.12120  0.03090  0.65230  Biso   1.000  N
  N9       1.0000 0.38690  0.50620  0.10280  Biso   1.000  N
  N10      1.0000 0.61310  0.50620  0.39720  Biso   1.000  N
  N11      1.0000 0.88690  0.00620  0.10280  Biso   1.000  N
  N12      1.0000 0.11310  0.00620  0.39720  Biso   1.000  N
  N13      1.0000 0.61310  0.49380  0.89720  Biso   1.000  N
  N14      1.0000 0.38690  0.49380  0.60280  Biso   1.000  N
  N15      1.0000 0.11310  0.99380  0.89720  Biso   1.000  N
  N16      1.0000 0.88690  0.99380  0.60280  Biso   1.000  N
  H1       1.0000 0.33370  0.48380  0.12170  Biso   1.000  H
  H2       1.0000 0.66630  0.48380  0.37830  Biso   1.000  H
  H3       1.0000 0.83370  0.98380  0.12170  Biso   1.000  H
  H4       1.0000 0.16630  0.98380  0.37830  Biso   1.000  H
  H5       1.0000 0.66630  0.51620  0.87830  Biso   1.000  H
  H6       1.0000 0.33370  0.51620  0.62170  Biso   1.000  H
  H7       1.0000 0.16630  0.01620  0.87830  Biso   1.000  H
  H8       1.0000 0.83370  0.01620  0.62170  Biso   1.000  H
  N17      1.0000 0.98140  0.73530  0.08230  Biso   1.000  N
  N18      1.0000 0.01860  0.73530  0.41770  Biso   1.000  N
  N19      1.0000 0.48140  0.23530  0.08230  Biso   1.000  N
  N20      1.0000 0.51860  0.23530  0.41770  Biso   1.000  N
  N21      1.0000 0.01860  0.26470  0.91770  Biso   1.000  N
  N22      1.0000 0.98140  0.26470  0.58230  Biso   1.000  N
  N23      1.0000 0.51860  0.76470  0.91770  Biso   1.000  N
  N24      1.0000 0.48140  0.76470  0.58230  Biso   1.000  N
  H9       1.0000 0.03330  0.76010  0.09640  Biso   1.000  H
  H10      1.0000 0.96670  0.76010  0.40360  Biso   1.000  H
  H11      1.0000 0.53330  0.26010  0.09640  Biso   1.000  H
  H12      1.0000 0.46670  0.26010  0.40360  Biso   1.000  H
  H13      1.0000 0.96670  0.23990  0.90360  Biso   1.000  H
  H14      1.0000 0.03330  0.23990  0.59640  Biso   1.000  H
  H15      1.0000 0.46670  0.73990  0.90360  Biso   1.000  H
  H16      1.0000 0.53330  0.73990  0.59640  Biso   1.000  H
  N25      1.0000 0.76580  0.76700  0.14020  Biso   1.000  N
  N26      1.0000 0.23420  0.76700  0.35980  Biso   1.000  N
  N27      1.0000 0.26580  0.26700  0.14020  Biso   1.000  N
  N28      1.0000 0.73420  0.26700  0.35980  Biso   1.000  N
  N29      1.0000 0.23420  0.23300  0.85980  Biso   1.000  N
  N30      1.0000 0.76580  0.23300  0.64020  Biso   1.000  N
  N31      1.0000 0.73420  0.73300  0.85980  Biso   1.000  N
  N32      1.0000 0.26580  0.73300  0.64020  Biso   1.000  N
  C1       1.0000 0.78480  0.46870  0.16910  Biso   1.000  C
  C2       1.0000 0.21520  0.46870  0.33090  Biso   1.000  C
  C3       1.0000 0.28480  0.96870  0.16910  Biso   1.000  C
  C4       1.0000 0.71520  0.96870  0.33090  Biso   1.000  C
  C5       1.0000 0.21520  0.53130  0.83090  Biso   1.000  C
  C6       1.0000 0.78480  0.53130  0.66910  Biso   1.000  C
  C7       1.0000 0.71520  0.03130  0.83090  Biso   1.000  C
  C8       1.0000 0.28480  0.03130  0.66910  Biso   1.000  C
  H17      1.0000 0.83300  0.44230  0.19240  Biso   1.000  H
  H18      1.0000 0.16700  0.44230  0.30760  Biso   1.000  H
  H19      1.0000 0.33300  0.94230  0.19240  Biso   1.000  H
  H20      1.0000 0.66700  0.94230  0.30760  Biso   1.000  H
  H21      1.0000 0.16700  0.55770  0.80760  Biso   1.000  H
  H22      1.0000 0.83300  0.55770  0.69240  Biso   1.000  H
  H23      1.0000 0.66700  0.05770  0.80760  Biso   1.000  H
  H24      1.0000 0.33300  0.05770  0.69240  Biso   1.000  H
  C9       1.0000 0.88290  0.50400  0.15450  Biso   1.000  C
  C10      1.0000 0.11710  0.50400  0.34550  Biso   1.000  C
  C11      1.0000 0.38290  0.00400  0.15450  Biso   1.000  C
  C12      1.0000 0.61710  0.00400  0.34550  Biso   1.000  C
  C13      1.0000 0.11710  0.49600  0.84550  Biso   1.000  C
  C14      1.0000 0.88290  0.49600  0.65450  Biso   1.000  C
  C15      1.0000 0.61710  0.99600  0.84550  Biso   1.000  C
  C16      1.0000 0.38290  0.99600  0.65450  Biso   1.000  C
  H25      1.0000 0.99530  0.50220  0.16830  Biso   1.000  H
  H26      1.0000 0.00470  0.50220  0.33170  Biso   1.000  H
  H27      1.0000 0.49530  0.00220  0.16830  Biso   1.000  H
  H28      1.0000 0.50470  0.00220  0.33170  Biso   1.000  H
  H29      1.0000 0.00470  0.49780  0.83170  Biso   1.000  H
  H30      1.0000 0.99530  0.49780  0.66830  Biso   1.000  H
  H31      1.0000 0.50470  0.99780  0.83170  Biso   1.000  H
  H32      1.0000 0.49530  0.99780  0.66830  Biso   1.000  H
  C17      1.0000 0.81200  0.54360  0.11780  Biso   1.000  C
  C18      1.0000 0.18800  0.54360  0.38220  Biso   1.000  C
  C19      1.0000 0.31200  0.04360  0.11780  Biso   1.000  C
  C20      1.0000 0.68800  0.04360  0.38220  Biso   1.000  C
  C21      1.0000 0.18800  0.45640  0.88220  Biso   1.000  C
  C22      1.0000 0.81200  0.45640  0.61780  Biso   1.000  C
  C23      1.0000 0.68800  0.95640  0.88220  Biso   1.000  C
  C24      1.0000 0.31200  0.95640  0.61780  Biso   1.000  C
  H33      1.0000 0.87730  0.56810  0.10520  Biso   1.000  H
  H34      1.0000 0.12270  0.56810  0.39480  Biso   1.000  H
  H35      1.0000 0.37730  0.06810  0.10520  Biso   1.000  H
  H36      1.0000 0.62270  0.06810  0.39480  Biso   1.000  H
  H37      1.0000 0.12270  0.43190  0.89480  Biso   1.000  H
  H38      1.0000 0.87730  0.43190  0.60520  Biso   1.000  H
  H39      1.0000 0.62270  0.93190  0.89480  Biso   1.000  H
  H40      1.0000 0.37730  0.93190  0.60520  Biso   1.000  H
  C25      1.0000 0.64630  0.54540  0.10120  Biso   1.000  C
  C26      1.0000 0.35370  0.54540  0.39880  Biso   1.000  C
  C27      1.0000 0.14630  0.04540  0.10120  Biso   1.000  C
  C28      1.0000 0.85370  0.04540  0.39880  Biso   1.000  C
  C29      1.0000 0.35370  0.45460  0.89880  Biso   1.000  C
  C30      1.0000 0.64630  0.45460  0.60120  Biso   1.000  C
  C31      1.0000 0.85370  0.95460  0.89880  Biso   1.000  C
  C32      1.0000 0.14630  0.95460  0.60120  Biso   1.000  C
  H41      1.0000 0.59670  0.57160  0.07820  Biso   1.000  H
  H42      1.0000 0.40330  0.57160  0.42180  Biso   1.000  H
  H43      1.0000 0.09670  0.07160  0.07820  Biso   1.000  H
  H44      1.0000 0.90330  0.07160  0.42180  Biso   1.000  H
  H45      1.0000 0.40330  0.42840  0.92180  Biso   1.000  H
  H46      1.0000 0.59670  0.42840  0.57820  Biso   1.000  H
  H47      1.0000 0.90330  0.92840  0.92180  Biso   1.000  H
  H48      1.0000 0.09670  0.92840  0.57820  Biso   1.000  H
  C33      1.0000 0.55010  0.50690  0.11920  Biso   1.000  C
  C34      1.0000 0.44990  0.50690  0.38080  Biso   1.000  C
  C35      1.0000 0.05010  0.00690  0.11920  Biso   1.000  C
  C36      1.0000 0.94990  0.00690  0.38080  Biso   1.000  C
  C37      1.0000 0.44990  0.49310  0.88080  Biso   1.000  C
  C38      1.0000 0.55010  0.49310  0.61920  Biso   1.000  C
  C39      1.0000 0.94990  0.99310  0.88080  Biso   1.000  C
  C40      1.0000 0.05010  0.99310  0.61920  Biso   1.000  C
  C41      1.0000 0.29380  0.54090  0.05470  Biso   1.000  C
  C42      1.0000 0.70620  0.54090  0.44530  Biso   1.000  C
  C43      1.0000 0.79380  0.04090  0.05470  Biso   1.000  C
  C44      1.0000 0.20620  0.04090  0.44530  Biso   1.000  C
  C45      1.0000 0.70620  0.45910  0.94530  Biso   1.000  C
  C46      1.0000 0.29380  0.45910  0.55470  Biso   1.000  C
  C47      1.0000 0.20620  0.95910  0.94530  Biso   1.000  C
  C48      1.0000 0.79380  0.95910  0.55470  Biso   1.000  C
  H49      1.0000 0.19430  0.52680  0.03000  Biso   1.000  H
  H50      1.0000 0.80570  0.52680  0.47000  Biso   1.000  H
  H51      1.0000 0.69430  0.02680  0.03000  Biso   1.000  H
  H52      1.0000 0.30570  0.02680  0.47000  Biso   1.000  H
  H53      1.0000 0.80570  0.47320  0.97000  Biso   1.000  H
  H54      1.0000 0.19430  0.47320  0.53000  Biso   1.000  H
  H55      1.0000 0.30570  0.97320  0.97000  Biso   1.000  H
  H56      1.0000 0.69430  0.97320  0.53000  Biso   1.000  H
  H57      1.0000 0.35780  0.55040  0.01180  Biso   1.000  H
  H58      1.0000 0.64220  0.55040  0.48820  Biso   1.000  H
  H59      1.0000 0.85780  0.05040  0.01180  Biso   1.000  H
  H60      1.0000 0.14220  0.05040  0.48820  Biso   1.000  H
  H61      1.0000 0.64220  0.44960  0.98820  Biso   1.000  H
  H62      1.0000 0.35780  0.44960  0.51180  Biso   1.000  H
  H63      1.0000 0.14220  0.94960  0.98820  Biso   1.000  H
  H64      1.0000 0.85780  0.94960  0.51180  Biso   1.000  H
  C49      1.0000 0.24710  0.58330  0.09950  Biso   1.000  C
  C50      1.0000 0.75290  0.58330  0.40050  Biso   1.000  C
  C51      1.0000 0.74710  0.08330  0.09950  Biso   1.000  C
  C52      1.0000 0.25290  0.08330  0.40050  Biso   1.000  C
  C53      1.0000 0.75290  0.41670  0.90050  Biso   1.000  C
  C54      1.0000 0.24710  0.41670  0.59950  Biso   1.000  C
  C55      1.0000 0.25290  0.91670  0.90050  Biso   1.000  C
  C56      1.0000 0.74710  0.91670  0.59950  Biso   1.000  C
  C57      1.0000 0.26730  0.58600  0.18240  Biso   1.000  C
  C58      1.0000 0.73270  0.58600  0.31760  Biso   1.000  C
  C59      1.0000 0.76730  0.08600  0.18240  Biso   1.000  C
  C60      1.0000 0.23270  0.08600  0.31760  Biso   1.000  C
  C61      1.0000 0.73270  0.41400  0.81760  Biso   1.000  C
  C62      1.0000 0.26730  0.41400  0.68240  Biso   1.000  C
  C63      1.0000 0.23270  0.91400  0.81760  Biso   1.000  C
  C64      1.0000 0.76730  0.91400  0.68240  Biso   1.000  C
  H65      1.0000 0.31170  0.56150  0.21280  Biso   1.000  H
  H66      1.0000 0.68830  0.56150  0.28720  Biso   1.000  H
  H67      1.0000 0.81170  0.06150  0.21280  Biso   1.000  H
  H68      1.0000 0.18830  0.06150  0.28720  Biso   1.000  H
  H69      1.0000 0.68830  0.43850  0.78720  Biso   1.000  H
  H70      1.0000 0.31170  0.43850  0.71280  Biso   1.000  H
  H71      1.0000 0.18830  0.93850  0.78720  Biso   1.000  H
  H72      1.0000 0.81170  0.93850  0.71280  Biso   1.000  H
  C65      1.0000 0.22040  0.62590  0.22010  Biso   1.000  C
  C66      1.0000 0.77960  0.62590  0.27990  Biso   1.000  C
  C67      1.0000 0.72040  0.12590  0.22010  Biso   1.000  C
  C68      1.0000 0.27960  0.12590  0.27990  Biso   1.000  C
  C69      1.0000 0.77960  0.37410  0.77990  Biso   1.000  C
  C70      1.0000 0.22040  0.37410  0.72010  Biso   1.000  C
  C71      1.0000 0.27960  0.87410  0.77990  Biso   1.000  C
  C72      1.0000 0.72040  0.87410  0.72010  Biso   1.000  C
  H73      1.0000 0.23480  0.62790  0.27590  Biso   1.000  H
  H74      1.0000 0.76520  0.62790  0.22410  Biso   1.000  H
  H75      1.0000 0.73480  0.12790  0.27590  Biso   1.000  H
  H76      1.0000 0.26520  0.12790  0.22410  Biso   1.000  H
  H77      1.0000 0.76520  0.37210  0.72410  Biso   1.000  H
  H78      1.0000 0.23480  0.37210  0.77590  Biso   1.000  H
  H79      1.0000 0.26520  0.87210  0.72410  Biso   1.000  H
  H80      1.0000 0.73480  0.87210  0.77590  Biso   1.000  H
  C73      1.0000 0.15290  0.66230  0.17580  Biso   1.000  C
  C74      1.0000 0.84710  0.66230  0.32420  Biso   1.000  C
  C75      1.0000 0.65290  0.16230  0.17580  Biso   1.000  C
  C76      1.0000 0.34710  0.16230  0.32420  Biso   1.000  C
  C77      1.0000 0.84710  0.33770  0.82420  Biso   1.000  C
  C78      1.0000 0.15290  0.33770  0.67580  Biso   1.000  C
  C79      1.0000 0.34710  0.83770  0.82420  Biso   1.000  C
  C80      1.0000 0.65290  0.83770  0.67580  Biso   1.000  C
  H81      1.0000 0.12050  0.68860  0.20190  Biso   1.000  H
  H82      1.0000 0.87950  0.68860  0.29810  Biso   1.000  H
  H83      1.0000 0.62050  0.18860  0.20190  Biso   1.000  H
  H84      1.0000 0.37950  0.18860  0.29810  Biso   1.000  H
  H85      1.0000 0.87950  0.31140  0.79810  Biso   1.000  H
  H86      1.0000 0.12050  0.31140  0.70190  Biso   1.000  H
  H87      1.0000 0.37950  0.81140  0.79810  Biso   1.000  H
  H88      1.0000 0.62050  0.81140  0.70190  Biso   1.000  H
  C81      1.0000 0.13320  0.65990  0.09280  Biso   1.000  C
  C82      1.0000 0.86680  0.65990  0.40720  Biso   1.000  C
  C83      1.0000 0.63320  0.15990  0.09280  Biso   1.000  C
  C84      1.0000 0.36680  0.15990  0.40720  Biso   1.000  C
  C85      1.0000 0.86680  0.34010  0.90720  Biso   1.000  C
  C86      1.0000 0.13320  0.34010  0.59280  Biso   1.000  C
  C87      1.0000 0.36680  0.84010  0.90720  Biso   1.000  C
  C88      1.0000 0.63320  0.84010  0.59280  Biso   1.000  C
  C89      1.0000 0.17910  0.62050  0.05570  Biso   1.000  C
  C90      1.0000 0.82090  0.62050  0.44430  Biso   1.000  C
  C91      1.0000 0.67910  0.12050  0.05570  Biso   1.000  C
  C92      1.0000 0.32090  0.12050  0.44430  Biso   1.000  C
  C93      1.0000 0.82090  0.37950  0.94430  Biso   1.000  C
  C94      1.0000 0.17910  0.37950  0.55570  Biso   1.000  C
  C95      1.0000 0.32090  0.87950  0.94430  Biso   1.000  C
  C96      1.0000 0.67910  0.87950  0.55570  Biso   1.000  C
  H89      1.0000 0.16430  0.61860  0.99990  Biso   1.000  H
  H90      1.0000 0.83570  0.61860  0.50010  Biso   1.000  H
  H91      1.0000 0.66430  0.11860  0.99990  Biso   1.000  H
  H92      1.0000 0.33570  0.11860  0.50010  Biso   1.000  H
  H93      1.0000 0.83570  0.38140  0.00010  Biso   1.000  H
  H94      1.0000 0.16430  0.38140  0.49990  Biso   1.000  H
  H95      1.0000 0.33570  0.88140  0.00010  Biso   1.000  H
  H96      1.0000 0.66430  0.88140  0.49990  Biso   1.000  H
  C97      1.0000 0.06790  0.70030  0.04050  Biso   1.000  C
  C98      1.0000 0.93210  0.70030  0.45950  Biso   1.000  C
  C99      1.0000 0.56790  0.20030  0.04050  Biso   1.000  C
  C100     1.0000 0.43210  0.20030  0.45950  Biso   1.000  C
  C101     1.0000 0.93210  0.29970  0.95950  Biso   1.000  C
  C102     1.0000 0.06790  0.29970  0.54050  Biso   1.000  C
  C103     1.0000 0.43210  0.79970  0.95950  Biso   1.000  C
  C104     1.0000 0.56790  0.79970  0.54050  Biso   1.000  C
  H97      1.0000 0.15930  0.71470  0.01750  Biso   1.000  H
  H98      1.0000 0.84070  0.71470  0.48250  Biso   1.000  H
  H99      1.0000 0.65930  0.21470  0.01750  Biso   1.000  H
  H100     1.0000 0.34070  0.21470  0.48250  Biso   1.000  H
  H101     1.0000 0.84070  0.28530  0.98250  Biso   1.000  H
  H102     1.0000 0.15930  0.28530  0.51750  Biso   1.000  H
  H103     1.0000 0.34070  0.78530  0.98250  Biso   1.000  H
  H104     1.0000 0.65930  0.78530  0.51750  Biso   1.000  H
  H105     1.0000 0.99440  0.68840  0.99630  Biso   1.000  H
  H106     1.0000 0.00560  0.68840  0.50370  Biso   1.000  H
  H107     1.0000 0.49440  0.18840  0.99630  Biso   1.000  H
  H108     1.0000 0.50560  0.18840  0.50370  Biso   1.000  H
  H109     1.0000 0.00560  0.31160  0.00370  Biso   1.000  H
  H110     1.0000 0.99440  0.31160  0.49630  Biso   1.000  H
  H111     1.0000 0.50560  0.81160  0.00370  Biso   1.000  H
  H112     1.0000 0.49440  0.81160  0.49630  Biso   1.000  H
  C105     1.0000 0.82610  0.73130  0.10020  Biso   1.000  C
  C106     1.0000 0.17390  0.73130  0.39980  Biso   1.000  C
  C107     1.0000 0.32610  0.23130  0.10020  Biso   1.000  C
  C108     1.0000 0.67390  0.23130  0.39980  Biso   1.000  C
  C109     1.0000 0.17390  0.26870  0.89980  Biso   1.000  C
  C110     1.0000 0.82610  0.26870  0.60020  Biso   1.000  C
  C111     1.0000 0.67390  0.76870  0.89980  Biso   1.000  C
  C112     1.0000 0.32610  0.76870  0.60020  Biso   1.000  C
  C113     1.0000 0.72650  0.69290  0.07940  Biso   1.000  C
  C114     1.0000 0.27350  0.69290  0.42060  Biso   1.000  C
  C115     1.0000 0.22650  0.19290  0.07940  Biso   1.000  C
  C116     1.0000 0.77350  0.19290  0.42060  Biso   1.000  C
  C117     1.0000 0.27350  0.30710  0.92060  Biso   1.000  C
  C118     1.0000 0.72650  0.30710  0.57940  Biso   1.000  C
  C119     1.0000 0.77350  0.80710  0.92060  Biso   1.000  C
  C120     1.0000 0.22650  0.80710  0.57940  Biso   1.000  C
  H113     1.0000 0.76830  0.66850  0.05170  Biso   1.000  H
  H114     1.0000 0.23170  0.66850  0.44830  Biso   1.000  H
  H115     1.0000 0.26830  0.16850  0.05170  Biso   1.000  H
  H116     1.0000 0.73170  0.16850  0.44830  Biso   1.000  H
  H117     1.0000 0.23170  0.33150  0.94830  Biso   1.000  H
  H118     1.0000 0.76830  0.33150  0.55170  Biso   1.000  H
  H119     1.0000 0.73170  0.83150  0.94830  Biso   1.000  H
  H120     1.0000 0.26830  0.83150  0.55170  Biso   1.000  H
  C121     1.0000 0.57070  0.69110  0.09920  Biso   1.000  C
  C122     1.0000 0.42930  0.69110  0.40080  Biso   1.000  C
  C123     1.0000 0.07070  0.19110  0.09920  Biso   1.000  C
  C124     1.0000 0.92930  0.19110  0.40080  Biso   1.000  C
  C125     1.0000 0.42930  0.30890  0.90080  Biso   1.000  C
  C126     1.0000 0.57070  0.30890  0.59920  Biso   1.000  C
  C127     1.0000 0.92930  0.80890  0.90080  Biso   1.000  C
  C128     1.0000 0.07070  0.80890  0.59920  Biso   1.000  C
  H121     1.0000 0.50570  0.66550  0.08580  Biso   1.000  H
  H122     1.0000 0.49430  0.66550  0.41420  Biso   1.000  H
  H123     1.0000 0.00570  0.16550  0.08580  Biso   1.000  H
  H124     1.0000 0.99430  0.16550  0.41420  Biso   1.000  H
  H125     1.0000 0.49430  0.33450  0.91420  Biso   1.000  H
  H126     1.0000 0.50570  0.33450  0.58580  Biso   1.000  H
  H127     1.0000 0.99430  0.83450  0.91420  Biso   1.000  H
  H128     1.0000 0.00570  0.83450  0.58580  Biso   1.000  H
  C129     1.0000 0.50980  0.72720  0.13920  Biso   1.000  C
  C130     1.0000 0.49020  0.72720  0.36080  Biso   1.000  C
  C131     1.0000 0.00980  0.22720  0.13920  Biso   1.000  C
  C132     1.0000 0.99020  0.22720  0.36080  Biso   1.000  C
  C133     1.0000 0.49020  0.27280  0.86080  Biso   1.000  C
  C134     1.0000 0.50980  0.27280  0.63920  Biso   1.000  C
  C135     1.0000 0.99020  0.77280  0.86080  Biso   1.000  C
  C136     1.0000 0.00980  0.77280  0.63920  Biso   1.000  C
  H129     1.0000 0.40330  0.72670  0.15380  Biso   1.000  H
  H130     1.0000 0.59670  0.72670  0.34620  Biso   1.000  H
  H131     1.0000 0.90330  0.22670  0.15380  Biso   1.000  H
  H132     1.0000 0.09670  0.22670  0.34620  Biso   1.000  H
  H133     1.0000 0.59670  0.27330  0.84620  Biso   1.000  H
  H134     1.0000 0.40330  0.27330  0.65380  Biso   1.000  H
  H135     1.0000 0.09670  0.77330  0.84620  Biso   1.000  H
  H136     1.0000 0.90330  0.77330  0.65380  Biso   1.000  H
  C137     1.0000 0.61040  0.76450  0.15730  Biso   1.000  C
  C138     1.0000 0.38960  0.76450  0.34270  Biso   1.000  C
  C139     1.0000 0.11040  0.26450  0.15730  Biso   1.000  C
  C140     1.0000 0.88960  0.26450  0.34270  Biso   1.000  C
  C141     1.0000 0.38960  0.23550  0.84270  Biso   1.000  C
  C142     1.0000 0.61040  0.23550  0.65730  Biso   1.000  C
  C143     1.0000 0.88960  0.73550  0.84270  Biso   1.000  C
  C144     1.0000 0.11040  0.73550  0.65730  Biso   1.000  C
  H137     1.0000 0.56730  0.78940  0.18300  Biso   1.000  H
  H138     1.0000 0.43270  0.78940  0.31700  Biso   1.000  H
  H139     1.0000 0.06730  0.28940  0.18300  Biso   1.000  H
  H140     1.0000 0.93270  0.28940  0.31700  Biso   1.000  H
  H141     1.0000 0.43270  0.21060  0.81700  Biso   1.000  H
  H142     1.0000 0.56730  0.21060  0.68300  Biso   1.000  H
  H143     1.0000 0.93270  0.71060  0.81700  Biso   1.000  H
  H144     1.0000 0.06730  0.71060  0.68300  Biso   1.000  H
