data_image0
_cell_length_a       10.198
_cell_length_b       10.819
_cell_length_c       8.9218
_cell_angle_alpha    90
_cell_angle_beta     109.11
_cell_angle_gamma    90

_symmetry_space_group_name_H-M    "P 1"
_symmetry_int_tables_number       1

loop_
  _symmetry_equiv_pos_as_xyz
  'x, y, z'

loop_
  _atom_site_label
  _atom_site_occupancy
  _atom_site_fract_x
  _atom_site_fract_y
  _atom_site_fract_z
  _atom_site_thermal_displace_type
  _atom_site_B_iso_or_equiv
  _atom_site_type_symbol
  Cu1      1.0000 0.23814  0.34834  0.21983  Biso   1.000  Cu
  Cu2      1.0000 0.76186  0.84834  0.28017  Biso   1.000  Cu
  Cu3      1.0000 0.76186  0.65166  0.78017  Biso   1.000  Cu
  Cu4      1.0000 0.23814  0.15166  0.71983  Biso   1.000  Cu
  N1       1.0000 0.20710  0.60400  0.33940  Biso   1.000  N
  N2       1.0000 0.79290  0.10400  0.16060  Biso   1.000  N
  N3       1.0000 0.79290  0.39600  0.66060  Biso   1.000  N
  N4       1.0000 0.20710  0.89600  0.83940  Biso   1.000  N
  N5       1.0000 0.29200  0.52330  0.29770  Biso   1.000  N
  N6       1.0000 0.70800  0.02330  0.20230  Biso   1.000  N
  N7       1.0000 0.70800  0.47670  0.70230  Biso   1.000  N
  N8       1.0000 0.29200  0.97670  0.79770  Biso   1.000  N
  N9       1.0000 0.21800  0.25620  0.39810  Biso   1.000  N
  N10      1.0000 0.78200  0.75620  0.10190  Biso   1.000  N
  N11      1.0000 0.78200  0.74380  0.60190  Biso   1.000  N
  N12      1.0000 0.21800  0.24380  0.89810  Biso   1.000  N
  C1       1.0000 0.26880  0.71440  0.38480  Biso   1.000  C
  C2       1.0000 0.73120  0.21440  0.11520  Biso   1.000  C
  C3       1.0000 0.73120  0.28560  0.61520  Biso   1.000  C
  C4       1.0000 0.26880  0.78560  0.88480  Biso   1.000  C
  C5       1.0000 0.39930  0.70520  0.37160  Biso   1.000  C
  C6       1.0000 0.60070  0.20520  0.12840  Biso   1.000  C
  C7       1.0000 0.60070  0.29480  0.62840  Biso   1.000  C
  C8       1.0000 0.39930  0.79480  0.87160  Biso   1.000  C
  H1       1.0000 0.46800  0.76680  0.39500  Biso   1.000  H
  H2       1.0000 0.53200  0.26680  0.10500  Biso   1.000  H
  H3       1.0000 0.53200  0.23320  0.60500  Biso   1.000  H
  H4       1.0000 0.46800  0.73320  0.89500  Biso   1.000  H
  C9       1.0000 0.40870  0.58570  0.31640  Biso   1.000  C
  C10      1.0000 0.59130  0.08570  0.18360  Biso   1.000  C
  C11      1.0000 0.59130  0.41430  0.68360  Biso   1.000  C
  C12      1.0000 0.40870  0.91430  0.81640  Biso   1.000  C
  C13      1.0000 0.19800  0.81810  0.43580  Biso   1.000  C
  C14      1.0000 0.80200  0.31810  0.06420  Biso   1.000  C
  C15      1.0000 0.80200  0.18190  0.56420  Biso   1.000  C
  C16      1.0000 0.19800  0.68190  0.93580  Biso   1.000  C
  H5       1.0000 0.10270  0.82340  0.36590  Biso   1.000  H
  H6       1.0000 0.89730  0.32340  0.13410  Biso   1.000  H
  H7       1.0000 0.89730  0.17660  0.63410  Biso   1.000  H
  H8       1.0000 0.10270  0.67660  0.86590  Biso   1.000  H
  H9       1.0000 0.24580  0.89480  0.43130  Biso   1.000  H
  H10      1.0000 0.75420  0.39480  0.06870  Biso   1.000  H
  H11      1.0000 0.75420  0.10520  0.56870  Biso   1.000  H
  H12      1.0000 0.24580  0.60520  0.93130  Biso   1.000  H
  H13      1.0000 0.19940  0.80370  0.54370  Biso   1.000  H
  H14      1.0000 0.80060  0.30370  0.95630  Biso   1.000  H
  H15      1.0000 0.80060  0.19630  0.45630  Biso   1.000  H
  H16      1.0000 0.19940  0.69630  0.04370  Biso   1.000  H
  C17      1.0000 0.52530  0.52730  0.27530  Biso   1.000  C
  C18      1.0000 0.47470  0.02730  0.22470  Biso   1.000  C
  C19      1.0000 0.47470  0.47270  0.72470  Biso   1.000  C
  C20      1.0000 0.52530  0.97270  0.77530  Biso   1.000  C
  H17      1.0000 0.48800  0.47220  0.18570  Biso   1.000  H
  H18      1.0000 0.51200  0.97220  0.31430  Biso   1.000  H
  H19      1.0000 0.51200  0.52780  0.81430  Biso   1.000  H
  H20      1.0000 0.48800  0.02780  0.68570  Biso   1.000  H
  H21      1.0000 0.58340  0.48080  0.36560  Biso   1.000  H
  H22      1.0000 0.41660  0.98080  0.13440  Biso   1.000  H
  H23      1.0000 0.41660  0.51920  0.63440  Biso   1.000  H
  H24      1.0000 0.58340  0.01920  0.86560  Biso   1.000  H
  H25      1.0000 0.58030  0.59120  0.24780  Biso   1.000  H
  H26      1.0000 0.41970  0.09120  0.25220  Biso   1.000  H
  H27      1.0000 0.41970  0.40880  0.75220  Biso   1.000  H
  H28      1.0000 0.58030  0.90880  0.74780  Biso   1.000  H
  C21      1.0000 0.07090  0.56310  0.33890  Biso   1.000  C
  C22      1.0000 0.92910  0.06310  0.16110  Biso   1.000  C
  C23      1.0000 0.92910  0.43690  0.66110  Biso   1.000  C
  C24      1.0000 0.07090  0.93690  0.83890  Biso   1.000  C
  H29      1.0000 0.04150  0.49240  0.26710  Biso   1.000  H
  H30      1.0000 0.95850  0.99240  0.23290  Biso   1.000  H
  H31      1.0000 0.95850  0.50760  0.73290  Biso   1.000  H
  H32      1.0000 0.04150  0.00760  0.76710  Biso   1.000  H
  H33      1.0000 0.00380  0.62990  0.29800  Biso   1.000  H
  H34      1.0000 0.99620  0.12990  0.20200  Biso   1.000  H
  H35      1.0000 0.99620  0.37010  0.70200  Biso   1.000  H
  H36      1.0000 0.00380  0.87010  0.79800  Biso   1.000  H
  C25      1.0000 0.06940  0.52610  0.50320  Biso   1.000  C
  C26      1.0000 0.93060  0.02610  0.99680  Biso   1.000  C
  C27      1.0000 0.93060  0.47390  0.49680  Biso   1.000  C
  C28      1.0000 0.06940  0.97390  0.00320  Biso   1.000  C
  H37      1.0000 0.14170  0.46420  0.54830  Biso   1.000  H
  H38      1.0000 0.85830  0.96420  0.95170  Biso   1.000  H
  H39      1.0000 0.85830  0.53580  0.45170  Biso   1.000  H
  H40      1.0000 0.14170  0.03580  0.04830  Biso   1.000  H
  H41      1.0000 0.09030  0.59860  0.57290  Biso   1.000  H
  H42      1.0000 0.90970  0.09860  0.92710  Biso   1.000  H
  H43      1.0000 0.90970  0.40140  0.42710  Biso   1.000  H
  H44      1.0000 0.09030  0.90140  0.07290  Biso   1.000  H
  C29      1.0000 0.22210  0.21100  0.51660  Biso   1.000  C
  C30      1.0000 0.77790  0.71100  0.98340  Biso   1.000  C
  C31      1.0000 0.77790  0.78900  0.48340  Biso   1.000  C
  C32      1.0000 0.22210  0.28900  0.01660  Biso   1.000  C
