data_image0
_cell_length_a       8.4333
_cell_length_b       9.0155
_cell_length_c       25.54
_cell_angle_alpha    90
_cell_angle_beta     92.81
_cell_angle_gamma    90

_symmetry_space_group_name_H-M    "P 1"
_symmetry_int_tables_number       1

loop_
  _symmetry_equiv_pos_as_xyz
  'x, y, z'

loop_
  _atom_site_label
  _atom_site_occupancy
  _atom_site_fract_x
  _atom_site_fract_y
  _atom_site_fract_z
  _atom_site_thermal_displace_type
  _atom_site_B_iso_or_equiv
  _atom_site_type_symbol
  Cu1      1.0000 0.33833  0.71104  0.10188  Biso   1.000  Cu
  Cu2      1.0000 0.66167  0.21104  0.39812  Biso   1.000  Cu
  Cu3      1.0000 0.66167  0.28896  0.89812  Biso   1.000  Cu
  Cu4      1.0000 0.33833  0.78896  0.60188  Biso   1.000  Cu
  Cu5      1.0000 0.87772  0.79156  0.86577  Biso   1.000  Cu
  Cu6      1.0000 0.12228  0.29156  0.63423  Biso   1.000  Cu
  Cu7      1.0000 0.12228  0.20844  0.13423  Biso   1.000  Cu
  Cu8      1.0000 0.87772  0.70844  0.36577  Biso   1.000  Cu
  N1       1.0000 0.65380  0.71880  0.04864  Biso   1.000  N
  N2       1.0000 0.34620  0.21880  0.45136  Biso   1.000  N
  N3       1.0000 0.34620  0.28120  0.95136  Biso   1.000  N
  N4       1.0000 0.65380  0.78120  0.54864  Biso   1.000  N
  N5       1.0000 0.57450  0.67870  0.09179  Biso   1.000  N
  N6       1.0000 0.42550  0.17870  0.40821  Biso   1.000  N
  N7       1.0000 0.42550  0.32130  0.90821  Biso   1.000  N
  N8       1.0000 0.57450  0.82130  0.59179  Biso   1.000  N
  N9       1.0000 0.19820  0.90440  0.83468  Biso   1.000  N
  N10      1.0000 0.80180  0.40440  0.66532  Biso   1.000  N
  N11      1.0000 0.80180  0.09560  0.16532  Biso   1.000  N
  N12      1.0000 0.19820  0.59560  0.33468  Biso   1.000  N
  N13      1.0000 0.07110  0.81520  0.82198  Biso   1.000  N
  N14      1.0000 0.92890  0.31520  0.67802  Biso   1.000  N
  N15      1.0000 0.92890  0.18480  0.17802  Biso   1.000  N
  N16      1.0000 0.07110  0.68480  0.32198  Biso   1.000  N
  N17      1.0000 0.25450  0.51620  0.11632  Biso   1.000  N
  N18      1.0000 0.74550  0.01620  0.38368  Biso   1.000  N
  N19      1.0000 0.74550  0.48380  0.88368  Biso   1.000  N
  N20      1.0000 0.25450  0.98380  0.61632  Biso   1.000  N
  N21      1.0000 0.80640  0.98380  0.88976  Biso   1.000  N
  N22      1.0000 0.19360  0.48380  0.61024  Biso   1.000  N
  N23      1.0000 0.19360  0.01620  0.11024  Biso   1.000  N
  N24      1.0000 0.80640  0.51620  0.38976  Biso   1.000  N
  C1       1.0000 0.80790  0.67760  0.05365  Biso   1.000  C
  C2       1.0000 0.19210  0.17760  0.44635  Biso   1.000  C
  C3       1.0000 0.19210  0.32240  0.94635  Biso   1.000  C
  C4       1.0000 0.80790  0.82240  0.55365  Biso   1.000  C
  C5       1.0000 0.82880  0.60960  0.10164  Biso   1.000  C
  C6       1.0000 0.17120  0.10960  0.39836  Biso   1.000  C
  C7       1.0000 0.17120  0.39040  0.89836  Biso   1.000  C
  C8       1.0000 0.82880  0.89040  0.60164  Biso   1.000  C
  H1       1.0000 0.92340  0.56860  0.11630  Biso   1.000  H
  H2       1.0000 0.07660  0.06860  0.38370  Biso   1.000  H
  H3       1.0000 0.07660  0.43140  0.88370  Biso   1.000  H
  H4       1.0000 0.92340  0.93140  0.61630  Biso   1.000  H
  C9       1.0000 0.68280  0.61340  0.12410  Biso   1.000  C
  C10      1.0000 0.31720  0.11340  0.37590  Biso   1.000  C
  C11      1.0000 0.31720  0.38660  0.87590  Biso   1.000  C
  C12      1.0000 0.68280  0.88660  0.62410  Biso   1.000  C
  C13      1.0000 0.92400  0.71080  0.01272  Biso   1.000  C
  C14      1.0000 0.07600  0.21080  0.48728  Biso   1.000  C
  C15      1.0000 0.07600  0.28920  0.98728  Biso   1.000  C
  C16      1.0000 0.92400  0.78920  0.51272  Biso   1.000  C
  H5       1.0000 0.89150  0.66040  0.98040  Biso   1.000  H
  H6       1.0000 0.10850  0.16040  0.51960  Biso   1.000  H
  H7       1.0000 0.10850  0.33960  0.01960  Biso   1.000  H
  H8       1.0000 0.89150  0.83960  0.48040  Biso   1.000  H
  H9       1.0000 0.02870  0.67670  0.02470  Biso   1.000  H
  H10      1.0000 0.97130  0.17670  0.47530  Biso   1.000  H
  H11      1.0000 0.97130  0.32330  0.97530  Biso   1.000  H
  H12      1.0000 0.02870  0.82330  0.52470  Biso   1.000  H
  H13      1.0000 0.92700  0.81690  0.00660  Biso   1.000  H
  H14      1.0000 0.07300  0.31690  0.49340  Biso   1.000  H
  H15      1.0000 0.07300  0.18310  0.99340  Biso   1.000  H
  H16      1.0000 0.92700  0.68310  0.50660  Biso   1.000  H
  C17      1.0000 0.63890  0.55720  0.17649  Biso   1.000  C
  C18      1.0000 0.36110  0.05720  0.32351  Biso   1.000  C
  C19      1.0000 0.36110  0.44280  0.82351  Biso   1.000  C
  C20      1.0000 0.63890  0.94280  0.67649  Biso   1.000  C
  H17      1.0000 0.63700  0.63920  0.20100  Biso   1.000  H
  H18      1.0000 0.36300  0.13920  0.29900  Biso   1.000  H
  H19      1.0000 0.36300  0.36080  0.79900  Biso   1.000  H
  H20      1.0000 0.63700  0.86080  0.70100  Biso   1.000  H
  H21      1.0000 0.71650  0.48450  0.18910  Biso   1.000  H
  H22      1.0000 0.28350  0.98450  0.31090  Biso   1.000  H
  H23      1.0000 0.28350  0.51550  0.81090  Biso   1.000  H
  H24      1.0000 0.71650  0.01550  0.68910  Biso   1.000  H
  H25      1.0000 0.53480  0.51150  0.17340  Biso   1.000  H
  H26      1.0000 0.46520  0.01150  0.32660  Biso   1.000  H
  H27      1.0000 0.46520  0.48850  0.82660  Biso   1.000  H
  H28      1.0000 0.53480  0.98850  0.67340  Biso   1.000  H
  C21      1.0000 0.56920  0.79340  0.00530  Biso   1.000  C
  C22      1.0000 0.43080  0.29340  0.49470  Biso   1.000  C
  C23      1.0000 0.43080  0.20660  0.99470  Biso   1.000  C
  C24      1.0000 0.56920  0.70660  0.50530  Biso   1.000  C
  H29      1.0000 0.64620  0.84750  0.98500  Biso   1.000  H
  H30      1.0000 0.35380  0.34750  0.51500  Biso   1.000  H
  H31      1.0000 0.35380  0.15250  0.01500  Biso   1.000  H
  H32      1.0000 0.64620  0.65250  0.48500  Biso   1.000  H
  H33      1.0000 0.49680  0.86640  0.01950  Biso   1.000  H
  H34      1.0000 0.50320  0.36640  0.48050  Biso   1.000  H
  H35      1.0000 0.50320  0.13360  0.98050  Biso   1.000  H
  H36      1.0000 0.49680  0.63360  0.51950  Biso   1.000  H
  C25      1.0000 0.47440  0.69050  0.96858  Biso   1.000  C
  C26      1.0000 0.52560  0.19050  0.53142  Biso   1.000  C
  C27      1.0000 0.52560  0.30950  0.03142  Biso   1.000  C
  C28      1.0000 0.47440  0.80950  0.46858  Biso   1.000  C
  H37      1.0000 0.38690  0.64650  0.98720  Biso   1.000  H
  H38      1.0000 0.61310  0.14650  0.51280  Biso   1.000  H
  H39      1.0000 0.61310  0.35350  0.01280  Biso   1.000  H
  H40      1.0000 0.38690  0.85350  0.48720  Biso   1.000  H
  H41      1.0000 0.54290  0.60980  0.95740  Biso   1.000  H
  H42      1.0000 0.45710  0.10980  0.54260  Biso   1.000  H
  H43      1.0000 0.45710  0.39020  0.04260  Biso   1.000  H
  H44      1.0000 0.54290  0.89020  0.45740  Biso   1.000  H
  C29      1.0000 0.40770  0.77430  0.92067  Biso   1.000  C
  C30      1.0000 0.59230  0.27430  0.57933  Biso   1.000  C
  C31      1.0000 0.59230  0.22570  0.07933  Biso   1.000  C
  C32      1.0000 0.40770  0.72570  0.42067  Biso   1.000  C
  H45      1.0000 0.38780  0.70350  0.89200  Biso   1.000  H
  H46      1.0000 0.61220  0.20350  0.60800  Biso   1.000  H
  H47      1.0000 0.61220  0.29650  0.10800  Biso   1.000  H
  H48      1.0000 0.38780  0.79650  0.39200  Biso   1.000  H
  H49      1.0000 0.48810  0.84470  0.90960  Biso   1.000  H
  H50      1.0000 0.51190  0.34470  0.59040  Biso   1.000  H
  H51      1.0000 0.51190  0.15530  0.09040  Biso   1.000  H
  H52      1.0000 0.48810  0.65530  0.40960  Biso   1.000  H
  C33      1.0000 0.25390  0.85940  0.92944  Biso   1.000  C
  C34      1.0000 0.74610  0.35940  0.57056  Biso   1.000  C
  C35      1.0000 0.74610  0.14060  0.07056  Biso   1.000  C
  C36      1.0000 0.25390  0.64060  0.42944  Biso   1.000  C
  H53      1.0000 0.16640  0.78840  0.93130  Biso   1.000  H
  H54      1.0000 0.83360  0.28840  0.56870  Biso   1.000  H
  H55      1.0000 0.83360  0.21160  0.06870  Biso   1.000  H
  H56      1.0000 0.16640  0.71160  0.43130  Biso   1.000  H
  H57      1.0000 0.26460  0.91120  0.96320  Biso   1.000  H
  H58      1.0000 0.73540  0.41120  0.53680  Biso   1.000  H
  H59      1.0000 0.73540  0.08880  0.03680  Biso   1.000  H
  H60      1.0000 0.26460  0.58880  0.46320  Biso   1.000  H
  C37      1.0000 0.21280  0.97140  0.88660  Biso   1.000  C
  C38      1.0000 0.78720  0.47140  0.61340  Biso   1.000  C
  C39      1.0000 0.78720  0.02860  0.11340  Biso   1.000  C
  C40      1.0000 0.21280  0.52860  0.38660  Biso   1.000  C
  H61      1.0000 0.11240  0.01990  0.89400  Biso   1.000  H
  H62      1.0000 0.88760  0.51990  0.60600  Biso   1.000  H
  H63      1.0000 0.88760  0.98010  0.10600  Biso   1.000  H
  H64      1.0000 0.11240  0.48010  0.39400  Biso   1.000  H
  H65      1.0000 0.29550  0.04790  0.88690  Biso   1.000  H
  H66      1.0000 0.70450  0.54790  0.61310  Biso   1.000  H
  H67      1.0000 0.70450  0.95210  0.11310  Biso   1.000  H
  H68      1.0000 0.29550  0.45210  0.38690  Biso   1.000  H
  C41      1.0000 0.30050  0.90850  0.79568  Biso   1.000  C
  C42      1.0000 0.69950  0.40850  0.70432  Biso   1.000  C
  C43      1.0000 0.69950  0.09150  0.20432  Biso   1.000  C
  C44      1.0000 0.30050  0.59150  0.29568  Biso   1.000  C
  C45      1.0000 0.23620  0.81990  0.75621  Biso   1.000  C
  C46      1.0000 0.76380  0.31990  0.74379  Biso   1.000  C
  C47      1.0000 0.76380  0.18010  0.24379  Biso   1.000  C
  C48      1.0000 0.23620  0.68010  0.25621  Biso   1.000  C
  H69      1.0000 0.27930  0.80100  0.72360  Biso   1.000  H
  H70      1.0000 0.72070  0.30100  0.77640  Biso   1.000  H
  H71      1.0000 0.72070  0.19900  0.27640  Biso   1.000  H
  H72      1.0000 0.27930  0.69900  0.22360  Biso   1.000  H
  C49      1.0000 0.09530  0.76390  0.77404  Biso   1.000  C
  C50      1.0000 0.90470  0.26390  0.72596  Biso   1.000  C
  C51      1.0000 0.90470  0.23610  0.22596  Biso   1.000  C
  C52      1.0000 0.09530  0.73610  0.27404  Biso   1.000  C
  C53      1.0000 0.44900  0.99920  0.79862  Biso   1.000  C
  C54      1.0000 0.55100  0.49920  0.70138  Biso   1.000  C
  C55      1.0000 0.55100  0.00080  0.20138  Biso   1.000  C
  C56      1.0000 0.44900  0.50080  0.29862  Biso   1.000  C
  H73      1.0000 0.43530  0.08320  0.82170  Biso   1.000  H
  H74      1.0000 0.56470  0.58320  0.67830  Biso   1.000  H
  H75      1.0000 0.56470  0.91680  0.17830  Biso   1.000  H
  H76      1.0000 0.43530  0.41680  0.32170  Biso   1.000  H
  H77      1.0000 0.47130  0.03450  0.76390  Biso   1.000  H
  H78      1.0000 0.52870  0.53450  0.73610  Biso   1.000  H
  H79      1.0000 0.52870  0.96550  0.23610  Biso   1.000  H
  H80      1.0000 0.47130  0.46550  0.26390  Biso   1.000  H
  H81      1.0000 0.53670  0.93870  0.81220  Biso   1.000  H
  H82      1.0000 0.46330  0.43870  0.68780  Biso   1.000  H
  H83      1.0000 0.46330  0.06130  0.18780  Biso   1.000  H
  H84      1.0000 0.53670  0.56130  0.31220  Biso   1.000  H
  C57      1.0000 0.97760  0.66430  0.74569  Biso   1.000  C
  C58      1.0000 0.02240  0.16430  0.75431  Biso   1.000  C
  C59      1.0000 0.02240  0.33570  0.25431  Biso   1.000  C
  C60      1.0000 0.97760  0.83570  0.24569  Biso   1.000  C
  H85      1.0000 0.91240  0.61590  0.77090  Biso   1.000  H
  H86      1.0000 0.08760  0.11590  0.72910  Biso   1.000  H
  H87      1.0000 0.08760  0.38410  0.22910  Biso   1.000  H
  H88      1.0000 0.91240  0.88410  0.27090  Biso   1.000  H
  H89      1.0000 0.03360  0.58990  0.72630  Biso   1.000  H
  H90      1.0000 0.96640  0.08990  0.77370  Biso   1.000  H
  H91      1.0000 0.96640  0.41010  0.27370  Biso   1.000  H
  H92      1.0000 0.03360  0.91010  0.22630  Biso   1.000  H
  H93      1.0000 0.91060  0.72270  0.72160  Biso   1.000  H
  H94      1.0000 0.08940  0.22270  0.77840  Biso   1.000  H
  H95      1.0000 0.08940  0.27730  0.27840  Biso   1.000  H
  H96      1.0000 0.91060  0.77730  0.22160  Biso   1.000  H
  C61      1.0000 0.20710  0.39900  0.12423  Biso   1.000  C
  C62      1.0000 0.79290  0.89900  0.37577  Biso   1.000  C
  C63      1.0000 0.79290  0.60100  0.87577  Biso   1.000  C
  C64      1.0000 0.20710  0.10100  0.62423  Biso   1.000  C
  C65      1.0000 0.75400  0.09890  0.89668  Biso   1.000  C
  C66      1.0000 0.24600  0.59890  0.60332  Biso   1.000  C
  C67      1.0000 0.24600  0.90110  0.10332  Biso   1.000  C
  C68      1.0000 0.75400  0.40110  0.39668  Biso   1.000  C
