data_image0
_cell_length_a       23.593
_cell_length_b       10.4448
_cell_length_c       21.641
_cell_angle_alpha    90
_cell_angle_beta     105.175
_cell_angle_gamma    90

_symmetry_space_group_name_H-M    "P 1"
_symmetry_int_tables_number       1

loop_
  _symmetry_equiv_pos_as_xyz
  'x, y, z'

loop_
  _atom_site_label
  _atom_site_occupancy
  _atom_site_fract_x
  _atom_site_fract_y
  _atom_site_fract_z
  _atom_site_thermal_displace_type
  _atom_site_B_iso_or_equiv
  _atom_site_type_symbol
  Er1      1.0000 0.00000  0.77124  0.75000  Biso   1.000  Er
  Er2      1.0000 0.00000  0.22876  0.25000  Biso   1.000  Er
  Er3      1.0000 0.50000  0.46657  0.25000  Biso   1.000  Er
  Er4      1.0000 0.50000  0.53343  0.75000  Biso   1.000  Er
  Cu1      1.0000 0.21374  0.66790  0.79018  Biso   1.000  Cu
  Cu2      1.0000 0.78626  0.66790  0.70982  Biso   1.000  Cu
  Cu3      1.0000 0.78626  0.33210  0.20982  Biso   1.000  Cu
  Cu4      1.0000 0.21374  0.33210  0.29018  Biso   1.000  Cu
  Cu5      1.0000 0.26947  0.63600  0.30534  Biso   1.000  Cu
  Cu6      1.0000 0.73053  0.63600  0.19466  Biso   1.000  Cu
  Cu7      1.0000 0.73053  0.36400  0.69466  Biso   1.000  Cu
  Cu8      1.0000 0.26947  0.36400  0.80534  Biso   1.000  Cu
  Cu9      1.0000 0.68635  0.04680  0.37775  Biso   1.000  Cu
  Cu10     1.0000 0.31365  0.04680  0.12225  Biso   1.000  Cu
  Cu11     1.0000 0.31365  0.95320  0.62225  Biso   1.000  Cu
  Cu12     1.0000 0.68635  0.95320  0.87775  Biso   1.000  Cu
  N1       1.0000 0.04770  0.89720  0.68120  Biso   1.000  N
  N2       1.0000 0.95230  0.89720  0.81880  Biso   1.000  N
  N3       1.0000 0.95230  0.10280  0.31880  Biso   1.000  N
  N4       1.0000 0.04770  0.10280  0.18120  Biso   1.000  N
  N5       1.0000 0.00000  0.53720  0.75000  Biso   1.000  N
  N6       1.0000 0.00000  0.46280  0.25000  Biso   1.000  N
  N7       1.0000 0.48190  0.36120  0.34700  Biso   1.000  N
  N8       1.0000 0.51810  0.36120  0.15300  Biso   1.000  N
  N9       1.0000 0.51810  0.63880  0.65300  Biso   1.000  N
  N10      1.0000 0.48190  0.63880  0.84700  Biso   1.000  N
  N11      1.0000 0.50000  0.70200  0.25000  Biso   1.000  N
  N12      1.0000 0.50000  0.29800  0.75000  Biso   1.000  N
  N13      1.0000 0.22820  0.68250  0.70670  Biso   1.000  N
  N14      1.0000 0.77180  0.68250  0.79330  Biso   1.000  N
  N15      1.0000 0.77180  0.31750  0.29330  Biso   1.000  N
  N16      1.0000 0.22820  0.31750  0.20670  Biso   1.000  N
  N17      1.0000 0.26010  0.65600  0.39070  Biso   1.000  N
  N18      1.0000 0.73990  0.65600  0.10930  Biso   1.000  N
  N19      1.0000 0.73990  0.34400  0.60930  Biso   1.000  N
  N20      1.0000 0.26010  0.34400  0.89070  Biso   1.000  N
  N21      1.0000 0.22230  0.69220  0.88030  Biso   1.000  N
  N22      1.0000 0.77770  0.69220  0.61970  Biso   1.000  N
  N23      1.0000 0.77770  0.30780  0.11970  Biso   1.000  N
  N24      1.0000 0.22230  0.30780  0.38030  Biso   1.000  N
  N25      1.0000 0.25820  0.65640  0.21660  Biso   1.000  N
  N26      1.0000 0.74180  0.65640  0.28340  Biso   1.000  N
  N27      1.0000 0.74180  0.34360  0.78340  Biso   1.000  N
  N28      1.0000 0.25820  0.34360  0.71660  Biso   1.000  N
  N29      1.0000 0.69480  0.00420  0.46510  Biso   1.000  N
  N30      1.0000 0.30520  0.00420  0.03490  Biso   1.000  N
  N31      1.0000 0.30520  0.99580  0.53490  Biso   1.000  N
  N32      1.0000 0.69480  0.99580  0.96510  Biso   1.000  N
  N33      1.0000 0.69040  0.95740  0.79150  Biso   1.000  N
  N34      1.0000 0.30960  0.95740  0.70850  Biso   1.000  N
  N35      1.0000 0.30960  0.04260  0.20850  Biso   1.000  N
  N36      1.0000 0.69040  0.04260  0.29150  Biso   1.000  N
  O1       1.0000 0.06810  0.92830  0.80380  Biso   1.000  O
  O2       1.0000 0.93190  0.92830  0.69620  Biso   1.000  O
  O3       1.0000 0.93190  0.07170  0.19620  Biso   1.000  O
  O4       1.0000 0.06810  0.07170  0.30380  Biso   1.000  O
  O5       1.0000 0.13270  0.08460  0.80430  Biso   1.000  O
  O6       1.0000 0.86730  0.08460  0.69570  Biso   1.000  O
  O7       1.0000 0.86730  0.91540  0.19570  Biso   1.000  O
  O8       1.0000 0.13270  0.91540  0.30430  Biso   1.000  O
  O9       1.0000 0.97560  0.70530  0.63950  Biso   1.000  O
  O10      1.0000 0.02440  0.70530  0.86050  Biso   1.000  O
  O11      1.0000 0.02440  0.29470  0.36050  Biso   1.000  O
  O12      1.0000 0.97560  0.29470  0.13950  Biso   1.000  O
  O13      1.0000 0.97450  0.73860  0.53720  Biso   1.000  O
  O14      1.0000 0.02550  0.73860  0.96280  Biso   1.000  O
  O15      1.0000 0.02550  0.26140  0.46280  Biso   1.000  O
  O16      1.0000 0.97450  0.26140  0.03720  Biso   1.000  O
  O17      1.0000 0.09350  0.67310  0.75880  Biso   1.000  O
  O18      1.0000 0.90650  0.67310  0.74120  Biso   1.000  O
  O19      1.0000 0.90650  0.32690  0.24120  Biso   1.000  O
  O20      1.0000 0.09350  0.32690  0.25880  Biso   1.000  O
  O21      1.0000 0.15280  0.50230  0.77510  Biso   1.000  O
  O22      1.0000 0.84720  0.50230  0.72490  Biso   1.000  O
  O23      1.0000 0.84720  0.49770  0.22490  Biso   1.000  O
  O24      1.0000 0.15280  0.49770  0.27510  Biso   1.000  O
  O25      1.0000 0.41270  0.53390  0.27830  Biso   1.000  O
  O26      1.0000 0.58730  0.53390  0.22170  Biso   1.000  O
  O27      1.0000 0.58730  0.46610  0.72170  Biso   1.000  O
  O28      1.0000 0.41270  0.46610  0.77830  Biso   1.000  O
  O29      1.0000 0.35160  0.52220  0.34230  Biso   1.000  O
  O30      1.0000 0.64840  0.52220  0.15770  Biso   1.000  O
  O31      1.0000 0.64840  0.47780  0.65770  Biso   1.000  O
  O32      1.0000 0.35160  0.47780  0.84230  Biso   1.000  O
  O33      1.0000 0.56450  0.29550  0.29360  Biso   1.000  O
  O34      1.0000 0.43550  0.29550  0.20640  Biso   1.000  O
  O35      1.0000 0.43550  0.70450  0.70640  Biso   1.000  O
  O36      1.0000 0.56450  0.70450  0.79360  Biso   1.000  O
  O37      1.0000 0.60340  0.15770  0.37250  Biso   1.000  O
  O38      1.0000 0.39660  0.15770  0.12750  Biso   1.000  O
  O39      1.0000 0.39660  0.84230  0.62750  Biso   1.000  O
  O40      1.0000 0.60340  0.84230  0.87250  Biso   1.000  O
  O41      1.0000 0.44580  0.56110  0.15300  Biso   1.000  O
  O42      1.0000 0.55420  0.56110  0.34700  Biso   1.000  O
  O43      1.0000 0.55420  0.43890  0.84700  Biso   1.000  O
  O44      1.0000 0.44580  0.43890  0.65300  Biso   1.000  O
  O45      1.0000 0.42300  0.73310  0.08890  Biso   1.000  O
  O46      1.0000 0.57700  0.73310  0.41110  Biso   1.000  O
  O47      1.0000 0.57700  0.26690  0.91110  Biso   1.000  O
  O48      1.0000 0.42300  0.26690  0.58890  Biso   1.000  O
  O49      1.0000 0.92120  0.49700  0.99790  Biso   1.000  O
  O50      1.0000 0.07880  0.49700  0.50210  Biso   1.000  O
  O51      1.0000 0.07880  0.50300  0.00210  Biso   1.000  O
  O52      1.0000 0.92120  0.50300  0.49790  Biso   1.000  O
  H1       1.0000 0.93570  0.42740  0.01510  Biso   1.000  H
  H2       1.0000 0.06430  0.42740  0.48490  Biso   1.000  H
  H3       1.0000 0.06430  0.57260  0.98490  Biso   1.000  H
  H4       1.0000 0.93570  0.57260  0.51510  Biso   1.000  H
  H5       1.0000 0.92740  0.50140  0.96120  Biso   1.000  H
  H6       1.0000 0.07260  0.50140  0.53880  Biso   1.000  H
  H7       1.0000 0.07260  0.49860  0.03880  Biso   1.000  H
  H8       1.0000 0.92740  0.49860  0.46120  Biso   1.000  H
  O53      1.0000 0.94600  0.52800  0.38260  Biso   1.000  O
  O54      1.0000 0.05400  0.52800  0.11740  Biso   1.000  O
  O55      1.0000 0.05400  0.47200  0.61740  Biso   1.000  O
  O56      1.0000 0.94600  0.47200  0.88260  Biso   1.000  O
  H9       1.0000 0.96550  0.46350  0.37670  Biso   1.000  H
  H10      1.0000 0.03450  0.46350  0.12330  Biso   1.000  H
  H11      1.0000 0.03450  0.53650  0.62330  Biso   1.000  H
  H12      1.0000 0.96550  0.53650  0.87670  Biso   1.000  H
  H13      1.0000 0.97000  0.58640  0.39950  Biso   1.000  H
  H14      1.0000 0.03000  0.58640  0.10050  Biso   1.000  H
  H15      1.0000 0.03000  0.41360  0.60050  Biso   1.000  H
  H16      1.0000 0.97000  0.41360  0.89950  Biso   1.000  H
  O57      1.0000 0.89290  0.95100  0.06020  Biso   1.000  O
  O58      1.0000 0.10710  0.95100  0.43980  Biso   1.000  O
  O59      1.0000 0.10710  0.04900  0.93980  Biso   1.000  O
  O60      1.0000 0.89290  0.04900  0.56020  Biso   1.000  O
  H17      1.0000 0.90330  0.98310  0.09730  Biso   1.000  H
  H18      1.0000 0.09670  0.98310  0.40270  Biso   1.000  H
  H19      1.0000 0.09670  0.01690  0.90270  Biso   1.000  H
  H20      1.0000 0.90330  0.01690  0.59730  Biso   1.000  H
  H21      1.0000 0.91370  0.88520  0.05950  Biso   1.000  H
  H22      1.0000 0.08630  0.88520  0.44050  Biso   1.000  H
  H23      1.0000 0.08630  0.11480  0.94050  Biso   1.000  H
  H24      1.0000 0.91370  0.11480  0.55950  Biso   1.000  H
  O61      1.0000 0.03100  0.72900  0.44310  Biso   1.000  O
  O62      1.0000 0.96900  0.72900  0.05690  Biso   1.000  O
  O63      1.0000 0.96900  0.27100  0.55690  Biso   1.000  O
  O64      1.0000 0.03100  0.27100  0.94310  Biso   1.000  O
  H25      1.0000 0.01010  0.74910  0.46800  Biso   1.000  H
  H26      1.0000 0.98990  0.74910  0.03200  Biso   1.000  H
  H27      1.0000 0.98990  0.25090  0.53200  Biso   1.000  H
  H28      1.0000 0.01010  0.25090  0.96800  Biso   1.000  H
  H29      1.0000 0.04790  0.65890  0.45590  Biso   1.000  H
  H30      1.0000 0.95210  0.65890  0.04410  Biso   1.000  H
  H31      1.0000 0.95210  0.34110  0.54410  Biso   1.000  H
  H32      1.0000 0.04790  0.34110  0.95590  Biso   1.000  H
  C1       1.0000 0.09710  0.00510  0.77810  Biso   1.000  C
  C2       1.0000 0.90290  0.00510  0.72190  Biso   1.000  C
  C3       1.0000 0.90290  0.99490  0.22190  Biso   1.000  C
  C4       1.0000 0.09710  0.99490  0.27810  Biso   1.000  C
  C5       1.0000 0.08310  0.99030  0.70440  Biso   1.000  C
  C6       1.0000 0.91690  0.99030  0.79560  Biso   1.000  C
  C7       1.0000 0.91690  0.00970  0.29560  Biso   1.000  C
  C8       1.0000 0.08310  0.00970  0.20440  Biso   1.000  C
  C9       1.0000 0.10580  0.07270  0.66660  Biso   1.000  C
  C10      1.0000 0.89420  0.07270  0.83340  Biso   1.000  C
  C11      1.0000 0.89420  0.92730  0.33340  Biso   1.000  C
  C12      1.0000 0.10580  0.92730  0.16660  Biso   1.000  C
  H33      1.0000 0.13020  0.14050  0.68470  Biso   1.000  H
  H34      1.0000 0.86980  0.14050  0.81530  Biso   1.000  H
  H35      1.0000 0.86980  0.85950  0.31530  Biso   1.000  H
  H36      1.0000 0.13020  0.85950  0.18470  Biso   1.000  H
  C13      1.0000 0.09150  0.05150  0.60240  Biso   1.000  C
  C14      1.0000 0.90850  0.05150  0.89760  Biso   1.000  C
  C15      1.0000 0.90850  0.94850  0.39760  Biso   1.000  C
  C16      1.0000 0.09150  0.94850  0.10240  Biso   1.000  C
  H37      1.0000 0.10670  0.10430  0.57610  Biso   1.000  H
  H38      1.0000 0.89330  0.10430  0.92390  Biso   1.000  H
  H39      1.0000 0.89330  0.89570  0.42390  Biso   1.000  H
  H40      1.0000 0.10670  0.89570  0.07610  Biso   1.000  H
  C17      1.0000 0.05490  0.95360  0.57640  Biso   1.000  C
  C18      1.0000 0.94510  0.95360  0.92360  Biso   1.000  C
  C19      1.0000 0.94510  0.04640  0.42360  Biso   1.000  C
  C20      1.0000 0.05490  0.04640  0.07640  Biso   1.000  C
  H41      1.0000 0.04560  0.93730  0.53260  Biso   1.000  H
  H42      1.0000 0.95440  0.93730  0.96740  Biso   1.000  H
  H43      1.0000 0.95440  0.06270  0.46740  Biso   1.000  H
  H44      1.0000 0.04560  0.06270  0.03260  Biso   1.000  H
  C21      1.0000 0.03200  0.87860  0.61720  Biso   1.000  C
  C22      1.0000 0.96800  0.87860  0.88280  Biso   1.000  C
  C23      1.0000 0.96800  0.12140  0.38280  Biso   1.000  C
  C24      1.0000 0.03200  0.12140  0.11720  Biso   1.000  C
  C25      1.0000 0.98880  0.76890  0.59780  Biso   1.000  C
  C26      1.0000 0.01120  0.76890  0.90220  Biso   1.000  C
  C27      1.0000 0.01120  0.23110  0.40220  Biso   1.000  C
  C28      1.0000 0.98880  0.23110  0.09780  Biso   1.000  C
  C29      1.0000 0.10310  0.55520  0.76530  Biso   1.000  C
  C30      1.0000 0.89690  0.55520  0.73470  Biso   1.000  C
  C31      1.0000 0.89690  0.44480  0.23470  Biso   1.000  C
  C32      1.0000 0.10310  0.44480  0.26530  Biso   1.000  C
  C33      1.0000 0.05020  0.47220  0.75760  Biso   1.000  C
  C34      1.0000 0.94980  0.47220  0.74240  Biso   1.000  C
  C35      1.0000 0.94980  0.52780  0.24240  Biso   1.000  C
  C36      1.0000 0.05020  0.52780  0.25760  Biso   1.000  C
  C37      1.0000 0.05080  0.33810  0.75810  Biso   1.000  C
  C38      1.0000 0.94920  0.33810  0.74190  Biso   1.000  C
  C39      1.0000 0.94920  0.66190  0.24190  Biso   1.000  C
  C40      1.0000 0.05080  0.66190  0.25810  Biso   1.000  C
  H45      1.0000 0.08630  0.29520  0.76400  Biso   1.000  H
  H46      1.0000 0.91370  0.29520  0.73600  Biso   1.000  H
  H47      1.0000 0.91370  0.70480  0.23600  Biso   1.000  H
  H48      1.0000 0.08630  0.70480  0.26400  Biso   1.000  H
  C41      1.0000 0.00000  0.26900  0.75000  Biso   1.000  C
  C42      1.0000 0.00000  0.73100  0.25000  Biso   1.000  C
  H49      1.0000 0.00000  0.17970  0.75000  Biso   1.000  H
  H50      1.0000 0.00000  0.82030  0.25000  Biso   1.000  H
  C43      1.0000 0.39770  0.49780  0.32800  Biso   1.000  C
  C44      1.0000 0.60230  0.49780  0.17200  Biso   1.000  C
  C45      1.0000 0.60230  0.50220  0.67200  Biso   1.000  C
  C46      1.0000 0.39770  0.50220  0.82800  Biso   1.000  C
  C47      1.0000 0.43870  0.40460  0.37070  Biso   1.000  C
  C48      1.0000 0.56130  0.40460  0.12930  Biso   1.000  C
  C49      1.0000 0.56130  0.59540  0.62930  Biso   1.000  C
  C50      1.0000 0.43870  0.59540  0.87070  Biso   1.000  C
  C51      1.0000 0.43680  0.37590  0.43230  Biso   1.000  C
  C52      1.0000 0.56320  0.37590  0.06770  Biso   1.000  C
  C53      1.0000 0.56320  0.62410  0.56770  Biso   1.000  C
  C54      1.0000 0.43680  0.62410  0.93230  Biso   1.000  C
  H51      1.0000 0.40780  0.40930  0.44970  Biso   1.000  H
  H52      1.0000 0.59220  0.40930  0.05030  Biso   1.000  H
  H53      1.0000 0.59220  0.59070  0.55030  Biso   1.000  H
  H54      1.0000 0.40780  0.59070  0.94970  Biso   1.000  H
  C55      1.0000 0.48040  0.29430  0.46750  Biso   1.000  C
  C56      1.0000 0.51960  0.29430  0.03250  Biso   1.000  C
  C57      1.0000 0.51960  0.70570  0.53250  Biso   1.000  C
  C58      1.0000 0.48040  0.70570  0.96750  Biso   1.000  C
  H55      1.0000 0.48130  0.27430  0.50960  Biso   1.000  H
  H56      1.0000 0.51870  0.27430  0.99040  Biso   1.000  H
  H57      1.0000 0.51870  0.72570  0.49040  Biso   1.000  H
  H58      1.0000 0.48130  0.72570  0.00960  Biso   1.000  H
  C59      1.0000 0.52240  0.24290  0.44050  Biso   1.000  C
  C60      1.0000 0.47760  0.24290  0.05950  Biso   1.000  C
  C61      1.0000 0.47760  0.75710  0.55950  Biso   1.000  C
  C62      1.0000 0.52240  0.75710  0.94050  Biso   1.000  C
  H59      1.0000 0.55050  0.18580  0.46300  Biso   1.000  H
  H60      1.0000 0.44950  0.18580  0.03700  Biso   1.000  H
  H61      1.0000 0.44950  0.81420  0.53700  Biso   1.000  H
  H62      1.0000 0.55050  0.81420  0.96300  Biso   1.000  H
  C63      1.0000 0.52100  0.27940  0.37920  Biso   1.000  C
  C64      1.0000 0.47900  0.27940  0.12080  Biso   1.000  C
  C65      1.0000 0.47900  0.72060  0.62080  Biso   1.000  C
  C66      1.0000 0.52100  0.72060  0.87920  Biso   1.000  C
  C67      1.0000 0.56860  0.24070  0.34550  Biso   1.000  C
  C68      1.0000 0.43140  0.24070  0.15450  Biso   1.000  C
  C69      1.0000 0.43140  0.75930  0.65450  Biso   1.000  C
  C70      1.0000 0.56860  0.75930  0.84550  Biso   1.000  C
  C71      1.0000 0.44580  0.68170  0.14060  Biso   1.000  C
  C72      1.0000 0.55420  0.68170  0.35940  Biso   1.000  C
  C73      1.0000 0.55420  0.31830  0.85940  Biso   1.000  C
  C74      1.0000 0.44580  0.31830  0.64060  Biso   1.000  C
  C75      1.0000 0.47400  0.76370  0.19750  Biso   1.000  C
  C76      1.0000 0.52600  0.76370  0.30250  Biso   1.000  C
  C77      1.0000 0.52600  0.23630  0.80250  Biso   1.000  C
  C78      1.0000 0.47400  0.23630  0.69750  Biso   1.000  C
  C79      1.0000 0.47190  0.89470  0.19560  Biso   1.000  C
  C80      1.0000 0.52810  0.89470  0.30440  Biso   1.000  C
  C81      1.0000 0.52810  0.10530  0.80440  Biso   1.000  C
  C82      1.0000 0.47190  0.10530  0.69560  Biso   1.000  C
  H63      1.0000 0.45210  0.93780  0.15870  Biso   1.000  H
  H64      1.0000 0.54790  0.93780  0.34130  Biso   1.000  H
  H65      1.0000 0.54790  0.06220  0.84130  Biso   1.000  H
  H66      1.0000 0.45210  0.06220  0.65870  Biso   1.000  H
  C83      1.0000 0.50000  0.96000  0.25000  Biso   1.000  C
  C84      1.0000 0.50000  0.04000  0.75000  Biso   1.000  C
  H67      1.0000 0.50000  0.04930  0.25000  Biso   1.000  H
  H68      1.0000 0.50000  0.95070  0.75000  Biso   1.000  H
  C85      1.0000 0.18480  0.71950  0.65720  Biso   1.000  C
  C86      1.0000 0.81520  0.71950  0.84280  Biso   1.000  C
  C87      1.0000 0.81520  0.28050  0.34280  Biso   1.000  C
  C88      1.0000 0.18480  0.28050  0.15720  Biso   1.000  C
  H69      1.0000 0.15010  0.74860  0.66500  Biso   1.000  H
  H70      1.0000 0.84990  0.74860  0.83500  Biso   1.000  H
  H71      1.0000 0.84990  0.25140  0.33500  Biso   1.000  H
  H72      1.0000 0.15010  0.25140  0.16500  Biso   1.000  H
  C89      1.0000 0.18900  0.71680  0.59310  Biso   1.000  C
  C90      1.0000 0.81100  0.71680  0.90690  Biso   1.000  C
  C91      1.0000 0.81100  0.28320  0.40690  Biso   1.000  C
  C92      1.0000 0.18900  0.28320  0.09310  Biso   1.000  C
  H73      1.0000 0.15740  0.74170  0.55970  Biso   1.000  H
  H74      1.0000 0.84260  0.74170  0.94030  Biso   1.000  H
  H75      1.0000 0.84260  0.25830  0.44030  Biso   1.000  H
  H76      1.0000 0.15740  0.25830  0.05970  Biso   1.000  H
  C93      1.0000 0.24110  0.67630  0.58110  Biso   1.000  C
  C94      1.0000 0.75890  0.67630  0.91890  Biso   1.000  C
  C95      1.0000 0.75890  0.32370  0.41890  Biso   1.000  C
  C96      1.0000 0.24110  0.32370  0.08110  Biso   1.000  C
  C97      1.0000 0.28630  0.63730  0.63570  Biso   1.000  C
  C98      1.0000 0.71370  0.63730  0.86430  Biso   1.000  C
  C99      1.0000 0.71370  0.36270  0.36430  Biso   1.000  C
  C100     1.0000 0.28630  0.36270  0.13570  Biso   1.000  C
  H77      1.0000 0.32230  0.60960  0.63070  Biso   1.000  H
  H78      1.0000 0.67770  0.60960  0.86930  Biso   1.000  H
  H79      1.0000 0.67770  0.39040  0.36930  Biso   1.000  H
  H80      1.0000 0.32230  0.39040  0.13070  Biso   1.000  H
  C101     1.0000 0.27710  0.64050  0.69200  Biso   1.000  C
  C102     1.0000 0.72290  0.64050  0.80800  Biso   1.000  C
  C103     1.0000 0.72290  0.35950  0.30800  Biso   1.000  C
  C104     1.0000 0.27710  0.35950  0.19200  Biso   1.000  C
  H81      1.0000 0.30730  0.61090  0.72580  Biso   1.000  H
  H82      1.0000 0.69270  0.61090  0.77420  Biso   1.000  H
  H83      1.0000 0.69270  0.38910  0.27420  Biso   1.000  H
  H84      1.0000 0.30730  0.38910  0.22580  Biso   1.000  H
  C105     1.0000 0.30760  0.66780  0.44120  Biso   1.000  C
  C106     1.0000 0.69240  0.66780  0.05880  Biso   1.000  C
  C107     1.0000 0.69240  0.33220  0.55880  Biso   1.000  C
  C108     1.0000 0.30760  0.33220  0.94120  Biso   1.000  C
  H85      1.0000 0.34460  0.67160  0.43370  Biso   1.000  H
  H86      1.0000 0.65540  0.67160  0.06630  Biso   1.000  H
  H87      1.0000 0.65540  0.32840  0.56630  Biso   1.000  H
  H88      1.0000 0.34460  0.32840  0.93370  Biso   1.000  H
  C109     1.0000 0.30350  0.67450  0.50300  Biso   1.000  C
  C110     1.0000 0.69650  0.67450  0.99700  Biso   1.000  C
  C111     1.0000 0.69650  0.32550  0.49700  Biso   1.000  C
  C112     1.0000 0.30350  0.32550  0.00300  Biso   1.000  C
  H89      1.0000 0.33720  0.68400  0.53650  Biso   1.000  H
  H90      1.0000 0.66280  0.68400  0.96350  Biso   1.000  H
  H91      1.0000 0.66280  0.31600  0.46350  Biso   1.000  H
  H92      1.0000 0.33720  0.31600  0.03650  Biso   1.000  H
  C113     1.0000 0.24860  0.66690  0.51560  Biso   1.000  C
  C114     1.0000 0.75140  0.66690  0.98440  Biso   1.000  C
  C115     1.0000 0.75140  0.33310  0.48440  Biso   1.000  C
  C116     1.0000 0.24860  0.33310  0.01560  Biso   1.000  C
  C117     1.0000 0.20070  0.65280  0.46390  Biso   1.000  C
  C118     1.0000 0.79930  0.65280  0.03610  Biso   1.000  C
  C119     1.0000 0.79930  0.34720  0.53610  Biso   1.000  C
  C120     1.0000 0.20070  0.34720  0.96390  Biso   1.000  C
  H93      1.0000 0.16310  0.64530  0.46960  Biso   1.000  H
  H94      1.0000 0.83690  0.64530  0.03040  Biso   1.000  H
  H95      1.0000 0.83690  0.35470  0.53040  Biso   1.000  H
  H96      1.0000 0.16310  0.35470  0.96960  Biso   1.000  H
  C121     1.0000 0.20960  0.65000  0.40390  Biso   1.000  C
  C122     1.0000 0.79040  0.65000  0.09610  Biso   1.000  C
  C123     1.0000 0.79040  0.35000  0.59610  Biso   1.000  C
  C124     1.0000 0.20960  0.35000  0.90390  Biso   1.000  C
  H97      1.0000 0.17650  0.64310  0.36950  Biso   1.000  H
  H98      1.0000 0.82350  0.64310  0.13050  Biso   1.000  H
  H99      1.0000 0.82350  0.35690  0.63050  Biso   1.000  H
  H100     1.0000 0.17650  0.35690  0.86950  Biso   1.000  H
  C125     1.0000 0.17660  0.72140  0.90590  Biso   1.000  C
  C126     1.0000 0.82340  0.72140  0.59410  Biso   1.000  C
  C127     1.0000 0.82340  0.27860  0.09410  Biso   1.000  C
  C128     1.0000 0.17660  0.27860  0.40590  Biso   1.000  C
  H101     1.0000 0.14040  0.74260  0.87850  Biso   1.000  H
  H102     1.0000 0.85960  0.74260  0.62150  Biso   1.000  H
  H103     1.0000 0.85960  0.25740  0.12150  Biso   1.000  H
  H104     1.0000 0.14040  0.25740  0.37850  Biso   1.000  H
  C129     1.0000 0.18240  0.72050  0.97030  Biso   1.000  C
  C130     1.0000 0.81760  0.72050  0.52970  Biso   1.000  C
  C131     1.0000 0.81760  0.27950  0.02970  Biso   1.000  C
  C132     1.0000 0.18240  0.27950  0.47030  Biso   1.000  C
  H105     1.0000 0.15010  0.73930  0.98580  Biso   1.000  H
  H106     1.0000 0.84990  0.73930  0.51420  Biso   1.000  H
  H107     1.0000 0.84990  0.26070  0.01420  Biso   1.000  H
  H108     1.0000 0.15010  0.26070  0.48580  Biso   1.000  H
  C133     1.0000 0.23410  0.69270  0.01160  Biso   1.000  C
  C134     1.0000 0.76590  0.69270  0.48840  Biso   1.000  C
  C135     1.0000 0.76590  0.30730  0.98840  Biso   1.000  C
  C136     1.0000 0.23410  0.30730  0.51160  Biso   1.000  C
  C137     1.0000 0.28130  0.66770  0.98770  Biso   1.000  C
  C138     1.0000 0.71870  0.66770  0.51230  Biso   1.000  C
  C139     1.0000 0.71870  0.33230  0.01230  Biso   1.000  C
  C140     1.0000 0.28130  0.33230  0.48770  Biso   1.000  C
  H109     1.0000 0.31810  0.64990  0.01490  Biso   1.000  H
  H110     1.0000 0.68190  0.64990  0.48510  Biso   1.000  H
  H111     1.0000 0.68190  0.35010  0.98510  Biso   1.000  H
  H112     1.0000 0.31810  0.35010  0.51490  Biso   1.000  H
  C141     1.0000 0.27270  0.66980  0.92110  Biso   1.000  C
  C142     1.0000 0.72730  0.66980  0.57890  Biso   1.000  C
  C143     1.0000 0.72730  0.33020  0.07890  Biso   1.000  C
  C144     1.0000 0.27270  0.33020  0.42110  Biso   1.000  C
  H113     1.0000 0.30500  0.65420  0.90500  Biso   1.000  H
  H114     1.0000 0.69500  0.65420  0.59500  Biso   1.000  H
  H115     1.0000 0.69500  0.34580  0.09500  Biso   1.000  H
  H116     1.0000 0.30500  0.34580  0.40500  Biso   1.000  H
  C145     1.0000 0.30130  0.69310  0.19200  Biso   1.000  C
  C146     1.0000 0.69870  0.69310  0.30800  Biso   1.000  C
  C147     1.0000 0.69870  0.30690  0.80800  Biso   1.000  C
  C148     1.0000 0.30130  0.30690  0.69200  Biso   1.000  C
  H117     1.0000 0.33790  0.70980  0.21970  Biso   1.000  H
  H118     1.0000 0.66210  0.70980  0.28030  Biso   1.000  H
  H119     1.0000 0.66210  0.29020  0.78030  Biso   1.000  H
  H120     1.0000 0.33790  0.29020  0.71970  Biso   1.000  H
  C149     1.0000 0.29430  0.70820  0.12570  Biso   1.000  C
  C150     1.0000 0.70570  0.70820  0.37430  Biso   1.000  C
  C151     1.0000 0.70570  0.29180  0.87430  Biso   1.000  C
  C152     1.0000 0.29430  0.29180  0.62570  Biso   1.000  C
  H121     1.0000 0.32650  0.73360  0.11140  Biso   1.000  H
  H122     1.0000 0.67350  0.73360  0.38860  Biso   1.000  H
  H123     1.0000 0.67350  0.26640  0.88860  Biso   1.000  H
  H124     1.0000 0.32650  0.26640  0.61140  Biso   1.000  H
  C153     1.0000 0.24210  0.68680  0.08200  Biso   1.000  C
  C154     1.0000 0.75790  0.68680  0.41800  Biso   1.000  C
  C155     1.0000 0.75790  0.31320  0.91800  Biso   1.000  C
  C156     1.0000 0.24210  0.31320  0.58200  Biso   1.000  C
  C157     1.0000 0.19600  0.65370  0.10780  Biso   1.000  C
  C158     1.0000 0.80400  0.65370  0.39220  Biso   1.000  C
  C159     1.0000 0.80400  0.34630  0.89220  Biso   1.000  C
  C160     1.0000 0.19600  0.34630  0.60780  Biso   1.000  C
  H125     1.0000 0.15910  0.63790  0.08050  Biso   1.000  H
  H126     1.0000 0.84090  0.63790  0.41950  Biso   1.000  H
  H127     1.0000 0.84090  0.36210  0.91950  Biso   1.000  H
  H128     1.0000 0.15910  0.36210  0.58050  Biso   1.000  H
  C161     1.0000 0.20370  0.64420  0.17110  Biso   1.000  C
  C162     1.0000 0.79630  0.64420  0.32890  Biso   1.000  C
  C163     1.0000 0.79630  0.35580  0.82890  Biso   1.000  C
  C164     1.0000 0.20370  0.35580  0.67110  Biso   1.000  C
  H129     1.0000 0.17080  0.62860  0.18600  Biso   1.000  H
  H130     1.0000 0.82920  0.62860  0.31400  Biso   1.000  H
  H131     1.0000 0.82920  0.37140  0.81400  Biso   1.000  H
  H132     1.0000 0.17080  0.37140  0.68600  Biso   1.000  H
  C165     1.0000 0.64680  0.98000  0.48220  Biso   1.000  C
  C166     1.0000 0.35320  0.98000  0.01780  Biso   1.000  C
  C167     1.0000 0.35320  0.02000  0.51780  Biso   1.000  C
  C168     1.0000 0.64680  0.02000  0.98220  Biso   1.000  C
  H133     1.0000 0.61190  0.96970  0.45050  Biso   1.000  H
  H134     1.0000 0.38810  0.96970  0.04950  Biso   1.000  H
  H135     1.0000 0.38810  0.03030  0.54950  Biso   1.000  H
  H136     1.0000 0.61190  0.03030  0.95050  Biso   1.000  H
  C169     1.0000 0.64560  0.96880  0.54650  Biso   1.000  C
  C170     1.0000 0.35440  0.96880  0.95350  Biso   1.000  C
  C171     1.0000 0.35440  0.03120  0.45350  Biso   1.000  C
  C172     1.0000 0.64560  0.03120  0.04650  Biso   1.000  C
  H137     1.0000 0.61060  0.95060  0.55680  Biso   1.000  H
  H138     1.0000 0.38940  0.95060  0.94320  Biso   1.000  H
  H139     1.0000 0.38940  0.04940  0.44320  Biso   1.000  H
  H140     1.0000 0.61060  0.04940  0.05680  Biso   1.000  H
  C173     1.0000 0.69810  0.98570  0.59530  Biso   1.000  C
  C174     1.0000 0.30190  0.98570  0.90470  Biso   1.000  C
  C175     1.0000 0.30190  0.01430  0.40470  Biso   1.000  C
  C176     1.0000 0.69810  0.01430  0.09530  Biso   1.000  C
  C177     1.0000 0.74680  0.01010  0.57660  Biso   1.000  C
  C178     1.0000 0.25320  0.01010  0.92340  Biso   1.000  C
  C179     1.0000 0.25320  0.98990  0.42340  Biso   1.000  C
  C180     1.0000 0.74680  0.98990  0.07660  Biso   1.000  C
  H141     1.0000 0.78250  0.02080  0.60700  Biso   1.000  H
  H142     1.0000 0.21750  0.02080  0.89300  Biso   1.000  H
  H143     1.0000 0.21750  0.97920  0.39300  Biso   1.000  H
  H144     1.0000 0.78250  0.97920  0.10700  Biso   1.000  H
  C181     1.0000 0.74420  0.01940  0.51220  Biso   1.000  C
  C182     1.0000 0.25580  0.01940  0.98780  Biso   1.000  C
  C183     1.0000 0.25580  0.98060  0.48780  Biso   1.000  C
  C184     1.0000 0.74420  0.98060  0.01220  Biso   1.000  C
  H145     1.0000 0.77880  0.03720  0.50080  Biso   1.000  H
  H146     1.0000 0.22120  0.03720  0.99920  Biso   1.000  H
  H147     1.0000 0.22120  0.96280  0.49920  Biso   1.000  H
  H148     1.0000 0.77880  0.96280  0.00080  Biso   1.000  H
  C185     1.0000 0.64970  0.90130  0.74440  Biso   1.000  C
  C186     1.0000 0.35030  0.90130  0.75560  Biso   1.000  C
  C187     1.0000 0.35030  0.09870  0.25560  Biso   1.000  C
  C188     1.0000 0.64970  0.09870  0.24440  Biso   1.000  C
  H149     1.0000 0.61930  0.85680  0.75490  Biso   1.000  H
  H150     1.0000 0.38070  0.85680  0.74510  Biso   1.000  H
  H151     1.0000 0.38070  0.14320  0.24510  Biso   1.000  H
  H152     1.0000 0.61930  0.14320  0.25490  Biso   1.000  H
  C189     1.0000 0.65080  0.90660  0.68130  Biso   1.000  C
  C190     1.0000 0.34920  0.90660  0.81870  Biso   1.000  C
  C191     1.0000 0.34920  0.09340  0.31870  Biso   1.000  C
  C192     1.0000 0.65080  0.09340  0.18130  Biso   1.000  C
  H153     1.0000 0.62120  0.86750  0.65010  Biso   1.000  H
  H154     1.0000 0.37880  0.86750  0.84990  Biso   1.000  H
  H155     1.0000 0.37880  0.13250  0.34990  Biso   1.000  H
  H156     1.0000 0.62120  0.13250  0.15010  Biso   1.000  H
  C193     1.0000 0.69570  0.96960  0.66410  Biso   1.000  C
  C194     1.0000 0.30430  0.96960  0.83590  Biso   1.000  C
  C195     1.0000 0.30430  0.03040  0.33590  Biso   1.000  C
  C196     1.0000 0.69570  0.03040  0.16410  Biso   1.000  C
  C197     1.0000 0.73870  0.02450  0.71120  Biso   1.000  C
  C198     1.0000 0.26130  0.02450  0.78880  Biso   1.000  C
  C199     1.0000 0.26130  0.97550  0.28880  Biso   1.000  C
  C200     1.0000 0.73870  0.97550  0.21120  Biso   1.000  C
  H157     1.0000 0.76930  0.06910  0.70130  Biso   1.000  H
  H158     1.0000 0.23070  0.06910  0.79870  Biso   1.000  H
  H159     1.0000 0.23070  0.93090  0.29870  Biso   1.000  H
  H160     1.0000 0.76930  0.93090  0.20130  Biso   1.000  H
  C201     1.0000 0.73600  0.01250  0.77510  Biso   1.000  C
  C202     1.0000 0.26400  0.01250  0.72490  Biso   1.000  C
  C203     1.0000 0.26400  0.98750  0.22490  Biso   1.000  C
  C204     1.0000 0.73600  0.98750  0.27510  Biso   1.000  C
  H161     1.0000 0.76700  0.04390  0.80750  Biso   1.000  H
  H162     1.0000 0.23300  0.04390  0.69250  Biso   1.000  H
  H163     1.0000 0.23300  0.95610  0.19250  Biso   1.000  H
  H164     1.0000 0.76700  0.95610  0.30750  Biso   1.000  H
