data_image0
_cell_length_a       23.55
_cell_length_b       10.4
_cell_length_c       21.53
_cell_angle_alpha    90
_cell_angle_beta     105.03
_cell_angle_gamma    90

_symmetry_space_group_name_H-M    "P 1"
_symmetry_int_tables_number       1

loop_
  _symmetry_equiv_pos_as_xyz
  'x, y, z'

loop_
  _atom_site_label
  _atom_site_occupancy
  _atom_site_fract_x
  _atom_site_fract_y
  _atom_site_fract_z
  _atom_site_thermal_displace_type
  _atom_site_B_iso_or_equiv
  _atom_site_type_symbol
  Cu1      1.0000 0.68651  0.95164  0.87743  Biso   1.000  Cu
  Cu2      1.0000 0.31349  0.95164  0.62257  Biso   1.000  Cu
  Cu3      1.0000 0.31349  0.04836  0.12257  Biso   1.000  Cu
  Cu4      1.0000 0.68651  0.04836  0.37743  Biso   1.000  Cu
  Cu5      1.0000 0.21380  0.33297  0.29036  Biso   1.000  Cu
  Cu6      1.0000 0.78620  0.33297  0.20964  Biso   1.000  Cu
  Cu7      1.0000 0.78620  0.66703  0.70964  Biso   1.000  Cu
  Cu8      1.0000 0.21380  0.66703  0.79036  Biso   1.000  Cu
  Cu9      1.0000 0.26912  0.36309  0.80522  Biso   1.000  Cu
  Cu10     1.0000 0.73088  0.36309  0.69478  Biso   1.000  Cu
  Cu11     1.0000 0.73088  0.63691  0.19478  Biso   1.000  Cu
  Cu12     1.0000 0.26912  0.63691  0.30522  Biso   1.000  Cu
  Gd1      1.0000 0.50000  0.53171  0.75000  Biso   1.000  Gd
  Gd2      1.0000 0.50000  0.46829  0.25000  Biso   1.000  Gd
  Gd3      1.0000 0.00000  0.22923  0.25000  Biso   1.000  Gd
  Gd4      1.0000 0.00000  0.77077  0.75000  Biso   1.000  Gd
  C1       1.0000 0.96800  0.12340  0.38280  Biso   1.000  C
  C2       1.0000 0.03200  0.12340  0.11720  Biso   1.000  C
  C3       1.0000 0.03200  0.87660  0.61720  Biso   1.000  C
  C4       1.0000 0.96800  0.87660  0.88280  Biso   1.000  C
  C5       1.0000 0.94540  0.04760  0.42340  Biso   1.000  C
  C6       1.0000 0.05460  0.04760  0.07660  Biso   1.000  C
  C7       1.0000 0.05460  0.95240  0.57660  Biso   1.000  C
  C8       1.0000 0.94540  0.95240  0.92340  Biso   1.000  C
  H1       1.0000 0.95580  0.06330  0.46740  Biso   1.000  H
  H2       1.0000 0.04420  0.06330  0.03260  Biso   1.000  H
  H3       1.0000 0.04420  0.93670  0.53260  Biso   1.000  H
  H4       1.0000 0.95580  0.93670  0.96740  Biso   1.000  H
  C9       1.0000 0.90730  0.94830  0.39840  Biso   1.000  C
  C10      1.0000 0.09270  0.94830  0.10160  Biso   1.000  C
  C11      1.0000 0.09270  0.05170  0.60160  Biso   1.000  C
  C12      1.0000 0.90730  0.05170  0.89840  Biso   1.000  C
  H5       1.0000 0.89140  0.89680  0.42490  Biso   1.000  H
  H6       1.0000 0.10860  0.89680  0.07510  Biso   1.000  H
  H7       1.0000 0.10860  0.10320  0.57510  Biso   1.000  H
  H8       1.0000 0.89140  0.10320  0.92490  Biso   1.000  H
  C13      1.0000 0.89360  0.92800  0.33240  Biso   1.000  C
  C14      1.0000 0.10640  0.92800  0.16760  Biso   1.000  C
  C15      1.0000 0.10640  0.07200  0.66760  Biso   1.000  C
  C16      1.0000 0.89360  0.07200  0.83240  Biso   1.000  C
  H9       1.0000 0.86940  0.86010  0.31400  Biso   1.000  H
  H10      1.0000 0.13060  0.86010  0.18600  Biso   1.000  H
  H11      1.0000 0.13060  0.13990  0.68600  Biso   1.000  H
  H12      1.0000 0.86940  0.13990  0.81400  Biso   1.000  H
  C17      1.0000 0.91630  0.00960  0.29460  Biso   1.000  C
  C18      1.0000 0.08370  0.00960  0.20540  Biso   1.000  C
  C19      1.0000 0.08370  0.99040  0.70540  Biso   1.000  C
  C20      1.0000 0.91630  0.99040  0.79460  Biso   1.000  C
  C21      1.0000 0.90350  0.99650  0.22280  Biso   1.000  C
  C22      1.0000 0.09650  0.99650  0.27720  Biso   1.000  C
  C23      1.0000 0.09650  0.00350  0.77720  Biso   1.000  C
  C24      1.0000 0.90350  0.00350  0.72280  Biso   1.000  C
  C25      1.0000 0.00990  0.23390  0.40340  Biso   1.000  C
  C26      1.0000 0.99010  0.23390  0.09660  Biso   1.000  C
  C27      1.0000 0.99010  0.76610  0.59660  Biso   1.000  C
  C28      1.0000 0.00990  0.76610  0.90340  Biso   1.000  C
  C29      1.0000 0.04990  0.52890  0.25820  Biso   1.000  C
  C30      1.0000 0.95010  0.52890  0.24180  Biso   1.000  C
  C31      1.0000 0.95010  0.47110  0.74180  Biso   1.000  C
  C32      1.0000 0.04990  0.47110  0.75820  Biso   1.000  C
  C33      1.0000 0.05180  0.66160  0.25920  Biso   1.000  C
  C34      1.0000 0.94820  0.66160  0.24080  Biso   1.000  C
  C35      1.0000 0.94820  0.33840  0.74080  Biso   1.000  C
  C36      1.0000 0.05180  0.33840  0.75920  Biso   1.000  C
  H13      1.0000 0.08740  0.70500  0.26610  Biso   1.000  H
  H14      1.0000 0.91260  0.70500  0.23390  Biso   1.000  H
  H15      1.0000 0.91260  0.29500  0.73390  Biso   1.000  H
  H16      1.0000 0.08740  0.29500  0.76610  Biso   1.000  H
  C37      1.0000 0.00000  0.72770  0.25000  Biso   1.000  C
  C38      1.0000 0.00000  0.27230  0.75000  Biso   1.000  C
  H17      1.0000 0.00000  0.81710  0.25000  Biso   1.000  H
  H18      1.0000 0.00000  0.18290  0.75000  Biso   1.000  H
  C39      1.0000 0.10280  0.44510  0.26480  Biso   1.000  C
  C40      1.0000 0.89720  0.44510  0.23520  Biso   1.000  C
  C41      1.0000 0.89720  0.55490  0.73520  Biso   1.000  C
  C42      1.0000 0.10280  0.55490  0.76480  Biso   1.000  C
  C43      1.0000 0.30330  0.32460  0.00330  Biso   1.000  C
  C44      1.0000 0.69670  0.32460  0.49670  Biso   1.000  C
  C45      1.0000 0.69670  0.67540  0.99670  Biso   1.000  C
  C46      1.0000 0.30330  0.67540  0.50330  Biso   1.000  C
  H19      1.0000 0.33700  0.31470  0.03690  Biso   1.000  H
  H20      1.0000 0.66300  0.31470  0.46310  Biso   1.000  H
  H21      1.0000 0.66300  0.68530  0.96310  Biso   1.000  H
  H22      1.0000 0.33700  0.68530  0.53690  Biso   1.000  H
  C47      1.0000 0.24890  0.33390  0.01590  Biso   1.000  C
  C48      1.0000 0.75110  0.33390  0.48410  Biso   1.000  C
  C49      1.0000 0.75110  0.66610  0.98410  Biso   1.000  C
  C50      1.0000 0.24890  0.66610  0.51590  Biso   1.000  C
  C51      1.0000 0.24180  0.32580  0.08270  Biso   1.000  C
  C52      1.0000 0.75820  0.32580  0.41730  Biso   1.000  C
  C53      1.0000 0.75820  0.67420  0.91730  Biso   1.000  C
  C54      1.0000 0.24180  0.67420  0.58270  Biso   1.000  C
  C55      1.0000 0.19010  0.28210  0.09500  Biso   1.000  C
  C56      1.0000 0.80990  0.28210  0.40500  Biso   1.000  C
  C57      1.0000 0.80990  0.71790  0.90500  Biso   1.000  C
  C58      1.0000 0.19010  0.71790  0.59500  Biso   1.000  C
  H23      1.0000 0.15910  0.25410  0.06150  Biso   1.000  H
  H24      1.0000 0.84090  0.25410  0.43850  Biso   1.000  H
  H25      1.0000 0.84090  0.74590  0.93850  Biso   1.000  H
  H26      1.0000 0.15910  0.74590  0.56150  Biso   1.000  H
  C59      1.0000 0.18540  0.28060  0.15700  Biso   1.000  C
  C60      1.0000 0.81460  0.28060  0.34300  Biso   1.000  C
  C61      1.0000 0.81460  0.71940  0.84300  Biso   1.000  C
  C62      1.0000 0.18540  0.71940  0.65700  Biso   1.000  C
  H27      1.0000 0.15040  0.25130  0.16440  Biso   1.000  H
  H28      1.0000 0.84960  0.25130  0.33560  Biso   1.000  H
  H29      1.0000 0.84960  0.74870  0.83560  Biso   1.000  H
  H30      1.0000 0.15040  0.74870  0.66440  Biso   1.000  H
  C63      1.0000 0.27790  0.36070  0.19490  Biso   1.000  C
  C64      1.0000 0.72210  0.36070  0.30510  Biso   1.000  C
  C65      1.0000 0.72210  0.63930  0.80510  Biso   1.000  C
  C66      1.0000 0.27790  0.63930  0.69490  Biso   1.000  C
  H31      1.0000 0.30840  0.38750  0.22930  Biso   1.000  H
  H32      1.0000 0.69160  0.38750  0.27070  Biso   1.000  H
  H33      1.0000 0.69160  0.61250  0.77070  Biso   1.000  H
  H34      1.0000 0.30840  0.61250  0.72930  Biso   1.000  H
  C67      1.0000 0.28650  0.36640  0.13490  Biso   1.000  C
  C68      1.0000 0.71350  0.36640  0.36510  Biso   1.000  C
  C69      1.0000 0.71350  0.63360  0.86510  Biso   1.000  C
  C70      1.0000 0.28650  0.63360  0.63490  Biso   1.000  C
  H35      1.0000 0.32180  0.39690  0.12890  Biso   1.000  H
  H36      1.0000 0.67820  0.39690  0.37110  Biso   1.000  H
  H37      1.0000 0.67820  0.60310  0.87110  Biso   1.000  H
  H38      1.0000 0.32180  0.60310  0.62890  Biso   1.000  H
  C71      1.0000 0.17700  0.28060  0.40440  Biso   1.000  C
  C72      1.0000 0.82300  0.28060  0.09560  Biso   1.000  C
  C73      1.0000 0.82300  0.71940  0.59560  Biso   1.000  C
  C74      1.0000 0.17700  0.71940  0.90440  Biso   1.000  C
  H39      1.0000 0.14070  0.26230  0.37620  Biso   1.000  H
  H40      1.0000 0.85930  0.26230  0.12380  Biso   1.000  H
  H41      1.0000 0.85930  0.73770  0.62380  Biso   1.000  H
  H42      1.0000 0.14070  0.73770  0.87620  Biso   1.000  H
  C75      1.0000 0.27410  0.33090  0.42190  Biso   1.000  C
  C76      1.0000 0.72590  0.33090  0.07810  Biso   1.000  C
  C77      1.0000 0.72590  0.66910  0.57810  Biso   1.000  C
  C78      1.0000 0.27410  0.66910  0.92190  Biso   1.000  C
  H43      1.0000 0.30620  0.34860  0.40560  Biso   1.000  H
  H44      1.0000 0.69380  0.34860  0.09440  Biso   1.000  H
  H45      1.0000 0.69380  0.65140  0.59440  Biso   1.000  H
  H46      1.0000 0.30620  0.65140  0.90560  Biso   1.000  H
  C79      1.0000 0.28240  0.33060  0.48760  Biso   1.000  C
  C80      1.0000 0.71760  0.33060  0.01240  Biso   1.000  C
  C81      1.0000 0.71760  0.66940  0.51240  Biso   1.000  C
  C82      1.0000 0.28240  0.66940  0.98760  Biso   1.000  C
  H47      1.0000 0.31940  0.34670  0.51480  Biso   1.000  H
  H48      1.0000 0.68060  0.34670  0.98520  Biso   1.000  H
  H49      1.0000 0.68060  0.65330  0.48520  Biso   1.000  H
  H50      1.0000 0.31940  0.65330  0.01480  Biso   1.000  H
  C83      1.0000 0.18160  0.27930  0.46960  Biso   1.000  C
  C84      1.0000 0.81840  0.27930  0.03040  Biso   1.000  C
  C85      1.0000 0.81840  0.72070  0.53040  Biso   1.000  C
  C86      1.0000 0.18160  0.72070  0.96960  Biso   1.000  C
  H51      1.0000 0.14890  0.26050  0.48470  Biso   1.000  H
  H52      1.0000 0.85110  0.26050  0.01530  Biso   1.000  H
  H53      1.0000 0.85110  0.73950  0.51530  Biso   1.000  H
  H54      1.0000 0.14890  0.73950  0.98470  Biso   1.000  H
  C87      1.0000 0.23510  0.30600  0.51250  Biso   1.000  C
  C88      1.0000 0.76490  0.30600  0.98750  Biso   1.000  C
  C89      1.0000 0.76490  0.69400  0.48750  Biso   1.000  C
  C90      1.0000 0.23510  0.69400  0.01250  Biso   1.000  C
  C91      1.0000 0.24180  0.31090  0.58260  Biso   1.000  C
  C92      1.0000 0.75820  0.31090  0.91740  Biso   1.000  C
  C93      1.0000 0.75820  0.68910  0.41740  Biso   1.000  C
  C94      1.0000 0.24180  0.68910  0.08260  Biso   1.000  C
  C95      1.0000 0.19500  0.34660  0.60730  Biso   1.000  C
  C96      1.0000 0.80500  0.34660  0.89270  Biso   1.000  C
  C97      1.0000 0.80500  0.65340  0.39270  Biso   1.000  C
  C98      1.0000 0.19500  0.65340  0.10730  Biso   1.000  C
  H55      1.0000 0.15820  0.36270  0.57990  Biso   1.000  H
  H56      1.0000 0.84180  0.36270  0.92010  Biso   1.000  H
  H57      1.0000 0.84180  0.63730  0.42010  Biso   1.000  H
  H58      1.0000 0.15820  0.63730  0.07990  Biso   1.000  H
  C99      1.0000 0.20410  0.35790  0.67280  Biso   1.000  C
  C100     1.0000 0.79590  0.35790  0.82720  Biso   1.000  C
  C101     1.0000 0.79590  0.64210  0.32720  Biso   1.000  C
  C102     1.0000 0.20410  0.64210  0.17280  Biso   1.000  C
  H59      1.0000 0.17230  0.37930  0.68880  Biso   1.000  H
  H60      1.0000 0.82770  0.37930  0.81120  Biso   1.000  H
  H61      1.0000 0.82770  0.62070  0.31120  Biso   1.000  H
  H62      1.0000 0.17230  0.62070  0.18880  Biso   1.000  H
  C103     1.0000 0.30120  0.30550  0.69020  Biso   1.000  C
  C104     1.0000 0.69880  0.30550  0.80980  Biso   1.000  C
  C105     1.0000 0.69880  0.69450  0.30980  Biso   1.000  C
  C106     1.0000 0.30120  0.69450  0.19020  Biso   1.000  C
  H63      1.0000 0.33800  0.29170  0.71830  Biso   1.000  H
  H64      1.0000 0.66200  0.29170  0.78170  Biso   1.000  H
  H65      1.0000 0.66200  0.70830  0.28170  Biso   1.000  H
  H66      1.0000 0.33800  0.70830  0.21830  Biso   1.000  H
  C107     1.0000 0.29520  0.29000  0.62580  Biso   1.000  C
  C108     1.0000 0.70480  0.29000  0.87420  Biso   1.000  C
  C109     1.0000 0.70480  0.71000  0.37420  Biso   1.000  C
  C110     1.0000 0.29520  0.71000  0.12580  Biso   1.000  C
  H67      1.0000 0.32740  0.26520  0.61120  Biso   1.000  H
  H68      1.0000 0.67260  0.26520  0.88880  Biso   1.000  H
  H69      1.0000 0.67260  0.73480  0.38880  Biso   1.000  H
  H70      1.0000 0.32740  0.73480  0.11120  Biso   1.000  H
  C111     1.0000 0.30740  0.33000  0.94090  Biso   1.000  C
  C112     1.0000 0.69260  0.33000  0.55910  Biso   1.000  C
  C113     1.0000 0.69260  0.67000  0.05910  Biso   1.000  C
  C114     1.0000 0.30740  0.67000  0.44090  Biso   1.000  C
  H71      1.0000 0.34430  0.32410  0.93300  Biso   1.000  H
  H72      1.0000 0.65570  0.32410  0.56700  Biso   1.000  H
  H73      1.0000 0.65570  0.67590  0.06700  Biso   1.000  H
  H74      1.0000 0.34430  0.67590  0.43300  Biso   1.000  H
  C115     1.0000 0.20760  0.35050  0.90310  Biso   1.000  C
  C116     1.0000 0.79240  0.35050  0.59690  Biso   1.000  C
  C117     1.0000 0.79240  0.64950  0.09690  Biso   1.000  C
  C118     1.0000 0.20760  0.64950  0.40310  Biso   1.000  C
  H75      1.0000 0.17440  0.35740  0.86870  Biso   1.000  H
  H76      1.0000 0.82560  0.35740  0.63130  Biso   1.000  H
  H77      1.0000 0.82560  0.64260  0.13130  Biso   1.000  H
  H78      1.0000 0.17440  0.64260  0.36870  Biso   1.000  H
  C119     1.0000 0.20010  0.34800  0.96420  Biso   1.000  C
  C120     1.0000 0.79990  0.34800  0.53580  Biso   1.000  C
  C121     1.0000 0.79990  0.65200  0.03580  Biso   1.000  C
  C122     1.0000 0.20010  0.65200  0.46420  Biso   1.000  C
  H79      1.0000 0.16280  0.35570  0.97080  Biso   1.000  H
  H80      1.0000 0.83720  0.35570  0.52920  Biso   1.000  H
  H81      1.0000 0.83720  0.64430  0.02920  Biso   1.000  H
  H82      1.0000 0.16280  0.64430  0.47080  Biso   1.000  H
  C123     1.0000 0.73630  0.98830  0.27420  Biso   1.000  C
  C124     1.0000 0.26370  0.98830  0.22580  Biso   1.000  C
  C125     1.0000 0.26370  0.01170  0.72580  Biso   1.000  C
  C126     1.0000 0.73630  0.01170  0.77420  Biso   1.000  C
  H83      1.0000 0.76670  0.95420  0.30660  Biso   1.000  H
  H84      1.0000 0.23330  0.95420  0.19340  Biso   1.000  H
  H85      1.0000 0.23330  0.04580  0.69340  Biso   1.000  H
  H86      1.0000 0.76670  0.04580  0.80660  Biso   1.000  H
  C127     1.0000 0.73930  0.97660  0.21150  Biso   1.000  C
  C128     1.0000 0.26070  0.97660  0.28850  Biso   1.000  C
  C129     1.0000 0.26070  0.02340  0.78850  Biso   1.000  C
  C130     1.0000 0.73930  0.02340  0.71150  Biso   1.000  C
  H87      1.0000 0.77060  0.93360  0.20190  Biso   1.000  H
  H88      1.0000 0.22940  0.93360  0.29810  Biso   1.000  H
  H89      1.0000 0.22940  0.06640  0.79810  Biso   1.000  H
  H90      1.0000 0.77060  0.06640  0.70190  Biso   1.000  H
  C131     1.0000 0.69530  0.02940  0.16290  Biso   1.000  C
  C132     1.0000 0.30470  0.02940  0.33710  Biso   1.000  C
  C133     1.0000 0.30470  0.97060  0.83710  Biso   1.000  C
  C134     1.0000 0.69530  0.97060  0.66290  Biso   1.000  C
  C135     1.0000 0.65040  0.09370  0.18070  Biso   1.000  C
  C136     1.0000 0.34960  0.09370  0.31930  Biso   1.000  C
  C137     1.0000 0.34960  0.90630  0.81930  Biso   1.000  C
  C138     1.0000 0.65040  0.90630  0.68070  Biso   1.000  C
  H91      1.0000 0.62020  0.13170  0.14940  Biso   1.000  H
  H92      1.0000 0.37980  0.13170  0.35060  Biso   1.000  H
  H93      1.0000 0.37980  0.86830  0.85060  Biso   1.000  H
  H94      1.0000 0.62020  0.86830  0.64940  Biso   1.000  H
  C139     1.0000 0.69650  0.01660  0.09450  Biso   1.000  C
  C140     1.0000 0.30350  0.01660  0.40550  Biso   1.000  C
  C141     1.0000 0.30350  0.98340  0.90550  Biso   1.000  C
  C142     1.0000 0.69650  0.98340  0.59450  Biso   1.000  C
  C143     1.0000 0.74670  0.99200  0.07600  Biso   1.000  C
  C144     1.0000 0.25330  0.99200  0.42400  Biso   1.000  C
  C145     1.0000 0.25330  0.00800  0.92400  Biso   1.000  C
  C146     1.0000 0.74670  0.00800  0.57600  Biso   1.000  C
  H95      1.0000 0.78220  0.98350  0.10700  Biso   1.000  H
  H96      1.0000 0.21780  0.98350  0.39300  Biso   1.000  H
  H97      1.0000 0.21780  0.01650  0.89300  Biso   1.000  H
  H98      1.0000 0.78220  0.01650  0.60700  Biso   1.000  H
  C147     1.0000 0.74520  0.97970  0.01230  Biso   1.000  C
  C148     1.0000 0.25480  0.97970  0.48770  Biso   1.000  C
  C149     1.0000 0.25480  0.02030  0.98770  Biso   1.000  C
  C150     1.0000 0.74520  0.02030  0.51230  Biso   1.000  C
  H99      1.0000 0.77990  0.96200  0.00110  Biso   1.000  H
  H100     1.0000 0.22010  0.96200  0.49890  Biso   1.000  H
  H101     1.0000 0.22010  0.03800  0.99890  Biso   1.000  H
  H102     1.0000 0.77990  0.03800  0.50110  Biso   1.000  H
  C151     1.0000 0.64480  0.03100  0.04570  Biso   1.000  C
  C152     1.0000 0.35520  0.03100  0.45430  Biso   1.000  C
  C153     1.0000 0.35520  0.96900  0.95430  Biso   1.000  C
  C154     1.0000 0.64480  0.96900  0.54570  Biso   1.000  C
  H103     1.0000 0.60960  0.04920  0.05590  Biso   1.000  H
  H104     1.0000 0.39040  0.04920  0.44410  Biso   1.000  H
  H105     1.0000 0.39040  0.95080  0.94410  Biso   1.000  H
  H106     1.0000 0.60960  0.95080  0.55590  Biso   1.000  H
  C155     1.0000 0.64620  0.01820  0.98350  Biso   1.000  C
  C156     1.0000 0.35380  0.01820  0.51650  Biso   1.000  C
  C157     1.0000 0.35380  0.98180  0.01650  Biso   1.000  C
  C158     1.0000 0.64620  0.98180  0.48350  Biso   1.000  C
  H107     1.0000 0.61130  0.02780  0.95150  Biso   1.000  H
  H108     1.0000 0.38870  0.02780  0.54850  Biso   1.000  H
  H109     1.0000 0.38870  0.97220  0.04850  Biso   1.000  H
  H110     1.0000 0.61130  0.97220  0.45150  Biso   1.000  H
  C159     1.0000 0.65050  0.10130  0.24410  Biso   1.000  C
  C160     1.0000 0.34950  0.10130  0.25590  Biso   1.000  C
  C161     1.0000 0.34950  0.89870  0.75590  Biso   1.000  C
  C162     1.0000 0.65050  0.89870  0.74410  Biso   1.000  C
  H111     1.0000 0.62050  0.14690  0.25500  Biso   1.000  H
  H112     1.0000 0.37950  0.14690  0.24500  Biso   1.000  H
  H113     1.0000 0.37950  0.85310  0.74500  Biso   1.000  H
  H114     1.0000 0.62050  0.85310  0.75500  Biso   1.000  H
  C163     1.0000 0.56770  0.75800  0.84580  Biso   1.000  C
  C164     1.0000 0.43230  0.75800  0.65420  Biso   1.000  C
  C165     1.0000 0.43230  0.24200  0.15420  Biso   1.000  C
  C166     1.0000 0.56770  0.24200  0.34580  Biso   1.000  C
  C167     1.0000 0.39760  0.50120  0.82730  Biso   1.000  C
  C168     1.0000 0.60240  0.50120  0.67270  Biso   1.000  C
  C169     1.0000 0.60240  0.49880  0.17270  Biso   1.000  C
  C170     1.0000 0.39760  0.49880  0.32730  Biso   1.000  C
  C171     1.0000 0.43960  0.59320  0.87050  Biso   1.000  C
  C172     1.0000 0.56040  0.59320  0.62950  Biso   1.000  C
  C173     1.0000 0.56040  0.40680  0.12950  Biso   1.000  C
  C174     1.0000 0.43960  0.40680  0.37050  Biso   1.000  C
  C175     1.0000 0.52100  0.71910  0.87900  Biso   1.000  C
  C176     1.0000 0.47900  0.71910  0.62100  Biso   1.000  C
  C177     1.0000 0.47900  0.28090  0.12100  Biso   1.000  C
  C178     1.0000 0.52100  0.28090  0.37900  Biso   1.000  C
  C179     1.0000 0.52140  0.75660  0.94060  Biso   1.000  C
  C180     1.0000 0.47860  0.75660  0.55940  Biso   1.000  C
  C181     1.0000 0.47860  0.24340  0.05940  Biso   1.000  C
  C182     1.0000 0.52140  0.24340  0.44060  Biso   1.000  C
  H115     1.0000 0.54970  0.81350  0.96350  Biso   1.000  H
  H116     1.0000 0.45030  0.81350  0.53650  Biso   1.000  H
  H117     1.0000 0.45030  0.18650  0.03650  Biso   1.000  H
  H118     1.0000 0.54970  0.18650  0.46350  Biso   1.000  H
  C183     1.0000 0.47850  0.70720  0.96730  Biso   1.000  C
  C184     1.0000 0.52150  0.70720  0.53270  Biso   1.000  C
  C185     1.0000 0.52150  0.29280  0.03270  Biso   1.000  C
  C186     1.0000 0.47850  0.29280  0.46730  Biso   1.000  C
  H119     1.0000 0.47790  0.72990  0.00890  Biso   1.000  H
  H120     1.0000 0.52210  0.72990  0.49110  Biso   1.000  H
  H121     1.0000 0.52210  0.27010  0.99110  Biso   1.000  H
  H122     1.0000 0.47790  0.27010  0.50890  Biso   1.000  H
  C187     1.0000 0.43700  0.62490  0.93250  Biso   1.000  C
  C188     1.0000 0.56300  0.62490  0.56750  Biso   1.000  C
  C189     1.0000 0.56300  0.37510  0.06750  Biso   1.000  C
  C190     1.0000 0.43700  0.37510  0.43250  Biso   1.000  C
  H123     1.0000 0.40790  0.59110  0.94980  Biso   1.000  H
  H124     1.0000 0.59210  0.59110  0.55020  Biso   1.000  H
  H125     1.0000 0.59210  0.40890  0.05020  Biso   1.000  H
  H126     1.0000 0.40790  0.40890  0.44980  Biso   1.000  H
  C191     1.0000 0.44540  0.31800  0.64080  Biso   1.000  C
  C192     1.0000 0.55460  0.31800  0.85920  Biso   1.000  C
  C193     1.0000 0.55460  0.68200  0.35920  Biso   1.000  C
  C194     1.0000 0.44540  0.68200  0.14080  Biso   1.000  C
  C195     1.0000 0.47400  0.23360  0.69660  Biso   1.000  C
  C196     1.0000 0.52600  0.23360  0.80340  Biso   1.000  C
  C197     1.0000 0.52600  0.76640  0.30340  Biso   1.000  C
  C198     1.0000 0.47400  0.76640  0.19660  Biso   1.000  C
  C199     1.0000 0.47310  0.10210  0.69570  Biso   1.000  C
  C200     1.0000 0.52690  0.10210  0.80430  Biso   1.000  C
  C201     1.0000 0.52690  0.89790  0.30430  Biso   1.000  C
  C202     1.0000 0.47310  0.89790  0.19570  Biso   1.000  C
  H127     1.0000 0.45430  0.05790  0.65850  Biso   1.000  H
  H128     1.0000 0.54570  0.05790  0.84150  Biso   1.000  H
  H129     1.0000 0.54570  0.94210  0.34150  Biso   1.000  H
  H130     1.0000 0.45430  0.94210  0.15850  Biso   1.000  H
  C203     1.0000 0.50000  0.03730  0.75000  Biso   1.000  C
  C204     1.0000 0.50000  0.96270  0.25000  Biso   1.000  C
  H131     1.0000 0.50000  0.94790  0.75000  Biso   1.000  H
  H132     1.0000 0.50000  0.05210  0.25000  Biso   1.000  H
  N1       1.0000 0.22820  0.31900  0.20740  Biso   1.000  N
  N2       1.0000 0.77180  0.31900  0.29260  Biso   1.000  N
  N3       1.0000 0.77180  0.68100  0.79260  Biso   1.000  N
  N4       1.0000 0.22820  0.68100  0.70740  Biso   1.000  N
  N5       1.0000 0.22220  0.30710  0.38030  Biso   1.000  N
  N6       1.0000 0.77780  0.30710  0.11970  Biso   1.000  N
  N7       1.0000 0.77780  0.69290  0.61970  Biso   1.000  N
  N8       1.0000 0.22220  0.69290  0.88030  Biso   1.000  N
  N9       1.0000 0.25680  0.33940  0.71500  Biso   1.000  N
  N10      1.0000 0.74320  0.33940  0.78500  Biso   1.000  N
  N11      1.0000 0.74320  0.66060  0.28500  Biso   1.000  N
  N12      1.0000 0.25680  0.66060  0.21500  Biso   1.000  N
  N13      1.0000 0.25990  0.34350  0.89060  Biso   1.000  N
  N14      1.0000 0.74010  0.34350  0.60940  Biso   1.000  N
  N15      1.0000 0.74010  0.65650  0.10940  Biso   1.000  N
  N16      1.0000 0.25990  0.65650  0.39060  Biso   1.000  N
  N17      1.0000 0.48120  0.63870  0.84560  Biso   1.000  N
  N18      1.0000 0.51880  0.63870  0.65440  Biso   1.000  N
  N19      1.0000 0.51880  0.36130  0.15440  Biso   1.000  N
  N20      1.0000 0.48120  0.36130  0.34560  Biso   1.000  N
  N21      1.0000 0.50000  0.29790  0.75000  Biso   1.000  N
  N22      1.0000 0.50000  0.70210  0.25000  Biso   1.000  N
  N23      1.0000 0.69570  0.99220  0.96610  Biso   1.000  N
  N24      1.0000 0.30430  0.99220  0.53390  Biso   1.000  N
  N25      1.0000 0.30430  0.00780  0.03390  Biso   1.000  N
  N26      1.0000 0.69570  0.00780  0.46610  Biso   1.000  N
  N27      1.0000 0.00000  0.46570  0.25000  Biso   1.000  N
  N28      1.0000 0.00000  0.53430  0.75000  Biso   1.000  N
  N29      1.0000 0.69150  0.95350  0.79090  Biso   1.000  N
  N30      1.0000 0.30850  0.95350  0.70910  Biso   1.000  N
  N31      1.0000 0.30850  0.04650  0.20910  Biso   1.000  N
  N32      1.0000 0.69150  0.04650  0.29090  Biso   1.000  N
  N33      1.0000 0.95320  0.10450  0.31950  Biso   1.000  N
  N34      1.0000 0.04680  0.10450  0.18050  Biso   1.000  N
  N35      1.0000 0.04680  0.89550  0.68050  Biso   1.000  N
  N36      1.0000 0.95320  0.89550  0.81950  Biso   1.000  N
  O1       1.0000 0.35180  0.47570  0.84220  Biso   1.000  O
  O2       1.0000 0.64820  0.47570  0.65780  Biso   1.000  O
  O3       1.0000 0.64820  0.52430  0.15780  Biso   1.000  O
  O4       1.0000 0.35180  0.52430  0.34220  Biso   1.000  O
  O5       1.0000 0.41240  0.46500  0.77860  Biso   1.000  O
  O6       1.0000 0.58760  0.46500  0.72140  Biso   1.000  O
  O7       1.0000 0.58760  0.53500  0.22140  Biso   1.000  O
  O8       1.0000 0.41240  0.53500  0.27860  Biso   1.000  O
  O9       1.0000 0.44530  0.43660  0.65290  Biso   1.000  O
  O10      1.0000 0.55470  0.43660  0.84710  Biso   1.000  O
  O11      1.0000 0.55470  0.56340  0.34710  Biso   1.000  O
  O12      1.0000 0.44530  0.56340  0.15290  Biso   1.000  O
  O13      1.0000 0.42270  0.26580  0.58820  Biso   1.000  O
  O14      1.0000 0.57730  0.26580  0.91180  Biso   1.000  O
  O15      1.0000 0.57730  0.73420  0.41180  Biso   1.000  O
  O16      1.0000 0.42270  0.73420  0.08820  Biso   1.000  O
  O17      1.0000 0.56520  0.70290  0.79410  Biso   1.000  O
  O18      1.0000 0.43480  0.70290  0.70590  Biso   1.000  O
  O19      1.0000 0.43480  0.29710  0.20590  Biso   1.000  O
  O20      1.0000 0.56520  0.29710  0.29410  Biso   1.000  O
  O21      1.0000 0.60300  0.84190  0.87200  Biso   1.000  O
  O22      1.0000 0.39700  0.84190  0.62800  Biso   1.000  O
  O23      1.0000 0.39700  0.15810  0.12800  Biso   1.000  O
  O24      1.0000 0.60300  0.15810  0.37200  Biso   1.000  O
  O25      1.0000 0.09362  0.32690  0.25899  Biso   1.000  O
  O26      1.0000 0.90638  0.32690  0.24101  Biso   1.000  O
  O27      1.0000 0.90638  0.67310  0.74101  Biso   1.000  O
  O28      1.0000 0.09362  0.67310  0.75899  Biso   1.000  O
  O29      1.0000 0.15220  0.49740  0.27520  Biso   1.000  O
  O30      1.0000 0.84780  0.49740  0.22480  Biso   1.000  O
  O31      1.0000 0.84780  0.50260  0.72480  Biso   1.000  O
  O32      1.0000 0.15220  0.50260  0.77520  Biso   1.000  O
  O33      1.0000 0.93270  0.07090  0.19630  Biso   1.000  O
  O34      1.0000 0.06730  0.07090  0.30370  Biso   1.000  O
  O35      1.0000 0.06730  0.92910  0.80370  Biso   1.000  O
  O36      1.0000 0.93270  0.92910  0.69630  Biso   1.000  O
  O37      1.0000 0.86710  0.91580  0.19490  Biso   1.000  O
  O38      1.0000 0.13290  0.91580  0.30510  Biso   1.000  O
  O39      1.0000 0.13290  0.08420  0.80510  Biso   1.000  O
  O40      1.0000 0.86710  0.08420  0.69490  Biso   1.000  O
  O41      1.0000 0.02340  0.29550  0.35970  Biso   1.000  O
  O42      1.0000 0.97660  0.29550  0.14030  Biso   1.000  O
  O43      1.0000 0.97660  0.70450  0.64030  Biso   1.000  O
  O44      1.0000 0.02340  0.70450  0.85970  Biso   1.000  O
  O45      1.0000 0.02720  0.25950  0.46220  Biso   1.000  O
  O46      1.0000 0.97280  0.25950  0.03780  Biso   1.000  O
  O47      1.0000 0.97280  0.74050  0.53780  Biso   1.000  O
  O48      1.0000 0.02720  0.74050  0.96220  Biso   1.000  O
  O49      1.0000 0.10680  0.94930  0.44010  Biso   1.000  O
  O50      1.0000 0.89320  0.94930  0.05990  Biso   1.000  O
  O51      1.0000 0.89320  0.05070  0.55990  Biso   1.000  O
  O52      1.0000 0.10680  0.05070  0.94010  Biso   1.000  O
  O53      1.0000 0.03460  0.72600  0.44390  Biso   1.000  O
  O54      1.0000 0.96540  0.72600  0.05610  Biso   1.000  O
  O55      1.0000 0.96540  0.27400  0.55610  Biso   1.000  O
  O56      1.0000 0.03460  0.27400  0.94390  Biso   1.000  O
  O57      1.0000 0.92050  0.50630  0.49500  Biso   1.000  O
  O58      1.0000 0.07950  0.50630  0.00500  Biso   1.000  O
  O59      1.0000 0.07950  0.49370  0.50500  Biso   1.000  O
  O60      1.0000 0.92050  0.49370  0.99500  Biso   1.000  O
  O61      1.0000 0.94950  0.52920  0.38110  Biso   1.000  O
  O62      1.0000 0.05050  0.52920  0.11890  Biso   1.000  O
  O63      1.0000 0.05050  0.47080  0.61890  Biso   1.000  O
  O64      1.0000 0.94950  0.47080  0.88110  Biso   1.000  O
  H133     1.0000 0.11100  0.99000  0.40900  Biso   1.000  H
  H134     1.0000 0.88900  0.99000  0.09100  Biso   1.000  H
  H135     1.0000 0.88900  0.01000  0.59100  Biso   1.000  H
  H136     1.0000 0.11100  0.01000  0.90900  Biso   1.000  H
  H137     1.0000 0.08000  0.89600  0.43200  Biso   1.000  H
  H138     1.0000 0.92000  0.89600  0.06800  Biso   1.000  H
  H139     1.0000 0.92000  0.10400  0.56800  Biso   1.000  H
  H140     1.0000 0.08000  0.10400  0.93200  Biso   1.000  H
  H141     1.0000 0.00600  0.74000  0.45900  Biso   1.000  H
  H142     1.0000 0.99400  0.74000  0.04100  Biso   1.000  H
  H143     1.0000 0.99400  0.26000  0.54100  Biso   1.000  H
  H144     1.0000 0.00600  0.26000  0.95900  Biso   1.000  H
  H145     1.0000 0.02600  0.69900  0.40680  Biso   1.000  H
  H146     1.0000 0.97400  0.69900  0.09320  Biso   1.000  H
  H147     1.0000 0.97400  0.30100  0.59320  Biso   1.000  H
  H148     1.0000 0.02600  0.30100  0.90680  Biso   1.000  H
  H149     1.0000 0.92600  0.51800  0.53400  Biso   1.000  H
  H150     1.0000 0.07400  0.51800  0.96600  Biso   1.000  H
  H151     1.0000 0.07400  0.48200  0.46600  Biso   1.000  H
  H152     1.0000 0.92600  0.48200  0.03400  Biso   1.000  H
  H153     1.0000 0.91100  0.43300  0.48300  Biso   1.000  H
  H154     1.0000 0.08900  0.43300  0.01700  Biso   1.000  H
  H155     1.0000 0.08900  0.56700  0.51700  Biso   1.000  H
  H156     1.0000 0.91100  0.56700  0.98300  Biso   1.000  H
  H157     1.0000 0.95200  0.54800  0.41910  Biso   1.000  H
  H158     1.0000 0.04800  0.54800  0.08090  Biso   1.000  H
  H159     1.0000 0.04800  0.45200  0.58090  Biso   1.000  H
  H160     1.0000 0.95200  0.45200  0.91910  Biso   1.000  H
  H161     1.0000 0.97400  0.47500  0.37600  Biso   1.000  H
  H162     1.0000 0.02600  0.47500  0.12400  Biso   1.000  H
  H163     1.0000 0.02600  0.52500  0.62400  Biso   1.000  H
  H164     1.0000 0.97400  0.52500  0.87600  Biso   1.000  H
