data_image0
_cell_length_a       23.66
_cell_length_b       10.5129
_cell_length_c       21.702
_cell_angle_alpha    90
_cell_angle_beta     105.241
_cell_angle_gamma    90

_symmetry_space_group_name_H-M    "P 1"
_symmetry_int_tables_number       1

loop_
  _symmetry_equiv_pos_as_xyz
  'x, y, z'

loop_
  _atom_site_label
  _atom_site_occupancy
  _atom_site_fract_x
  _atom_site_fract_y
  _atom_site_fract_z
  _atom_site_thermal_displace_type
  _atom_site_B_iso_or_equiv
  _atom_site_type_symbol
  Tb1      1.0000 0.00000  0.77269  0.75000  Biso   1.000  Tb
  Tb2      1.0000 0.00000  0.22731  0.25000  Biso   1.000  Tb
  Tb3      1.0000 0.50000  0.47060  0.25000  Biso   1.000  Tb
  Tb4      1.0000 0.50000  0.52940  0.75000  Biso   1.000  Tb
  Cu1      1.0000 0.21306  0.66750  0.79011  Biso   1.000  Cu
  Cu2      1.0000 0.78694  0.66750  0.70989  Biso   1.000  Cu
  Cu3      1.0000 0.78694  0.33250  0.20989  Biso   1.000  Cu
  Cu4      1.0000 0.21306  0.33250  0.29011  Biso   1.000  Cu
  Cu5      1.0000 0.26890  0.63646  0.30518  Biso   1.000  Cu
  Cu6      1.0000 0.73110  0.63646  0.19482  Biso   1.000  Cu
  Cu7      1.0000 0.73110  0.36354  0.69482  Biso   1.000  Cu
  Cu8      1.0000 0.26890  0.36354  0.80518  Biso   1.000  Cu
  Cu9      1.0000 0.68655  0.04914  0.37913  Biso   1.000  Cu
  Cu10     1.0000 0.31345  0.04914  0.12087  Biso   1.000  Cu
  Cu11     1.0000 0.31345  0.95086  0.62087  Biso   1.000  Cu
  Cu12     1.0000 0.68655  0.95086  0.87913  Biso   1.000  Cu
  N1       1.0000 0.04750  0.89880  0.67940  Biso   1.000  N
  N2       1.0000 0.95250  0.89880  0.82060  Biso   1.000  N
  N3       1.0000 0.95250  0.10120  0.32060  Biso   1.000  N
  N4       1.0000 0.04750  0.10120  0.17940  Biso   1.000  N
  N5       1.0000 0.00000  0.53420  0.75000  Biso   1.000  N
  N6       1.0000 0.00000  0.46580  0.25000  Biso   1.000  N
  N7       1.0000 0.48140  0.36330  0.34780  Biso   1.000  N
  N8       1.0000 0.51860  0.36330  0.15220  Biso   1.000  N
  N9       1.0000 0.51860  0.63670  0.65220  Biso   1.000  N
  N10      1.0000 0.48140  0.63670  0.84780  Biso   1.000  N
  N11      1.0000 0.50000  0.70810  0.25000  Biso   1.000  N
  N12      1.0000 0.50000  0.29190  0.75000  Biso   1.000  N
  N13      1.0000 0.22720  0.68060  0.70680  Biso   1.000  N
  N14      1.0000 0.77280  0.68060  0.79320  Biso   1.000  N
  N15      1.0000 0.77280  0.31940  0.29320  Biso   1.000  N
  N16      1.0000 0.22720  0.31940  0.20680  Biso   1.000  N
  N17      1.0000 0.25960  0.65660  0.39050  Biso   1.000  N
  N18      1.0000 0.74040  0.65660  0.10950  Biso   1.000  N
  N19      1.0000 0.74040  0.34340  0.60950  Biso   1.000  N
  N20      1.0000 0.25960  0.34340  0.89050  Biso   1.000  N
  N21      1.0000 0.22260  0.69250  0.88000  Biso   1.000  N
  N22      1.0000 0.77740  0.69250  0.62000  Biso   1.000  N
  N23      1.0000 0.77740  0.30750  0.12000  Biso   1.000  N
  N24      1.0000 0.22260  0.30750  0.38000  Biso   1.000  N
  N25      1.0000 0.25780  0.65960  0.21570  Biso   1.000  N
  N26      1.0000 0.74220  0.65960  0.28430  Biso   1.000  N
  N27      1.0000 0.74220  0.34040  0.78430  Biso   1.000  N
  N28      1.0000 0.25780  0.34040  0.71570  Biso   1.000  N
  N29      1.0000 0.69540  0.00890  0.46700  Biso   1.000  N
  N30      1.0000 0.30460  0.00890  0.03300  Biso   1.000  N
  N31      1.0000 0.30460  0.99110  0.53300  Biso   1.000  N
  N32      1.0000 0.69540  0.99110  0.96700  Biso   1.000  N
  N33      1.0000 0.69120  0.95340  0.79300  Biso   1.000  N
  N34      1.0000 0.30880  0.95340  0.70700  Biso   1.000  N
  N35      1.0000 0.30880  0.04660  0.20700  Biso   1.000  N
  N36      1.0000 0.69120  0.04660  0.29300  Biso   1.000  N
  O1       1.0000 0.06860  0.93170  0.80270  Biso   1.000  O
  O2       1.0000 0.93140  0.93170  0.69730  Biso   1.000  O
  O3       1.0000 0.93140  0.06830  0.19730  Biso   1.000  O
  O4       1.0000 0.06860  0.06830  0.30270  Biso   1.000  O
  O5       1.0000 0.13380  0.08700  0.80280  Biso   1.000  O
  O6       1.0000 0.86620  0.08700  0.69720  Biso   1.000  O
  O7       1.0000 0.86620  0.91300  0.19720  Biso   1.000  O
  O8       1.0000 0.13380  0.91300  0.30280  Biso   1.000  O
  O9       1.0000 0.97660  0.70740  0.63810  Biso   1.000  O
  O10      1.0000 0.02340  0.70740  0.86190  Biso   1.000  O
  O11      1.0000 0.02340  0.29260  0.36190  Biso   1.000  O
  O12      1.0000 0.97660  0.29260  0.13810  Biso   1.000  O
  O13      1.0000 0.97430  0.74200  0.53610  Biso   1.000  O
  O14      1.0000 0.02570  0.74200  0.96390  Biso   1.000  O
  O15      1.0000 0.02570  0.25800  0.46390  Biso   1.000  O
  O16      1.0000 0.97430  0.25800  0.03610  Biso   1.000  O
  O17      1.0000 0.09440  0.67140  0.75870  Biso   1.000  O
  O18      1.0000 0.90560  0.67140  0.74130  Biso   1.000  O
  O19      1.0000 0.90560  0.32860  0.24130  Biso   1.000  O
  O20      1.0000 0.09440  0.32860  0.25870  Biso   1.000  O
  O21      1.0000 0.15250  0.50080  0.77560  Biso   1.000  O
  O22      1.0000 0.84750  0.50080  0.72440  Biso   1.000  O
  O23      1.0000 0.84750  0.49920  0.22440  Biso   1.000  O
  O24      1.0000 0.15250  0.49920  0.27560  Biso   1.000  O
  O25      1.0000 0.41180  0.53610  0.28010  Biso   1.000  O
  O26      1.0000 0.58820  0.53610  0.21990  Biso   1.000  O
  O27      1.0000 0.58820  0.46390  0.71990  Biso   1.000  O
  O28      1.0000 0.41180  0.46390  0.78010  Biso   1.000  O
  O29      1.0000 0.35070  0.52050  0.34300  Biso   1.000  O
  O30      1.0000 0.64930  0.52050  0.15700  Biso   1.000  O
  O31      1.0000 0.64930  0.47950  0.65700  Biso   1.000  O
  O32      1.0000 0.35070  0.47950  0.84300  Biso   1.000  O
  O33      1.0000 0.56550  0.29740  0.29550  Biso   1.000  O
  O34      1.0000 0.43450  0.29740  0.20450  Biso   1.000  O
  O35      1.0000 0.43450  0.70260  0.70450  Biso   1.000  O
  O36      1.0000 0.56550  0.70260  0.79550  Biso   1.000  O
  O37      1.0000 0.60350  0.16060  0.37410  Biso   1.000  O
  O38      1.0000 0.39650  0.16060  0.12590  Biso   1.000  O
  O39      1.0000 0.39650  0.83940  0.62590  Biso   1.000  O
  O40      1.0000 0.60350  0.83940  0.87410  Biso   1.000  O
  O41      1.0000 0.44570  0.56970  0.15210  Biso   1.000  O
  O42      1.0000 0.55430  0.56970  0.34790  Biso   1.000  O
  O43      1.0000 0.55430  0.43030  0.84790  Biso   1.000  O
  O44      1.0000 0.44570  0.43030  0.65210  Biso   1.000  O
  O45      1.0000 0.42300  0.74040  0.08850  Biso   1.000  O
  O46      1.0000 0.57700  0.74040  0.41150  Biso   1.000  O
  O47      1.0000 0.57700  0.25960  0.91150  Biso   1.000  O
  O48      1.0000 0.42300  0.25960  0.58850  Biso   1.000  O
  O49      1.0000 0.92070  0.49380  0.99660  Biso   1.000  O
  O50      1.0000 0.07930  0.49380  0.50340  Biso   1.000  O
  O51      1.0000 0.07930  0.50620  0.00340  Biso   1.000  O
  O52      1.0000 0.92070  0.50620  0.49660  Biso   1.000  O
  H1       1.0000 0.93530  0.42440  0.01380  Biso   1.000  H
  H2       1.0000 0.06470  0.42440  0.48620  Biso   1.000  H
  H3       1.0000 0.06470  0.57560  0.98620  Biso   1.000  H
  H4       1.0000 0.93530  0.57560  0.51380  Biso   1.000  H
  H5       1.0000 0.92690  0.49840  0.95980  Biso   1.000  H
  H6       1.0000 0.07310  0.49840  0.54020  Biso   1.000  H
  H7       1.0000 0.07310  0.50160  0.04020  Biso   1.000  H
  H8       1.0000 0.92690  0.50160  0.45980  Biso   1.000  H
  O53      1.0000 0.94740  0.52620  0.38160  Biso   1.000  O
  O54      1.0000 0.05260  0.52620  0.11840  Biso   1.000  O
  O55      1.0000 0.05260  0.47380  0.61840  Biso   1.000  O
  O56      1.0000 0.94740  0.47380  0.88160  Biso   1.000  O
  H9       1.0000 0.96690  0.46150  0.37570  Biso   1.000  H
  H10      1.0000 0.03310  0.46150  0.12430  Biso   1.000  H
  H11      1.0000 0.03310  0.53850  0.62430  Biso   1.000  H
  H12      1.0000 0.96690  0.53850  0.87570  Biso   1.000  H
  H13      1.0000 0.97140  0.58440  0.39860  Biso   1.000  H
  H14      1.0000 0.02860  0.58440  0.10140  Biso   1.000  H
  H15      1.0000 0.02860  0.41560  0.60140  Biso   1.000  H
  H16      1.0000 0.97140  0.41560  0.89860  Biso   1.000  H
  O57      1.0000 0.89360  0.95100  0.06170  Biso   1.000  O
  O58      1.0000 0.10640  0.95100  0.43830  Biso   1.000  O
  O59      1.0000 0.10640  0.04900  0.93830  Biso   1.000  O
  O60      1.0000 0.89360  0.04900  0.56170  Biso   1.000  O
  H17      1.0000 0.90400  0.98330  0.09890  Biso   1.000  H
  H18      1.0000 0.09600  0.98330  0.40110  Biso   1.000  H
  H19      1.0000 0.09600  0.01670  0.90110  Biso   1.000  H
  H20      1.0000 0.90400  0.01670  0.59890  Biso   1.000  H
  H21      1.0000 0.91450  0.88540  0.06100  Biso   1.000  H
  H22      1.0000 0.08550  0.88540  0.43900  Biso   1.000  H
  H23      1.0000 0.08550  0.11460  0.93900  Biso   1.000  H
  H24      1.0000 0.91450  0.11460  0.56100  Biso   1.000  H
  O61      1.0000 0.96640  0.72600  0.05960  Biso   1.000  O
  O62      1.0000 0.03360  0.72600  0.44040  Biso   1.000  O
  O63      1.0000 0.03360  0.27400  0.94040  Biso   1.000  O
  O64      1.0000 0.96640  0.27400  0.55960  Biso   1.000  O
  H25      1.0000 0.98730  0.74600  0.03460  Biso   1.000  H
  H26      1.0000 0.01270  0.74600  0.46540  Biso   1.000  H
  H27      1.0000 0.01270  0.25400  0.96540  Biso   1.000  H
  H28      1.0000 0.98730  0.25400  0.53460  Biso   1.000  H
  H29      1.0000 0.94950  0.65590  0.04670  Biso   1.000  H
  H30      1.0000 0.05050  0.65590  0.45330  Biso   1.000  H
  H31      1.0000 0.05050  0.34410  0.95330  Biso   1.000  H
  H32      1.0000 0.94950  0.34410  0.54670  Biso   1.000  H
  C1       1.0000 0.09750  0.00700  0.77580  Biso   1.000  C
  C2       1.0000 0.90250  0.00700  0.72420  Biso   1.000  C
  C3       1.0000 0.90250  0.99300  0.22420  Biso   1.000  C
  C4       1.0000 0.09750  0.99300  0.27580  Biso   1.000  C
  C5       1.0000 0.08370  0.99320  0.70410  Biso   1.000  C
  C6       1.0000 0.91630  0.99320  0.79590  Biso   1.000  C
  C7       1.0000 0.91630  0.00680  0.29590  Biso   1.000  C
  C8       1.0000 0.08370  0.00680  0.20410  Biso   1.000  C
  C9       1.0000 0.10630  0.07310  0.66510  Biso   1.000  C
  C10      1.0000 0.89370  0.07310  0.83490  Biso   1.000  C
  C11      1.0000 0.89370  0.92690  0.33490  Biso   1.000  C
  C12      1.0000 0.10630  0.92690  0.16510  Biso   1.000  C
  H33      1.0000 0.13090  0.14010  0.68280  Biso   1.000  H
  H34      1.0000 0.86910  0.14010  0.81720  Biso   1.000  H
  H35      1.0000 0.86910  0.85990  0.31720  Biso   1.000  H
  H36      1.0000 0.13090  0.85990  0.18280  Biso   1.000  H
  C13      1.0000 0.09220  0.05280  0.60120  Biso   1.000  C
  C14      1.0000 0.90780  0.05280  0.89880  Biso   1.000  C
  C15      1.0000 0.90780  0.94720  0.39880  Biso   1.000  C
  C16      1.0000 0.09220  0.94720  0.10120  Biso   1.000  C
  H37      1.0000 0.10750  0.10540  0.57500  Biso   1.000  H
  H38      1.0000 0.89250  0.10540  0.92500  Biso   1.000  H
  H39      1.0000 0.89250  0.89460  0.42500  Biso   1.000  H
  H40      1.0000 0.10750  0.89460  0.07500  Biso   1.000  H
  C17      1.0000 0.05550  0.95450  0.57490  Biso   1.000  C
  C18      1.0000 0.94450  0.95450  0.92510  Biso   1.000  C
  C19      1.0000 0.94450  0.04550  0.42510  Biso   1.000  C
  C20      1.0000 0.05550  0.04550  0.07490  Biso   1.000  C
  H41      1.0000 0.04600  0.93850  0.53130  Biso   1.000  H
  H42      1.0000 0.95400  0.93850  0.96870  Biso   1.000  H
  H43      1.0000 0.95400  0.06150  0.46870  Biso   1.000  H
  H44      1.0000 0.04600  0.06150  0.03130  Biso   1.000  H
  C21      1.0000 0.03250  0.87870  0.61600  Biso   1.000  C
  C22      1.0000 0.96750  0.87870  0.88400  Biso   1.000  C
  C23      1.0000 0.96750  0.12130  0.38400  Biso   1.000  C
  C24      1.0000 0.03250  0.12130  0.11600  Biso   1.000  C
  C25      1.0000 0.99030  0.76920  0.59530  Biso   1.000  C
  C26      1.0000 0.00970  0.76920  0.90470  Biso   1.000  C
  C27      1.0000 0.00970  0.23080  0.40470  Biso   1.000  C
  C28      1.0000 0.99030  0.23080  0.09530  Biso   1.000  C
  C29      1.0000 0.10310  0.55340  0.76490  Biso   1.000  C
  C30      1.0000 0.89690  0.55340  0.73510  Biso   1.000  C
  C31      1.0000 0.89690  0.44660  0.23510  Biso   1.000  C
  C32      1.0000 0.10310  0.44660  0.26490  Biso   1.000  C
  C33      1.0000 0.05030  0.47000  0.75830  Biso   1.000  C
  C34      1.0000 0.94970  0.47000  0.74170  Biso   1.000  C
  C35      1.0000 0.94970  0.53000  0.24170  Biso   1.000  C
  C36      1.0000 0.05030  0.53000  0.25830  Biso   1.000  C
  C37      1.0000 0.05190  0.33800  0.75920  Biso   1.000  C
  C38      1.0000 0.94810  0.33800  0.74080  Biso   1.000  C
  C39      1.0000 0.94810  0.66200  0.24080  Biso   1.000  C
  C40      1.0000 0.05190  0.66200  0.25920  Biso   1.000  C
  H45      1.0000 0.08750  0.29580  0.76590  Biso   1.000  H
  H46      1.0000 0.91250  0.29580  0.73410  Biso   1.000  H
  H47      1.0000 0.91250  0.70420  0.23410  Biso   1.000  H
  H48      1.0000 0.08750  0.70420  0.26590  Biso   1.000  H
  C41      1.0000 0.00000  0.26840  0.75000  Biso   1.000  C
  C42      1.0000 0.00000  0.73160  0.25000  Biso   1.000  C
  H49      1.0000 0.00000  0.18000  0.75000  Biso   1.000  H
  H50      1.0000 0.00000  0.82000  0.25000  Biso   1.000  H
  C43      1.0000 0.39680  0.49760  0.32880  Biso   1.000  C
  C44      1.0000 0.60320  0.49760  0.17120  Biso   1.000  C
  C45      1.0000 0.60320  0.50240  0.67120  Biso   1.000  C
  C46      1.0000 0.39680  0.50240  0.82880  Biso   1.000  C
  C47      1.0000 0.43840  0.40690  0.37170  Biso   1.000  C
  C48      1.0000 0.56160  0.40690  0.12830  Biso   1.000  C
  C49      1.0000 0.56160  0.59310  0.62830  Biso   1.000  C
  C50      1.0000 0.43840  0.59310  0.87170  Biso   1.000  C
  C51      1.0000 0.43700  0.37670  0.43310  Biso   1.000  C
  C52      1.0000 0.56300  0.37670  0.06690  Biso   1.000  C
  C53      1.0000 0.56300  0.62330  0.56690  Biso   1.000  C
  C54      1.0000 0.43700  0.62330  0.93310  Biso   1.000  C
  H51      1.0000 0.40810  0.40990  0.45040  Biso   1.000  H
  H52      1.0000 0.59190  0.40990  0.04960  Biso   1.000  H
  H53      1.0000 0.59190  0.59010  0.54960  Biso   1.000  H
  H54      1.0000 0.40810  0.59010  0.95040  Biso   1.000  H
  C55      1.0000 0.48010  0.29490  0.46880  Biso   1.000  C
  C56      1.0000 0.51990  0.29490  0.03120  Biso   1.000  C
  C57      1.0000 0.51990  0.70510  0.53120  Biso   1.000  C
  C58      1.0000 0.48010  0.70510  0.96880  Biso   1.000  C
  H55      1.0000 0.48040  0.27280  0.51040  Biso   1.000  H
  H56      1.0000 0.51960  0.27280  0.98960  Biso   1.000  H
  H57      1.0000 0.51960  0.72720  0.48960  Biso   1.000  H
  H58      1.0000 0.48040  0.72720  0.01040  Biso   1.000  H
  C59      1.0000 0.52190  0.24770  0.44120  Biso   1.000  C
  C60      1.0000 0.47810  0.24770  0.05880  Biso   1.000  C
  C61      1.0000 0.47810  0.75230  0.55880  Biso   1.000  C
  C62      1.0000 0.52190  0.75230  0.94120  Biso   1.000  C
  H59      1.0000 0.55040  0.19160  0.46360  Biso   1.000  H
  H60      1.0000 0.44960  0.19160  0.03640  Biso   1.000  H
  H61      1.0000 0.44960  0.80840  0.53640  Biso   1.000  H
  H62      1.0000 0.55040  0.80840  0.96360  Biso   1.000  H
  C63      1.0000 0.52110  0.28390  0.38090  Biso   1.000  C
  C64      1.0000 0.47890  0.28390  0.11910  Biso   1.000  C
  C65      1.0000 0.47890  0.71610  0.61910  Biso   1.000  C
  C66      1.0000 0.52110  0.71610  0.88090  Biso   1.000  C
  C67      1.0000 0.56850  0.24400  0.34730  Biso   1.000  C
  C68      1.0000 0.43150  0.24400  0.15270  Biso   1.000  C
  C69      1.0000 0.43150  0.75600  0.65270  Biso   1.000  C
  C70      1.0000 0.56850  0.75600  0.84730  Biso   1.000  C
  C71      1.0000 0.44540  0.68800  0.14040  Biso   1.000  C
  C72      1.0000 0.55460  0.68800  0.35960  Biso   1.000  C
  C73      1.0000 0.55460  0.31200  0.85960  Biso   1.000  C
  C74      1.0000 0.44540  0.31200  0.64040  Biso   1.000  C
  C75      1.0000 0.47350  0.77090  0.19740  Biso   1.000  C
  C76      1.0000 0.52650  0.77090  0.30260  Biso   1.000  C
  C77      1.0000 0.52650  0.22910  0.80260  Biso   1.000  C
  C78      1.0000 0.47350  0.22910  0.69740  Biso   1.000  C
  C79      1.0000 0.47200  0.90200  0.19560  Biso   1.000  C
  C80      1.0000 0.52800  0.90200  0.30440  Biso   1.000  C
  C81      1.0000 0.52800  0.09800  0.80440  Biso   1.000  C
  C82      1.0000 0.47200  0.09800  0.69560  Biso   1.000  C
  H63      1.0000 0.45260  0.94510  0.15870  Biso   1.000  H
  H64      1.0000 0.54740  0.94510  0.34130  Biso   1.000  H
  H65      1.0000 0.54740  0.05490  0.84130  Biso   1.000  H
  H66      1.0000 0.45260  0.05490  0.65870  Biso   1.000  H
  C83      1.0000 0.50000  0.96690  0.25000  Biso   1.000  C
  C84      1.0000 0.50000  0.03310  0.75000  Biso   1.000  C
  H67      1.0000 0.50000  0.05540  0.25000  Biso   1.000  H
  H68      1.0000 0.50000  0.94460  0.75000  Biso   1.000  H
  C85      1.0000 0.18400  0.71910  0.65630  Biso   1.000  C
  C86      1.0000 0.81600  0.71910  0.84370  Biso   1.000  C
  C87      1.0000 0.81600  0.28090  0.34370  Biso   1.000  C
  C88      1.0000 0.18400  0.28090  0.15630  Biso   1.000  C
  H69      1.0000 0.14910  0.74770  0.66350  Biso   1.000  H
  H70      1.0000 0.85090  0.74770  0.83650  Biso   1.000  H
  H71      1.0000 0.85090  0.25230  0.33650  Biso   1.000  H
  H72      1.0000 0.14910  0.25230  0.16350  Biso   1.000  H
  C89      1.0000 0.18920  0.71790  0.59410  Biso   1.000  C
  C90      1.0000 0.81080  0.71790  0.90590  Biso   1.000  C
  C91      1.0000 0.81080  0.28210  0.40590  Biso   1.000  C
  C92      1.0000 0.18920  0.28210  0.09410  Biso   1.000  C
  H73      1.0000 0.15810  0.74530  0.56080  Biso   1.000  H
  H74      1.0000 0.84190  0.74530  0.93920  Biso   1.000  H
  H75      1.0000 0.84190  0.25470  0.43920  Biso   1.000  H
  H76      1.0000 0.15810  0.25470  0.06080  Biso   1.000  H
  C93      1.0000 0.24050  0.67580  0.58140  Biso   1.000  C
  C94      1.0000 0.75950  0.67580  0.91860  Biso   1.000  C
  C95      1.0000 0.75950  0.32420  0.41860  Biso   1.000  C
  C96      1.0000 0.24050  0.32420  0.08140  Biso   1.000  C
  C97      1.0000 0.28540  0.63560  0.63450  Biso   1.000  C
  C98      1.0000 0.71460  0.63560  0.86550  Biso   1.000  C
  C99      1.0000 0.71460  0.36440  0.36550  Biso   1.000  C
  C100     1.0000 0.28540  0.36440  0.13450  Biso   1.000  C
  H77      1.0000 0.32070  0.60600  0.62900  Biso   1.000  H
  H78      1.0000 0.67930  0.60600  0.87100  Biso   1.000  H
  H79      1.0000 0.67930  0.39400  0.37100  Biso   1.000  H
  H80      1.0000 0.32070  0.39400  0.12900  Biso   1.000  H
  C101     1.0000 0.27640  0.64030  0.69390  Biso   1.000  C
  C102     1.0000 0.72360  0.64030  0.80610  Biso   1.000  C
  C103     1.0000 0.72360  0.35970  0.30610  Biso   1.000  C
  C104     1.0000 0.27640  0.35970  0.19390  Biso   1.000  C
  H81      1.0000 0.30680  0.61350  0.72800  Biso   1.000  H
  H82      1.0000 0.69320  0.61350  0.77200  Biso   1.000  H
  H83      1.0000 0.69320  0.38650  0.27200  Biso   1.000  H
  H84      1.0000 0.30680  0.38650  0.22800  Biso   1.000  H
  C105     1.0000 0.30660  0.66800  0.44060  Biso   1.000  C
  C106     1.0000 0.69340  0.66800  0.05940  Biso   1.000  C
  C107     1.0000 0.69340  0.33200  0.55940  Biso   1.000  C
  C108     1.0000 0.30660  0.33200  0.94060  Biso   1.000  C
  H85      1.0000 0.34350  0.67170  0.43310  Biso   1.000  H
  H86      1.0000 0.65650  0.67170  0.06690  Biso   1.000  H
  H87      1.0000 0.65650  0.32830  0.56690  Biso   1.000  H
  H88      1.0000 0.34350  0.32830  0.93310  Biso   1.000  H
  C109     1.0000 0.30250  0.67450  0.50330  Biso   1.000  C
  C110     1.0000 0.69750  0.67450  0.99670  Biso   1.000  C
  C111     1.0000 0.69750  0.32550  0.49670  Biso   1.000  C
  C112     1.0000 0.30250  0.32550  0.00330  Biso   1.000  C
  H89      1.0000 0.33600  0.68460  0.53680  Biso   1.000  H
  H90      1.0000 0.66400  0.68460  0.96320  Biso   1.000  H
  H91      1.0000 0.66400  0.31540  0.46320  Biso   1.000  H
  H92      1.0000 0.33600  0.31540  0.03680  Biso   1.000  H
  C113     1.0000 0.24780  0.66590  0.51520  Biso   1.000  C
  C114     1.0000 0.75220  0.66590  0.98480  Biso   1.000  C
  C115     1.0000 0.75220  0.33410  0.48480  Biso   1.000  C
  C116     1.0000 0.24780  0.33410  0.01520  Biso   1.000  C
  C117     1.0000 0.19950  0.65390  0.46330  Biso   1.000  C
  C118     1.0000 0.80050  0.65390  0.03670  Biso   1.000  C
  C119     1.0000 0.80050  0.34610  0.53670  Biso   1.000  C
  C120     1.0000 0.19950  0.34610  0.96330  Biso   1.000  C
  H93      1.0000 0.16200  0.64850  0.46910  Biso   1.000  H
  H94      1.0000 0.83800  0.64850  0.03090  Biso   1.000  H
  H95      1.0000 0.83800  0.35150  0.53090  Biso   1.000  H
  H96      1.0000 0.16200  0.35150  0.96910  Biso   1.000  H
  C121     1.0000 0.20790  0.65020  0.40360  Biso   1.000  C
  C122     1.0000 0.79210  0.65020  0.09640  Biso   1.000  C
  C123     1.0000 0.79210  0.34980  0.59640  Biso   1.000  C
  C124     1.0000 0.20790  0.34980  0.90360  Biso   1.000  C
  H97      1.0000 0.17480  0.64260  0.36930  Biso   1.000  H
  H98      1.0000 0.82520  0.64260  0.13070  Biso   1.000  H
  H99      1.0000 0.82520  0.35740  0.63070  Biso   1.000  H
  H100     1.0000 0.17480  0.35740  0.86930  Biso   1.000  H
  C125     1.0000 0.17610  0.72130  0.90570  Biso   1.000  C
  C126     1.0000 0.82390  0.72130  0.59430  Biso   1.000  C
  C127     1.0000 0.82390  0.27870  0.09430  Biso   1.000  C
  C128     1.0000 0.17610  0.27870  0.40570  Biso   1.000  C
  H101     1.0000 0.14000  0.74180  0.87830  Biso   1.000  H
  H102     1.0000 0.86000  0.74180  0.62170  Biso   1.000  H
  H103     1.0000 0.86000  0.25820  0.12170  Biso   1.000  H
  H104     1.0000 0.14000  0.25820  0.37830  Biso   1.000  H
  C129     1.0000 0.18210  0.72040  0.96970  Biso   1.000  C
  C130     1.0000 0.81790  0.72040  0.53030  Biso   1.000  C
  C131     1.0000 0.81790  0.27960  0.03030  Biso   1.000  C
  C132     1.0000 0.18210  0.27960  0.46970  Biso   1.000  C
  H105     1.0000 0.14960  0.73810  0.98490  Biso   1.000  H
  H106     1.0000 0.85040  0.73810  0.51510  Biso   1.000  H
  H107     1.0000 0.85040  0.26190  0.01510  Biso   1.000  H
  H108     1.0000 0.14960  0.26190  0.48490  Biso   1.000  H
  C133     1.0000 0.23410  0.69440  0.01190  Biso   1.000  C
  C134     1.0000 0.76590  0.69440  0.48810  Biso   1.000  C
  C135     1.0000 0.76590  0.30560  0.98810  Biso   1.000  C
  C136     1.0000 0.23410  0.30560  0.51190  Biso   1.000  C
  C137     1.0000 0.28190  0.66970  0.98720  Biso   1.000  C
  C138     1.0000 0.71810  0.66970  0.51280  Biso   1.000  C
  C139     1.0000 0.71810  0.33030  0.01280  Biso   1.000  C
  C140     1.0000 0.28190  0.33030  0.48720  Biso   1.000  C
  H109     1.0000 0.31880  0.65400  0.01420  Biso   1.000  H
  H110     1.0000 0.68120  0.65400  0.48580  Biso   1.000  H
  H111     1.0000 0.68120  0.34600  0.98580  Biso   1.000  H
  H112     1.0000 0.31880  0.34600  0.51420  Biso   1.000  H
  C141     1.0000 0.27310  0.66910  0.92140  Biso   1.000  C
  C142     1.0000 0.72690  0.66910  0.57860  Biso   1.000  C
  C143     1.0000 0.72690  0.33090  0.07860  Biso   1.000  C
  C144     1.0000 0.27310  0.33090  0.42140  Biso   1.000  C
  H113     1.0000 0.30500  0.65090  0.90550  Biso   1.000  H
  H114     1.0000 0.69500  0.65090  0.59450  Biso   1.000  H
  H115     1.0000 0.69500  0.34910  0.09450  Biso   1.000  H
  H116     1.0000 0.30500  0.34910  0.40550  Biso   1.000  H
  C145     1.0000 0.30090  0.69400  0.19160  Biso   1.000  C
  C146     1.0000 0.69910  0.69400  0.30840  Biso   1.000  C
  C147     1.0000 0.69910  0.30600  0.80840  Biso   1.000  C
  C148     1.0000 0.30090  0.30600  0.69160  Biso   1.000  C
  H117     1.0000 0.33750  0.70900  0.21950  Biso   1.000  H
  H118     1.0000 0.66250  0.70900  0.28050  Biso   1.000  H
  H119     1.0000 0.66250  0.29100  0.78050  Biso   1.000  H
  H120     1.0000 0.33750  0.29100  0.71950  Biso   1.000  H
  C149     1.0000 0.29450  0.70950  0.12570  Biso   1.000  C
  C150     1.0000 0.70550  0.70950  0.37430  Biso   1.000  C
  C151     1.0000 0.70550  0.29050  0.87430  Biso   1.000  C
  C152     1.0000 0.29450  0.29050  0.62570  Biso   1.000  C
  H121     1.0000 0.32670  0.73470  0.11160  Biso   1.000  H
  H122     1.0000 0.67330  0.73470  0.38840  Biso   1.000  H
  H123     1.0000 0.67330  0.26530  0.88840  Biso   1.000  H
  H124     1.0000 0.32670  0.26530  0.61160  Biso   1.000  H
  C153     1.0000 0.24170  0.68810  0.08170  Biso   1.000  C
  C154     1.0000 0.75830  0.68810  0.41830  Biso   1.000  C
  C155     1.0000 0.75830  0.31190  0.91830  Biso   1.000  C
  C156     1.0000 0.24170  0.31190  0.58170  Biso   1.000  C
  C157     1.0000 0.19530  0.65400  0.10760  Biso   1.000  C
  C158     1.0000 0.80470  0.65400  0.39240  Biso   1.000  C
  C159     1.0000 0.80470  0.34600  0.89240  Biso   1.000  C
  C160     1.0000 0.19530  0.34600  0.60760  Biso   1.000  C
  H125     1.0000 0.15830  0.63990  0.08050  Biso   1.000  H
  H126     1.0000 0.84170  0.63990  0.41950  Biso   1.000  H
  H127     1.0000 0.84170  0.36010  0.91950  Biso   1.000  H
  H128     1.0000 0.15830  0.36010  0.58050  Biso   1.000  H
  C161     1.0000 0.20380  0.64150  0.17160  Biso   1.000  C
  C162     1.0000 0.79620  0.64150  0.32840  Biso   1.000  C
  C163     1.0000 0.79620  0.35850  0.82840  Biso   1.000  C
  C164     1.0000 0.20380  0.35850  0.67160  Biso   1.000  C
  H129     1.0000 0.17180  0.61960  0.18690  Biso   1.000  H
  H130     1.0000 0.82820  0.61960  0.31310  Biso   1.000  H
  H131     1.0000 0.82820  0.38040  0.81310  Biso   1.000  H
  H132     1.0000 0.17180  0.38040  0.68690  Biso   1.000  H
  C165     1.0000 0.64630  0.98300  0.48430  Biso   1.000  C
  C166     1.0000 0.35370  0.98300  0.01570  Biso   1.000  C
  C167     1.0000 0.35370  0.01700  0.51570  Biso   1.000  C
  C168     1.0000 0.64630  0.01700  0.98430  Biso   1.000  C
  H133     1.0000 0.61150  0.97280  0.45260  Biso   1.000  H
  H134     1.0000 0.38850  0.97280  0.04740  Biso   1.000  H
  H135     1.0000 0.38850  0.02720  0.54740  Biso   1.000  H
  H136     1.0000 0.61150  0.02720  0.95260  Biso   1.000  H
  C169     1.0000 0.64500  0.97070  0.54750  Biso   1.000  C
  C170     1.0000 0.35500  0.97070  0.95250  Biso   1.000  C
  C171     1.0000 0.35500  0.02930  0.45250  Biso   1.000  C
  C172     1.0000 0.64500  0.02930  0.04750  Biso   1.000  C
  H137     1.0000 0.60990  0.95350  0.55750  Biso   1.000  H
  H138     1.0000 0.39010  0.95350  0.94250  Biso   1.000  H
  H139     1.0000 0.39010  0.04650  0.44250  Biso   1.000  H
  H140     1.0000 0.60990  0.04650  0.05750  Biso   1.000  H
  C173     1.0000 0.69720  0.98430  0.59670  Biso   1.000  C
  C174     1.0000 0.30280  0.98430  0.90330  Biso   1.000  C
  C175     1.0000 0.30280  0.01570  0.40330  Biso   1.000  C
  C176     1.0000 0.69720  0.01570  0.09670  Biso   1.000  C
  C177     1.0000 0.74730  0.00930  0.57840  Biso   1.000  C
  C178     1.0000 0.25270  0.00930  0.92160  Biso   1.000  C
  C179     1.0000 0.25270  0.99070  0.42160  Biso   1.000  C
  C180     1.0000 0.74730  0.99070  0.07840  Biso   1.000  C
  H141     1.0000 0.78270  0.01960  0.60920  Biso   1.000  H
  H142     1.0000 0.21730  0.01960  0.89080  Biso   1.000  H
  H143     1.0000 0.21730  0.98040  0.39080  Biso   1.000  H
  H144     1.0000 0.78270  0.98040  0.10920  Biso   1.000  H
  C181     1.0000 0.74560  0.01950  0.51450  Biso   1.000  C
  C182     1.0000 0.25440  0.01950  0.98550  Biso   1.000  C
  C183     1.0000 0.25440  0.98050  0.48550  Biso   1.000  C
  C184     1.0000 0.74560  0.98050  0.01450  Biso   1.000  C
  H145     1.0000 0.78050  0.03430  0.50350  Biso   1.000  H
  H146     1.0000 0.21950  0.03430  0.99650  Biso   1.000  H
  H147     1.0000 0.21950  0.96570  0.49650  Biso   1.000  H
  H148     1.0000 0.78050  0.96570  0.00350  Biso   1.000  H
  C185     1.0000 0.65070  0.89770  0.74630  Biso   1.000  C
  C186     1.0000 0.34930  0.89770  0.75370  Biso   1.000  C
  C187     1.0000 0.34930  0.10230  0.25370  Biso   1.000  C
  C188     1.0000 0.65070  0.10230  0.24630  Biso   1.000  C
  H149     1.0000 0.62090  0.85190  0.75670  Biso   1.000  H
  H150     1.0000 0.37910  0.85190  0.74330  Biso   1.000  H
  H151     1.0000 0.37910  0.14810  0.24330  Biso   1.000  H
  H152     1.0000 0.62090  0.14810  0.25670  Biso   1.000  H
  C189     1.0000 0.65120  0.90570  0.68230  Biso   1.000  C
  C190     1.0000 0.34880  0.90570  0.81770  Biso   1.000  C
  C191     1.0000 0.34880  0.09430  0.31770  Biso   1.000  C
  C192     1.0000 0.65120  0.09430  0.18230  Biso   1.000  C
  H153     1.0000 0.62150  0.86760  0.65110  Biso   1.000  H
  H154     1.0000 0.37850  0.86760  0.84890  Biso   1.000  H
  H155     1.0000 0.37850  0.13240  0.34890  Biso   1.000  H
  H156     1.0000 0.62150  0.13240  0.15110  Biso   1.000  H
  C193     1.0000 0.69570  0.96970  0.66500  Biso   1.000  C
  C194     1.0000 0.30430  0.96970  0.83500  Biso   1.000  C
  C195     1.0000 0.30430  0.03030  0.33500  Biso   1.000  C
  C196     1.0000 0.69570  0.03030  0.16500  Biso   1.000  C
  C197     1.0000 0.73910  0.02360  0.71350  Biso   1.000  C
  C198     1.0000 0.26090  0.02360  0.78650  Biso   1.000  C
  C199     1.0000 0.26090  0.97640  0.28650  Biso   1.000  C
  C200     1.0000 0.73910  0.97640  0.21350  Biso   1.000  C
  H157     1.0000 0.77000  0.06760  0.70430  Biso   1.000  H
  H158     1.0000 0.23000  0.06760  0.79570  Biso   1.000  H
  H159     1.0000 0.23000  0.93240  0.29570  Biso   1.000  H
  H160     1.0000 0.77000  0.93240  0.20430  Biso   1.000  H
  C201     1.0000 0.73580  0.01080  0.77650  Biso   1.000  C
  C202     1.0000 0.26420  0.01080  0.72350  Biso   1.000  C
  C203     1.0000 0.26420  0.98920  0.22350  Biso   1.000  C
  C204     1.0000 0.73580  0.98920  0.27650  Biso   1.000  C
  H161     1.0000 0.76610  0.04390  0.80880  Biso   1.000  H
  H162     1.0000 0.23390  0.04390  0.69120  Biso   1.000  H
  H163     1.0000 0.23390  0.95610  0.19120  Biso   1.000  H
  H164     1.0000 0.76610  0.95610  0.30880  Biso   1.000  H
