data_image0
_cell_length_a       23.586
_cell_length_b       10.4497
_cell_length_c       21.655
_cell_angle_alpha    90
_cell_angle_beta     105.252
_cell_angle_gamma    90

_symmetry_space_group_name_H-M    "P 1"
_symmetry_int_tables_number       1

loop_
  _symmetry_equiv_pos_as_xyz
  'x, y, z'

loop_
  _atom_site_label
  _atom_site_occupancy
  _atom_site_fract_x
  _atom_site_fract_y
  _atom_site_fract_z
  _atom_site_thermal_displace_type
  _atom_site_B_iso_or_equiv
  _atom_site_type_symbol
  Yb1      1.0000 0.00000  0.76939  0.75000  Biso   1.000  Yb
  Yb2      1.0000 0.00000  0.23061  0.25000  Biso   1.000  Yb
  Yb3      1.0000 0.50000  0.46640  0.25000  Biso   1.000  Yb
  Yb4      1.0000 0.50000  0.53360  0.75000  Biso   1.000  Yb
  Cu1      1.0000 0.21385  0.66712  0.79023  Biso   1.000  Cu
  Cu2      1.0000 0.78615  0.66712  0.70977  Biso   1.000  Cu
  Cu3      1.0000 0.78615  0.33288  0.20977  Biso   1.000  Cu
  Cu4      1.0000 0.21385  0.33288  0.29023  Biso   1.000  Cu
  Cu5      1.0000 0.26945  0.63683  0.30531  Biso   1.000  Cu
  Cu6      1.0000 0.73055  0.63683  0.19469  Biso   1.000  Cu
  Cu7      1.0000 0.73055  0.36317  0.69469  Biso   1.000  Cu
  Cu8      1.0000 0.26945  0.36317  0.80531  Biso   1.000  Cu
  Cu9      1.0000 0.68639  0.04749  0.37683  Biso   1.000  Cu
  Cu10     1.0000 0.31361  0.04749  0.12317  Biso   1.000  Cu
  Cu11     1.0000 0.31361  0.95251  0.62317  Biso   1.000  Cu
  Cu12     1.0000 0.68639  0.95251  0.87683  Biso   1.000  Cu
  N1       1.0000 0.04665  0.89440  0.68090  Biso   1.000  N
  N2       1.0000 0.95335  0.89440  0.81910  Biso   1.000  N
  N3       1.0000 0.95335  0.10560  0.31910  Biso   1.000  N
  N4       1.0000 0.04665  0.10560  0.18090  Biso   1.000  N
  N5       1.0000 0.00000  0.53510  0.75000  Biso   1.000  N
  N6       1.0000 0.00000  0.46490  0.25000  Biso   1.000  N
  N7       1.0000 0.48103  0.35990  0.34463  Biso   1.000  N
  N8       1.0000 0.51897  0.35990  0.15537  Biso   1.000  N
  N9       1.0000 0.51897  0.64010  0.65537  Biso   1.000  N
  N10      1.0000 0.48103  0.64010  0.84463  Biso   1.000  N
  N11      1.0000 0.50000  0.69860  0.25000  Biso   1.000  N
  N12      1.0000 0.50000  0.30140  0.75000  Biso   1.000  N
  N13      1.0000 0.22831  0.68100  0.70723  Biso   1.000  N
  N14      1.0000 0.77169  0.68100  0.79277  Biso   1.000  N
  N15      1.0000 0.77169  0.31900  0.29277  Biso   1.000  N
  N16      1.0000 0.22831  0.31900  0.20723  Biso   1.000  N
  N17      1.0000 0.26085  0.65560  0.39098  Biso   1.000  N
  N18      1.0000 0.73915  0.65560  0.10902  Biso   1.000  N
  N19      1.0000 0.73915  0.34440  0.60902  Biso   1.000  N
  N20      1.0000 0.26085  0.34440  0.89098  Biso   1.000  N
  N21      1.0000 0.22275  0.69320  0.88016  Biso   1.000  N
  N22      1.0000 0.77725  0.69320  0.61984  Biso   1.000  N
  N23      1.0000 0.77725  0.30680  0.11984  Biso   1.000  N
  N24      1.0000 0.22275  0.30680  0.38016  Biso   1.000  N
  N25      1.0000 0.25650  0.66010  0.21507  Biso   1.000  N
  N26      1.0000 0.74350  0.66010  0.28493  Biso   1.000  N
  N27      1.0000 0.74350  0.33990  0.78493  Biso   1.000  N
  N28      1.0000 0.25650  0.33990  0.71507  Biso   1.000  N
  N29      1.0000 0.69501  0.00850  0.46482  Biso   1.000  N
  N30      1.0000 0.30499  0.00850  0.03518  Biso   1.000  N
  N31      1.0000 0.30499  0.99150  0.53518  Biso   1.000  N
  N32      1.0000 0.69501  0.99150  0.96482  Biso   1.000  N
  N33      1.0000 0.69193  0.95370  0.79051  Biso   1.000  N
  N34      1.0000 0.30807  0.95370  0.70949  Biso   1.000  N
  N35      1.0000 0.30807  0.04630  0.20949  Biso   1.000  N
  N36      1.0000 0.69193  0.04630  0.29051  Biso   1.000  N
  O1       1.0000 0.06679  0.92650  0.80410  Biso   1.000  O
  O2       1.0000 0.93321  0.92650  0.69590  Biso   1.000  O
  O3       1.0000 0.93321  0.07350  0.19590  Biso   1.000  O
  O4       1.0000 0.06679  0.07350  0.30410  Biso   1.000  O
  O5       1.0000 0.13220  0.08220  0.80586  Biso   1.000  O
  O6       1.0000 0.86780  0.08220  0.69414  Biso   1.000  O
  O7       1.0000 0.86780  0.91780  0.19414  Biso   1.000  O
  O8       1.0000 0.13220  0.91780  0.30586  Biso   1.000  O
  O9       1.0000 0.97654  0.70240  0.64117  Biso   1.000  O
  O10      1.0000 0.02346  0.70240  0.85883  Biso   1.000  O
  O11      1.0000 0.02346  0.29760  0.35883  Biso   1.000  O
  O12      1.0000 0.97654  0.29760  0.14117  Biso   1.000  O
  O13      1.0000 0.97148  0.74010  0.53877  Biso   1.000  O
  O14      1.0000 0.02852  0.74010  0.96123  Biso   1.000  O
  O15      1.0000 0.02852  0.25990  0.46123  Biso   1.000  O
  O16      1.0000 0.97148  0.25990  0.03877  Biso   1.000  O
  O17      1.0000 0.09374  0.67350  0.75869  Biso   1.000  O
  O18      1.0000 0.90626  0.67350  0.74131  Biso   1.000  O
  O19      1.0000 0.90626  0.32650  0.24131  Biso   1.000  O
  O20      1.0000 0.09374  0.32650  0.25869  Biso   1.000  O
  O21      1.0000 0.15255  0.50260  0.77513  Biso   1.000  O
  O22      1.0000 0.84745  0.50260  0.72487  Biso   1.000  O
  O23      1.0000 0.84745  0.49740  0.22487  Biso   1.000  O
  O24      1.0000 0.15255  0.49740  0.27513  Biso   1.000  O
  O25      1.0000 0.41299  0.53470  0.27817  Biso   1.000  O
  O26      1.0000 0.58701  0.53470  0.22183  Biso   1.000  O
  O27      1.0000 0.58701  0.46530  0.72183  Biso   1.000  O
  O28      1.0000 0.41299  0.46530  0.77817  Biso   1.000  O
  O29      1.0000 0.35243  0.52650  0.34228  Biso   1.000  O
  O30      1.0000 0.64757  0.52650  0.15772  Biso   1.000  O
  O31      1.0000 0.64757  0.47350  0.65772  Biso   1.000  O
  O32      1.0000 0.35243  0.47350  0.84228  Biso   1.000  O
  O33      1.0000 0.56491  0.29640  0.29327  Biso   1.000  O
  O34      1.0000 0.43509  0.29640  0.20673  Biso   1.000  O
  O35      1.0000 0.43509  0.70360  0.70673  Biso   1.000  O
  O36      1.0000 0.56491  0.70360  0.79327  Biso   1.000  O
  O37      1.0000 0.60275  0.15690  0.37135  Biso   1.000  O
  O38      1.0000 0.39725  0.15690  0.12865  Biso   1.000  O
  O39      1.0000 0.39725  0.84310  0.62865  Biso   1.000  O
  O40      1.0000 0.60275  0.84310  0.87135  Biso   1.000  O
  O41      1.0000 0.44552  0.55940  0.15339  Biso   1.000  O
  O42      1.0000 0.55448  0.55940  0.34661  Biso   1.000  O
  O43      1.0000 0.55448  0.44060  0.84661  Biso   1.000  O
  O44      1.0000 0.44552  0.44060  0.65339  Biso   1.000  O
  O45      1.0000 0.42258  0.72920  0.08829  Biso   1.000  O
  O46      1.0000 0.57742  0.72920  0.41171  Biso   1.000  O
  O47      1.0000 0.57742  0.27080  0.91171  Biso   1.000  O
  O48      1.0000 0.42258  0.27080  0.58829  Biso   1.000  O
  O49      1.0000 0.91960  0.49940  0.99750  Biso   1.000  O
  O50      1.0000 0.08040  0.49940  0.50250  Biso   1.000  O
  O51      1.0000 0.08040  0.50060  0.00250  Biso   1.000  O
  O52      1.0000 0.91960  0.50060  0.49750  Biso   1.000  O
  H1       1.0000 0.93410  0.43000  0.01470  Biso   1.000  H
  H2       1.0000 0.06590  0.43000  0.48530  Biso   1.000  H
  H3       1.0000 0.06590  0.57000  0.98530  Biso   1.000  H
  H4       1.0000 0.93410  0.57000  0.51470  Biso   1.000  H
  H5       1.0000 0.92580  0.50400  0.96070  Biso   1.000  H
  H6       1.0000 0.07420  0.50400  0.53930  Biso   1.000  H
  H7       1.0000 0.07420  0.49600  0.03930  Biso   1.000  H
  H8       1.0000 0.92580  0.49600  0.46070  Biso   1.000  H
  O53      1.0000 0.94700  0.52810  0.38210  Biso   1.000  O
  O54      1.0000 0.05300  0.52810  0.11790  Biso   1.000  O
  O55      1.0000 0.05300  0.47190  0.61790  Biso   1.000  O
  O56      1.0000 0.94700  0.47190  0.88210  Biso   1.000  O
  H9       1.0000 0.96650  0.46340  0.37620  Biso   1.000  H
  H10      1.0000 0.03350  0.46340  0.12380  Biso   1.000  H
  H11      1.0000 0.03350  0.53660  0.62380  Biso   1.000  H
  H12      1.0000 0.96650  0.53660  0.87620  Biso   1.000  H
  H13      1.0000 0.97100  0.58630  0.39910  Biso   1.000  H
  H14      1.0000 0.02900  0.58630  0.10090  Biso   1.000  H
  H15      1.0000 0.02900  0.41370  0.60090  Biso   1.000  H
  H16      1.0000 0.97100  0.41370  0.89910  Biso   1.000  H
  O57      1.0000 0.89250  0.94650  0.05970  Biso   1.000  O
  O58      1.0000 0.10750  0.94650  0.44030  Biso   1.000  O
  O59      1.0000 0.10750  0.05350  0.94030  Biso   1.000  O
  O60      1.0000 0.89250  0.05350  0.55970  Biso   1.000  O
  H17      1.0000 0.90290  0.97880  0.09690  Biso   1.000  H
  H18      1.0000 0.09710  0.97880  0.40310  Biso   1.000  H
  H19      1.0000 0.09710  0.02120  0.90310  Biso   1.000  H
  H20      1.0000 0.90290  0.02120  0.59690  Biso   1.000  H
  H21      1.0000 0.91340  0.88100  0.05910  Biso   1.000  H
  H22      1.0000 0.08660  0.88100  0.44090  Biso   1.000  H
  H23      1.0000 0.08660  0.11900  0.94090  Biso   1.000  H
  H24      1.0000 0.91340  0.11900  0.55910  Biso   1.000  H
  O61      1.0000 0.96850  0.72770  0.05830  Biso   1.000  O
  O62      1.0000 0.03150  0.72770  0.44170  Biso   1.000  O
  O63      1.0000 0.03150  0.27230  0.94170  Biso   1.000  O
  O64      1.0000 0.96850  0.27230  0.55830  Biso   1.000  O
  H25      1.0000 0.98940  0.74770  0.03330  Biso   1.000  H
  H26      1.0000 0.01060  0.74770  0.46670  Biso   1.000  H
  H27      1.0000 0.01060  0.25230  0.96670  Biso   1.000  H
  H28      1.0000 0.98940  0.25230  0.53330  Biso   1.000  H
  H29      1.0000 0.95160  0.65760  0.04540  Biso   1.000  H
  H30      1.0000 0.04840  0.65760  0.45460  Biso   1.000  H
  H31      1.0000 0.04840  0.34240  0.95460  Biso   1.000  H
  H32      1.0000 0.95160  0.34240  0.54540  Biso   1.000  H
  C1       1.0000 0.09630  0.00160  0.77820  Biso   1.000  C
  C2       1.0000 0.90370  0.00160  0.72180  Biso   1.000  C
  C3       1.0000 0.90370  0.99840  0.22180  Biso   1.000  C
  C4       1.0000 0.09630  0.99840  0.27820  Biso   1.000  C
  C5       1.0000 0.08323  0.98930  0.70620  Biso   1.000  C
  C6       1.0000 0.91677  0.98930  0.79380  Biso   1.000  C
  C7       1.0000 0.91677  0.01070  0.29380  Biso   1.000  C
  C8       1.0000 0.08323  0.01070  0.20620  Biso   1.000  C
  C9       1.0000 0.10660  0.06880  0.66820  Biso   1.000  C
  C10      1.0000 0.89340  0.06880  0.83180  Biso   1.000  C
  C11      1.0000 0.89340  0.93120  0.33180  Biso   1.000  C
  C12      1.0000 0.10660  0.93120  0.16820  Biso   1.000  C
  H33      1.0000 0.13190  0.13490  0.68630  Biso   1.000  H
  H34      1.0000 0.86810  0.13490  0.81370  Biso   1.000  H
  H35      1.0000 0.86810  0.86510  0.31370  Biso   1.000  H
  H36      1.0000 0.13190  0.86510  0.18630  Biso   1.000  H
  C13      1.0000 0.09170  0.04860  0.60280  Biso   1.000  C
  C14      1.0000 0.90830  0.04860  0.89720  Biso   1.000  C
  C15      1.0000 0.90830  0.95140  0.39720  Biso   1.000  C
  C16      1.0000 0.09170  0.95140  0.10280  Biso   1.000  C
  H37      1.0000 0.10690  0.10120  0.57650  Biso   1.000  H
  H38      1.0000 0.89310  0.10120  0.92350  Biso   1.000  H
  H39      1.0000 0.89310  0.89880  0.42350  Biso   1.000  H
  H40      1.0000 0.10690  0.89880  0.07650  Biso   1.000  H
  C17      1.0000 0.05420  0.95030  0.57710  Biso   1.000  C
  C18      1.0000 0.94580  0.95030  0.92290  Biso   1.000  C
  C19      1.0000 0.94580  0.04970  0.42290  Biso   1.000  C
  C20      1.0000 0.05420  0.04970  0.07710  Biso   1.000  C
  H41      1.0000 0.04420  0.93450  0.53330  Biso   1.000  H
  H42      1.0000 0.95580  0.93450  0.96670  Biso   1.000  H
  H43      1.0000 0.95580  0.06550  0.46670  Biso   1.000  H
  H44      1.0000 0.04420  0.06550  0.03330  Biso   1.000  H
  C21      1.0000 0.03178  0.87490  0.61790  Biso   1.000  C
  C22      1.0000 0.96822  0.87490  0.88210  Biso   1.000  C
  C23      1.0000 0.96822  0.12510  0.38210  Biso   1.000  C
  C24      1.0000 0.03178  0.12510  0.11790  Biso   1.000  C
  C25      1.0000 0.98960  0.76410  0.59720  Biso   1.000  C
  C26      1.0000 0.01040  0.76410  0.90280  Biso   1.000  C
  C27      1.0000 0.01040  0.23590  0.40280  Biso   1.000  C
  C28      1.0000 0.98960  0.23590  0.09720  Biso   1.000  C
  C29      1.0000 0.10309  0.55440  0.76465  Biso   1.000  C
  C30      1.0000 0.89691  0.55440  0.73535  Biso   1.000  C
  C31      1.0000 0.89691  0.44560  0.23535  Biso   1.000  C
  C32      1.0000 0.10309  0.44560  0.26465  Biso   1.000  C
  C33      1.0000 0.05022  0.47020  0.75850  Biso   1.000  C
  C34      1.0000 0.94978  0.47020  0.74150  Biso   1.000  C
  C35      1.0000 0.94978  0.52980  0.24150  Biso   1.000  C
  C36      1.0000 0.05022  0.52980  0.25850  Biso   1.000  C
  C37      1.0000 0.05250  0.33850  0.75970  Biso   1.000  C
  C38      1.0000 0.94750  0.33850  0.74030  Biso   1.000  C
  C39      1.0000 0.94750  0.66150  0.24030  Biso   1.000  C
  C40      1.0000 0.05250  0.66150  0.25970  Biso   1.000  C
  H45      1.0000 0.08820  0.29560  0.76690  Biso   1.000  H
  H46      1.0000 0.91180  0.29560  0.73310  Biso   1.000  H
  H47      1.0000 0.91180  0.70440  0.23310  Biso   1.000  H
  H48      1.0000 0.08820  0.70440  0.26690  Biso   1.000  H
  C41      1.0000 0.00000  0.27140  0.75000  Biso   1.000  C
  C42      1.0000 0.00000  0.72860  0.25000  Biso   1.000  C
  H49      1.0000 0.00000  0.18240  0.75000  Biso   1.000  H
  H50      1.0000 0.00000  0.81760  0.25000  Biso   1.000  H
  C43      1.0000 0.39777  0.49770  0.32650  Biso   1.000  C
  C44      1.0000 0.60223  0.49770  0.17350  Biso   1.000  C
  C45      1.0000 0.60223  0.50230  0.67350  Biso   1.000  C
  C46      1.0000 0.39777  0.50230  0.82650  Biso   1.000  C
  C47      1.0000 0.43971  0.40620  0.37030  Biso   1.000  C
  C48      1.0000 0.56029  0.40620  0.12970  Biso   1.000  C
  C49      1.0000 0.56029  0.59380  0.62970  Biso   1.000  C
  C50      1.0000 0.43971  0.59380  0.87030  Biso   1.000  C
  C51      1.0000 0.43760  0.37490  0.43170  Biso   1.000  C
  C52      1.0000 0.56240  0.37490  0.06830  Biso   1.000  C
  C53      1.0000 0.56240  0.62510  0.56830  Biso   1.000  C
  C54      1.0000 0.43760  0.62510  0.93170  Biso   1.000  C
  H51      1.0000 0.40870  0.40940  0.44880  Biso   1.000  H
  H52      1.0000 0.59130  0.40940  0.05120  Biso   1.000  H
  H53      1.0000 0.59130  0.59060  0.55120  Biso   1.000  H
  H54      1.0000 0.40870  0.59060  0.94880  Biso   1.000  H
  C55      1.0000 0.47880  0.29210  0.46700  Biso   1.000  C
  C56      1.0000 0.52120  0.29210  0.03300  Biso   1.000  C
  C57      1.0000 0.52120  0.70790  0.53300  Biso   1.000  C
  C58      1.0000 0.47880  0.70790  0.96700  Biso   1.000  C
  H55      1.0000 0.47830  0.26990  0.50840  Biso   1.000  H
  H56      1.0000 0.52170  0.26990  0.99160  Biso   1.000  H
  H57      1.0000 0.52170  0.73010  0.49160  Biso   1.000  H
  H58      1.0000 0.47830  0.73010  0.00840  Biso   1.000  H
  C59      1.0000 0.52100  0.24250  0.44020  Biso   1.000  C
  C60      1.0000 0.47900  0.24250  0.05980  Biso   1.000  C
  C61      1.0000 0.47900  0.75750  0.55980  Biso   1.000  C
  C62      1.0000 0.52100  0.75750  0.94020  Biso   1.000  C
  H59      1.0000 0.54900  0.18510  0.46290  Biso   1.000  H
  H60      1.0000 0.45100  0.18510  0.03710  Biso   1.000  H
  H61      1.0000 0.45100  0.81490  0.53710  Biso   1.000  H
  H62      1.0000 0.54900  0.81490  0.96290  Biso   1.000  H
  C63      1.0000 0.52082  0.28000  0.37880  Biso   1.000  C
  C64      1.0000 0.47918  0.28000  0.12120  Biso   1.000  C
  C65      1.0000 0.47918  0.72000  0.62120  Biso   1.000  C
  C66      1.0000 0.52082  0.72000  0.87880  Biso   1.000  C
  C67      1.0000 0.56710  0.24000  0.34510  Biso   1.000  C
  C68      1.0000 0.43290  0.24000  0.15490  Biso   1.000  C
  C69      1.0000 0.43290  0.76000  0.65490  Biso   1.000  C
  C70      1.0000 0.56710  0.76000  0.84510  Biso   1.000  C
  C71      1.0000 0.44455  0.67790  0.14070  Biso   1.000  C
  C72      1.0000 0.55545  0.67790  0.35930  Biso   1.000  C
  C73      1.0000 0.55545  0.32210  0.85930  Biso   1.000  C
  C74      1.0000 0.44455  0.32210  0.64070  Biso   1.000  C
  C75      1.0000 0.47340  0.76300  0.19680  Biso   1.000  C
  C76      1.0000 0.52660  0.76300  0.30320  Biso   1.000  C
  C77      1.0000 0.52660  0.23700  0.80320  Biso   1.000  C
  C78      1.0000 0.47340  0.23700  0.69680  Biso   1.000  C
  C79      1.0000 0.47300  0.89530  0.19570  Biso   1.000  C
  C80      1.0000 0.52700  0.89530  0.30430  Biso   1.000  C
  C81      1.0000 0.52700  0.10470  0.80430  Biso   1.000  C
  C82      1.0000 0.47300  0.10470  0.69570  Biso   1.000  C
  H63      1.0000 0.45460  0.93880  0.15830  Biso   1.000  H
  H64      1.0000 0.54540  0.93880  0.34170  Biso   1.000  H
  H65      1.0000 0.54540  0.06120  0.84170  Biso   1.000  H
  H66      1.0000 0.45460  0.06120  0.65830  Biso   1.000  H
  C83      1.0000 0.50000  0.96180  0.25000  Biso   1.000  C
  C84      1.0000 0.50000  0.03820  0.75000  Biso   1.000  C
  H67      1.0000 0.50000  0.05080  0.25000  Biso   1.000  H
  H68      1.0000 0.50000  0.94920  0.75000  Biso   1.000  H
  C85      1.0000 0.18590  0.72030  0.65690  Biso   1.000  C
  C86      1.0000 0.81410  0.72030  0.84310  Biso   1.000  C
  C87      1.0000 0.81410  0.27970  0.34310  Biso   1.000  C
  C88      1.0000 0.18590  0.27970  0.15690  Biso   1.000  C
  H69      1.0000 0.15110  0.75060  0.66400  Biso   1.000  H
  H70      1.0000 0.84890  0.75060  0.83600  Biso   1.000  H
  H71      1.0000 0.84890  0.24940  0.33600  Biso   1.000  H
  H72      1.0000 0.15110  0.24940  0.16400  Biso   1.000  H
  C89      1.0000 0.19100  0.71840  0.59510  Biso   1.000  C
  C90      1.0000 0.80900  0.71840  0.90490  Biso   1.000  C
  C91      1.0000 0.80900  0.28160  0.40490  Biso   1.000  C
  C92      1.0000 0.19100  0.28160  0.09510  Biso   1.000  C
  H73      1.0000 0.16010  0.74680  0.56160  Biso   1.000  H
  H74      1.0000 0.83990  0.74680  0.93840  Biso   1.000  H
  H75      1.0000 0.83990  0.25320  0.43840  Biso   1.000  H
  H76      1.0000 0.16010  0.25320  0.06160  Biso   1.000  H
  C93      1.0000 0.24273  0.67360  0.58270  Biso   1.000  C
  C94      1.0000 0.75727  0.67360  0.91730  Biso   1.000  C
  C95      1.0000 0.75727  0.32640  0.41730  Biso   1.000  C
  C96      1.0000 0.24273  0.32640  0.08270  Biso   1.000  C
  C97      1.0000 0.28680  0.63400  0.63510  Biso   1.000  C
  C98      1.0000 0.71320  0.63400  0.86490  Biso   1.000  C
  C99      1.0000 0.71320  0.36600  0.36490  Biso   1.000  C
  C100     1.0000 0.28680  0.36600  0.13510  Biso   1.000  C
  H77      1.0000 0.32220  0.60370  0.62940  Biso   1.000  H
  H78      1.0000 0.67780  0.60370  0.87060  Biso   1.000  H
  H79      1.0000 0.67780  0.39630  0.37060  Biso   1.000  H
  H80      1.0000 0.32220  0.39630  0.12940  Biso   1.000  H
  C101     1.0000 0.27840  0.63940  0.69580  Biso   1.000  C
  C102     1.0000 0.72160  0.63940  0.80420  Biso   1.000  C
  C103     1.0000 0.72160  0.36060  0.30420  Biso   1.000  C
  C104     1.0000 0.27840  0.36060  0.19580  Biso   1.000  C
  H81      1.0000 0.30870  0.61290  0.73030  Biso   1.000  H
  H82      1.0000 0.69130  0.61290  0.76970  Biso   1.000  H
  H83      1.0000 0.69130  0.38710  0.26970  Biso   1.000  H
  H84      1.0000 0.30870  0.38710  0.23030  Biso   1.000  H
  C105     1.0000 0.30760  0.66910  0.44130  Biso   1.000  C
  C106     1.0000 0.69240  0.66910  0.05870  Biso   1.000  C
  C107     1.0000 0.69240  0.33090  0.55870  Biso   1.000  C
  C108     1.0000 0.30760  0.33090  0.94130  Biso   1.000  C
  H85      1.0000 0.34460  0.67490  0.43390  Biso   1.000  H
  H86      1.0000 0.65540  0.67490  0.06610  Biso   1.000  H
  H87      1.0000 0.65540  0.32510  0.56610  Biso   1.000  H
  H88      1.0000 0.34460  0.32510  0.93390  Biso   1.000  H
  C109     1.0000 0.30350  0.67490  0.50360  Biso   1.000  C
  C110     1.0000 0.69650  0.67490  0.99640  Biso   1.000  C
  C111     1.0000 0.69650  0.32510  0.49640  Biso   1.000  C
  C112     1.0000 0.30350  0.32510  0.00360  Biso   1.000  C
  H89      1.0000 0.33730  0.68450  0.53700  Biso   1.000  H
  H90      1.0000 0.66270  0.68450  0.96300  Biso   1.000  H
  H91      1.0000 0.66270  0.31550  0.46300  Biso   1.000  H
  H92      1.0000 0.33730  0.31550  0.03700  Biso   1.000  H
  C113     1.0000 0.24885  0.66650  0.51640  Biso   1.000  C
  C114     1.0000 0.75115  0.66650  0.98360  Biso   1.000  C
  C115     1.0000 0.75115  0.33350  0.48360  Biso   1.000  C
  C116     1.0000 0.24885  0.33350  0.01640  Biso   1.000  C
  C117     1.0000 0.20070  0.65260  0.46460  Biso   1.000  C
  C118     1.0000 0.79930  0.65260  0.03540  Biso   1.000  C
  C119     1.0000 0.79930  0.34740  0.53540  Biso   1.000  C
  C120     1.0000 0.20070  0.34740  0.96460  Biso   1.000  C
  H93      1.0000 0.16330  0.64600  0.47090  Biso   1.000  H
  H94      1.0000 0.83670  0.64600  0.02910  Biso   1.000  H
  H95      1.0000 0.83670  0.35400  0.52910  Biso   1.000  H
  H96      1.0000 0.16330  0.35400  0.97090  Biso   1.000  H
  C121     1.0000 0.20790  0.64850  0.40300  Biso   1.000  C
  C122     1.0000 0.79210  0.64850  0.09700  Biso   1.000  C
  C123     1.0000 0.79210  0.35150  0.59700  Biso   1.000  C
  C124     1.0000 0.20790  0.35150  0.90300  Biso   1.000  C
  H97      1.0000 0.17480  0.64050  0.36860  Biso   1.000  H
  H98      1.0000 0.82520  0.64050  0.13140  Biso   1.000  H
  H99      1.0000 0.82520  0.35950  0.63140  Biso   1.000  H
  H100     1.0000 0.17480  0.35950  0.86860  Biso   1.000  H
  C125     1.0000 0.17690  0.72030  0.90420  Biso   1.000  C
  C126     1.0000 0.82310  0.72030  0.59580  Biso   1.000  C
  C127     1.0000 0.82310  0.27970  0.09580  Biso   1.000  C
  C128     1.0000 0.17690  0.27970  0.40420  Biso   1.000  C
  H101     1.0000 0.14080  0.73930  0.87600  Biso   1.000  H
  H102     1.0000 0.85920  0.73930  0.62400  Biso   1.000  H
  H103     1.0000 0.85920  0.26070  0.12400  Biso   1.000  H
  H104     1.0000 0.14080  0.26070  0.37600  Biso   1.000  H
  C129     1.0000 0.18157  0.72070  0.96930  Biso   1.000  C
  C130     1.0000 0.81843  0.72070  0.53070  Biso   1.000  C
  C131     1.0000 0.81843  0.27930  0.03070  Biso   1.000  C
  C132     1.0000 0.18157  0.27930  0.46930  Biso   1.000  C
  H105     1.0000 0.14880  0.73870  0.98400  Biso   1.000  H
  H106     1.0000 0.85120  0.73870  0.51600  Biso   1.000  H
  H107     1.0000 0.85120  0.26130  0.01600  Biso   1.000  H
  H108     1.0000 0.14880  0.26130  0.48400  Biso   1.000  H
  C133     1.0000 0.23509  0.69450  0.01270  Biso   1.000  C
  C134     1.0000 0.76491  0.69450  0.48730  Biso   1.000  C
  C135     1.0000 0.76491  0.30550  0.98730  Biso   1.000  C
  C136     1.0000 0.23509  0.30550  0.51270  Biso   1.000  C
  C137     1.0000 0.28241  0.66920  0.98750  Biso   1.000  C
  C138     1.0000 0.71759  0.66920  0.51250  Biso   1.000  C
  C139     1.0000 0.71759  0.33080  0.01250  Biso   1.000  C
  C140     1.0000 0.28241  0.33080  0.48750  Biso   1.000  C
  H109     1.0000 0.31930  0.65250  0.01460  Biso   1.000  H
  H110     1.0000 0.68070  0.65250  0.48540  Biso   1.000  H
  H111     1.0000 0.68070  0.34750  0.98540  Biso   1.000  H
  H112     1.0000 0.31930  0.34750  0.51460  Biso   1.000  H
  C141     1.0000 0.27440  0.66910  0.92200  Biso   1.000  C
  C142     1.0000 0.72560  0.66910  0.57800  Biso   1.000  C
  C143     1.0000 0.72560  0.33090  0.07800  Biso   1.000  C
  C144     1.0000 0.27440  0.33090  0.42200  Biso   1.000  C
  H113     1.0000 0.30660  0.65130  0.90620  Biso   1.000  H
  H114     1.0000 0.69340  0.65130  0.59380  Biso   1.000  H
  H115     1.0000 0.69340  0.34870  0.09380  Biso   1.000  H
  H116     1.0000 0.30660  0.34870  0.40620  Biso   1.000  H
  C145     1.0000 0.30150  0.69530  0.19040  Biso   1.000  C
  C146     1.0000 0.69850  0.69530  0.30960  Biso   1.000  C
  C147     1.0000 0.69850  0.30470  0.80960  Biso   1.000  C
  C148     1.0000 0.30150  0.30470  0.69040  Biso   1.000  C
  H117     1.0000 0.33810  0.71010  0.21850  Biso   1.000  H
  H118     1.0000 0.66190  0.71010  0.28150  Biso   1.000  H
  H119     1.0000 0.66190  0.28990  0.78150  Biso   1.000  H
  H120     1.0000 0.33810  0.28990  0.71850  Biso   1.000  H
  C149     1.0000 0.29525  0.70980  0.12620  Biso   1.000  C
  C150     1.0000 0.70475  0.70980  0.37380  Biso   1.000  C
  C151     1.0000 0.70475  0.29020  0.87380  Biso   1.000  C
  C152     1.0000 0.29525  0.29020  0.62620  Biso   1.000  C
  H121     1.0000 0.32740  0.73470  0.11180  Biso   1.000  H
  H122     1.0000 0.67260  0.73470  0.38820  Biso   1.000  H
  H123     1.0000 0.67260  0.26530  0.88820  Biso   1.000  H
  H124     1.0000 0.32740  0.26530  0.61180  Biso   1.000  H
  C153     1.0000 0.24178  0.68810  0.08247  Biso   1.000  C
  C154     1.0000 0.75822  0.68810  0.41753  Biso   1.000  C
  C155     1.0000 0.75822  0.31190  0.91753  Biso   1.000  C
  C156     1.0000 0.24178  0.31190  0.58247  Biso   1.000  C
  C157     1.0000 0.19493  0.65350  0.10770  Biso   1.000  C
  C158     1.0000 0.80507  0.65350  0.39230  Biso   1.000  C
  C159     1.0000 0.80507  0.34650  0.89230  Biso   1.000  C
  C160     1.0000 0.19493  0.34650  0.60770  Biso   1.000  C
  H125     1.0000 0.15790  0.63830  0.08060  Biso   1.000  H
  H126     1.0000 0.84210  0.63830  0.41940  Biso   1.000  H
  H127     1.0000 0.84210  0.36170  0.91940  Biso   1.000  H
  H128     1.0000 0.15790  0.36170  0.58060  Biso   1.000  H
  C161     1.0000 0.20430  0.64230  0.17280  Biso   1.000  C
  C162     1.0000 0.79570  0.64230  0.32720  Biso   1.000  C
  C163     1.0000 0.79570  0.35770  0.82720  Biso   1.000  C
  C164     1.0000 0.20430  0.35770  0.67280  Biso   1.000  C
  H129     1.0000 0.17240  0.62110  0.18850  Biso   1.000  H
  H130     1.0000 0.82760  0.62110  0.31150  Biso   1.000  H
  H131     1.0000 0.82760  0.37890  0.81150  Biso   1.000  H
  H132     1.0000 0.17240  0.37890  0.68850  Biso   1.000  H
  C165     1.0000 0.64620  0.98090  0.48290  Biso   1.000  C
  C166     1.0000 0.35380  0.98090  0.01710  Biso   1.000  C
  C167     1.0000 0.35380  0.01910  0.51710  Biso   1.000  C
  C168     1.0000 0.64620  0.01910  0.98290  Biso   1.000  C
  H133     1.0000 0.61140  0.96950  0.45120  Biso   1.000  H
  H134     1.0000 0.38860  0.96950  0.04880  Biso   1.000  H
  H135     1.0000 0.38860  0.03050  0.54880  Biso   1.000  H
  H136     1.0000 0.61140  0.03050  0.95120  Biso   1.000  H
  C169     1.0000 0.64480  0.96860  0.54570  Biso   1.000  C
  C170     1.0000 0.35520  0.96860  0.95430  Biso   1.000  C
  C171     1.0000 0.35520  0.03140  0.45430  Biso   1.000  C
  C172     1.0000 0.64480  0.03140  0.04570  Biso   1.000  C
  H137     1.0000 0.60950  0.95080  0.55560  Biso   1.000  H
  H138     1.0000 0.39050  0.95080  0.94440  Biso   1.000  H
  H139     1.0000 0.39050  0.04920  0.44440  Biso   1.000  H
  H140     1.0000 0.60950  0.04920  0.05560  Biso   1.000  H
  C173     1.0000 0.69589  0.98280  0.59410  Biso   1.000  C
  C174     1.0000 0.30411  0.98280  0.90590  Biso   1.000  C
  C175     1.0000 0.30411  0.01720  0.40590  Biso   1.000  C
  C176     1.0000 0.69589  0.01720  0.09410  Biso   1.000  C
  C177     1.0000 0.74680  0.00820  0.57570  Biso   1.000  C
  C178     1.0000 0.25320  0.00820  0.92430  Biso   1.000  C
  C179     1.0000 0.25320  0.99180  0.42430  Biso   1.000  C
  C180     1.0000 0.74680  0.99180  0.07570  Biso   1.000  C
  H141     1.0000 0.78230  0.01780  0.60660  Biso   1.000  H
  H142     1.0000 0.21770  0.01780  0.89340  Biso   1.000  H
  H143     1.0000 0.21770  0.98220  0.39340  Biso   1.000  H
  H144     1.0000 0.78230  0.98220  0.10660  Biso   1.000  H
  C181     1.0000 0.74490  0.01930  0.51210  Biso   1.000  C
  C182     1.0000 0.25510  0.01930  0.98790  Biso   1.000  C
  C183     1.0000 0.25510  0.98070  0.48790  Biso   1.000  C
  C184     1.0000 0.74490  0.98070  0.01210  Biso   1.000  C
  H145     1.0000 0.77980  0.03500  0.50110  Biso   1.000  H
  H146     1.0000 0.22020  0.03500  0.99890  Biso   1.000  H
  H147     1.0000 0.22020  0.96500  0.49890  Biso   1.000  H
  H148     1.0000 0.77980  0.96500  0.00110  Biso   1.000  H
  C185     1.0000 0.65030  0.90120  0.74330  Biso   1.000  C
  C186     1.0000 0.34970  0.90120  0.75670  Biso   1.000  C
  C187     1.0000 0.34970  0.09880  0.25670  Biso   1.000  C
  C188     1.0000 0.65030  0.09880  0.24330  Biso   1.000  C
  H149     1.0000 0.61930  0.85890  0.75370  Biso   1.000  H
  H150     1.0000 0.38070  0.85890  0.74630  Biso   1.000  H
  H151     1.0000 0.38070  0.14110  0.24630  Biso   1.000  H
  H152     1.0000 0.61930  0.14110  0.25370  Biso   1.000  H
  C189     1.0000 0.65110  0.90700  0.68040  Biso   1.000  C
  C190     1.0000 0.34890  0.90700  0.81960  Biso   1.000  C
  C191     1.0000 0.34890  0.09300  0.31960  Biso   1.000  C
  C192     1.0000 0.65110  0.09300  0.18040  Biso   1.000  C
  H153     1.0000 0.62150  0.86710  0.64950  Biso   1.000  H
  H154     1.0000 0.37850  0.86710  0.85050  Biso   1.000  H
  H155     1.0000 0.37850  0.13290  0.35050  Biso   1.000  H
  H156     1.0000 0.62150  0.13290  0.14950  Biso   1.000  H
  C193     1.0000 0.69526  0.97130  0.66250  Biso   1.000  C
  C194     1.0000 0.30474  0.97130  0.83750  Biso   1.000  C
  C195     1.0000 0.30474  0.02870  0.33750  Biso   1.000  C
  C196     1.0000 0.69526  0.02870  0.16250  Biso   1.000  C
  C197     1.0000 0.73910  0.02360  0.71140  Biso   1.000  C
  C198     1.0000 0.26090  0.02360  0.78860  Biso   1.000  C
  C199     1.0000 0.26090  0.97640  0.28860  Biso   1.000  C
  C200     1.0000 0.73910  0.97640  0.21140  Biso   1.000  C
  H157     1.0000 0.77060  0.06590  0.70220  Biso   1.000  H
  H158     1.0000 0.22940  0.06590  0.79780  Biso   1.000  H
  H159     1.0000 0.22940  0.93410  0.29780  Biso   1.000  H
  H160     1.0000 0.77060  0.93410  0.20220  Biso   1.000  H
  C201     1.0000 0.73580  0.01280  0.77350  Biso   1.000  C
  C202     1.0000 0.26420  0.01280  0.72650  Biso   1.000  C
  C203     1.0000 0.26420  0.98720  0.22650  Biso   1.000  C
  C204     1.0000 0.73580  0.98720  0.27350  Biso   1.000  C
  H161     1.0000 0.76580  0.04860  0.80570  Biso   1.000  H
  H162     1.0000 0.23420  0.04860  0.69430  Biso   1.000  H
  H163     1.0000 0.23420  0.95140  0.19430  Biso   1.000  H
  H164     1.0000 0.76580  0.95140  0.30570  Biso   1.000  H
