data_image0
_cell_length_a       23.657
_cell_length_b       10.5149
_cell_length_c       21.695
_cell_angle_alpha    90
_cell_angle_beta     105.124
_cell_angle_gamma    90

_symmetry_space_group_name_H-M    "P 1"
_symmetry_int_tables_number       1

loop_
  _symmetry_equiv_pos_as_xyz
  'x, y, z'

loop_
  _atom_site_label
  _atom_site_occupancy
  _atom_site_fract_x
  _atom_site_fract_y
  _atom_site_fract_z
  _atom_site_thermal_displace_type
  _atom_site_B_iso_or_equiv
  _atom_site_type_symbol
  Sm1      1.0000 0.00000  0.77530  0.75000  Biso   1.000  Sm
  Sm2      1.0000 0.00000  0.22470  0.25000  Biso   1.000  Sm
  Sm3      1.0000 0.50000  0.47392  0.25000  Biso   1.000  Sm
  Sm4      1.0000 0.50000  0.52608  0.75000  Biso   1.000  Sm
  Cu1      1.0000 0.21259  0.66760  0.78987  Biso   1.000  Cu
  Cu2      1.0000 0.78741  0.66760  0.71013  Biso   1.000  Cu
  Cu3      1.0000 0.78741  0.33240  0.21013  Biso   1.000  Cu
  Cu4      1.0000 0.21259  0.33240  0.28987  Biso   1.000  Cu
  Cu5      1.0000 0.26864  0.63620  0.30502  Biso   1.000  Cu
  Cu6      1.0000 0.73136  0.63620  0.19498  Biso   1.000  Cu
  Cu7      1.0000 0.73136  0.36380  0.69498  Biso   1.000  Cu
  Cu8      1.0000 0.26864  0.36380  0.80502  Biso   1.000  Cu
  Cu9      1.0000 0.68660  0.05044  0.38114  Biso   1.000  Cu
  Cu10     1.0000 0.31340  0.05044  0.11886  Biso   1.000  Cu
  Cu11     1.0000 0.31340  0.94956  0.61886  Biso   1.000  Cu
  Cu12     1.0000 0.68660  0.94956  0.88114  Biso   1.000  Cu
  N1       1.0000 0.04760  0.90220  0.67820  Biso   1.000  N
  N2       1.0000 0.95240  0.90220  0.82180  Biso   1.000  N
  N3       1.0000 0.95240  0.09780  0.32180  Biso   1.000  N
  N4       1.0000 0.04760  0.09780  0.17820  Biso   1.000  N
  N5       1.0000 0.00000  0.53480  0.75000  Biso   1.000  N
  N6       1.0000 0.00000  0.46520  0.25000  Biso   1.000  N
  N7       1.0000 0.48210  0.36410  0.34930  Biso   1.000  N
  N8       1.0000 0.51790  0.36410  0.15070  Biso   1.000  N
  N9       1.0000 0.51790  0.63590  0.65070  Biso   1.000  N
  N10      1.0000 0.48210  0.63590  0.84930  Biso   1.000  N
  N11      1.0000 0.50000  0.71420  0.25000  Biso   1.000  N
  N12      1.0000 0.50000  0.28580  0.75000  Biso   1.000  N
  N13      1.0000 0.22730  0.68050  0.70630  Biso   1.000  N
  N14      1.0000 0.77270  0.68050  0.79370  Biso   1.000  N
  N15      1.0000 0.77270  0.31950  0.29370  Biso   1.000  N
  N16      1.0000 0.22730  0.31950  0.20630  Biso   1.000  N
  N17      1.0000 0.25860  0.65680  0.39040  Biso   1.000  N
  N18      1.0000 0.74140  0.65680  0.10960  Biso   1.000  N
  N19      1.0000 0.74140  0.34320  0.60960  Biso   1.000  N
  N20      1.0000 0.25860  0.34320  0.89040  Biso   1.000  N
  N21      1.0000 0.22180  0.69200  0.87970  Biso   1.000  N
  N22      1.0000 0.77820  0.69200  0.62030  Biso   1.000  N
  N23      1.0000 0.77820  0.30800  0.12030  Biso   1.000  N
  N24      1.0000 0.22180  0.30800  0.37970  Biso   1.000  N
  N25      1.0000 0.25740  0.65820  0.21630  Biso   1.000  N
  N26      1.0000 0.74260  0.65820  0.28370  Biso   1.000  N
  N27      1.0000 0.74260  0.34180  0.78370  Biso   1.000  N
  N28      1.0000 0.25740  0.34180  0.71630  Biso   1.000  N
  N29      1.0000 0.69590  0.01020  0.46930  Biso   1.000  N
  N30      1.0000 0.30410  0.01020  0.03070  Biso   1.000  N
  N31      1.0000 0.30410  0.98980  0.53070  Biso   1.000  N
  N32      1.0000 0.69590  0.98980  0.96930  Biso   1.000  N
  N33      1.0000 0.69110  0.95340  0.79580  Biso   1.000  N
  N34      1.0000 0.30890  0.95340  0.70420  Biso   1.000  N
  N35      1.0000 0.30890  0.04660  0.20420  Biso   1.000  N
  N36      1.0000 0.69110  0.04660  0.29580  Biso   1.000  N
  O1       1.0000 0.07010  0.93720  0.80170  Biso   1.000  O
  O2       1.0000 0.92990  0.93720  0.69830  Biso   1.000  O
  O3       1.0000 0.92990  0.06280  0.19830  Biso   1.000  O
  O4       1.0000 0.07010  0.06280  0.30170  Biso   1.000  O
  O5       1.0000 0.13510  0.09100  0.80010  Biso   1.000  O
  O6       1.0000 0.86490  0.09100  0.69990  Biso   1.000  O
  O7       1.0000 0.86490  0.90900  0.19990  Biso   1.000  O
  O8       1.0000 0.13510  0.90900  0.30010  Biso   1.000  O
  O9       1.0000 0.97710  0.71240  0.63620  Biso   1.000  O
  O10      1.0000 0.02290  0.71240  0.86380  Biso   1.000  O
  O11      1.0000 0.02290  0.28760  0.36380  Biso   1.000  O
  O12      1.0000 0.97710  0.28760  0.13620  Biso   1.000  O
  O13      1.0000 0.97660  0.74530  0.53440  Biso   1.000  O
  O14      1.0000 0.02340  0.74530  0.96560  Biso   1.000  O
  O15      1.0000 0.02340  0.25470  0.46560  Biso   1.000  O
  O16      1.0000 0.97660  0.25470  0.03440  Biso   1.000  O
  O17      1.0000 0.09470  0.67000  0.75840  Biso   1.000  O
  O18      1.0000 0.90530  0.67000  0.74160  Biso   1.000  O
  O19      1.0000 0.90530  0.33000  0.24160  Biso   1.000  O
  O20      1.0000 0.09470  0.33000  0.25840  Biso   1.000  O
  O21      1.0000 0.15260  0.49810  0.77560  Biso   1.000  O
  O22      1.0000 0.84740  0.49810  0.72440  Biso   1.000  O
  O23      1.0000 0.84740  0.50190  0.22440  Biso   1.000  O
  O24      1.0000 0.15260  0.50190  0.27560  Biso   1.000  O
  O25      1.0000 0.41080  0.53770  0.28180  Biso   1.000  O
  O26      1.0000 0.58920  0.53770  0.21820  Biso   1.000  O
  O27      1.0000 0.58920  0.46230  0.71820  Biso   1.000  O
  O28      1.0000 0.41080  0.46230  0.78180  Biso   1.000  O
  O29      1.0000 0.34940  0.51540  0.34410  Biso   1.000  O
  O30      1.0000 0.65060  0.51540  0.15590  Biso   1.000  O
  O31      1.0000 0.65060  0.48460  0.65590  Biso   1.000  O
  O32      1.0000 0.34940  0.48460  0.84410  Biso   1.000  O
  O33      1.0000 0.56630  0.29950  0.29700  Biso   1.000  O
  O34      1.0000 0.43370  0.29950  0.20300  Biso   1.000  O
  O35      1.0000 0.43370  0.70050  0.70300  Biso   1.000  O
  O36      1.0000 0.56630  0.70050  0.79700  Biso   1.000  O
  O37      1.0000 0.60370  0.16290  0.37690  Biso   1.000  O
  O38      1.0000 0.39630  0.16290  0.12310  Biso   1.000  O
  O39      1.0000 0.39630  0.83710  0.62310  Biso   1.000  O
  O40      1.0000 0.60370  0.83710  0.87690  Biso   1.000  O
  O41      1.0000 0.44510  0.57700  0.15150  Biso   1.000  O
  O42      1.0000 0.55490  0.57700  0.34850  Biso   1.000  O
  O43      1.0000 0.55490  0.42300  0.84850  Biso   1.000  O
  O44      1.0000 0.44510  0.42300  0.65150  Biso   1.000  O
  O45      1.0000 0.42270  0.74800  0.08890  Biso   1.000  O
  O46      1.0000 0.57730  0.74800  0.41110  Biso   1.000  O
  O47      1.0000 0.57730  0.25200  0.91110  Biso   1.000  O
  O48      1.0000 0.42270  0.25200  0.58890  Biso   1.000  O
  O49      1.0000 0.92090  0.49200  0.99660  Biso   1.000  O
  O50      1.0000 0.07910  0.49200  0.50340  Biso   1.000  O
  O51      1.0000 0.07910  0.50800  0.00340  Biso   1.000  O
  O52      1.0000 0.92090  0.50800  0.49660  Biso   1.000  O
  H1       1.0000 0.93600  0.42280  0.01340  Biso   1.000  H
  H2       1.0000 0.06400  0.42280  0.48660  Biso   1.000  H
  H3       1.0000 0.06400  0.57720  0.98660  Biso   1.000  H
  H4       1.0000 0.93600  0.57720  0.51340  Biso   1.000  H
  H5       1.0000 0.92690  0.49790  0.95980  Biso   1.000  H
  H6       1.0000 0.07310  0.49790  0.54020  Biso   1.000  H
  H7       1.0000 0.07310  0.50210  0.04020  Biso   1.000  H
  H8       1.0000 0.92690  0.50210  0.45980  Biso   1.000  H
  O53      1.0000 0.94910  0.52530  0.38060  Biso   1.000  O
  O54      1.0000 0.05090  0.52530  0.11940  Biso   1.000  O
  O55      1.0000 0.05090  0.47470  0.61940  Biso   1.000  O
  O56      1.0000 0.94910  0.47470  0.88060  Biso   1.000  O
  H9       1.0000 0.96840  0.45950  0.37580  Biso   1.000  H
  H10      1.0000 0.03160  0.45950  0.12420  Biso   1.000  H
  H11      1.0000 0.03160  0.54050  0.62420  Biso   1.000  H
  H12      1.0000 0.96840  0.54050  0.87580  Biso   1.000  H
  H13      1.0000 0.97330  0.58270  0.39820  Biso   1.000  H
  H14      1.0000 0.02670  0.58270  0.10180  Biso   1.000  H
  H15      1.0000 0.02670  0.41730  0.60180  Biso   1.000  H
  H16      1.0000 0.97330  0.41730  0.89820  Biso   1.000  H
  O57      1.0000 0.89390  0.95550  0.06370  Biso   1.000  O
  O58      1.0000 0.10610  0.95550  0.43630  Biso   1.000  O
  O59      1.0000 0.10610  0.04450  0.93630  Biso   1.000  O
  O60      1.0000 0.89390  0.04450  0.56370  Biso   1.000  O
  H17      1.0000 0.90400  0.98520  0.10150  Biso   1.000  H
  H18      1.0000 0.09600  0.98520  0.39850  Biso   1.000  H
  H19      1.0000 0.09600  0.01480  0.89850  Biso   1.000  H
  H20      1.0000 0.90400  0.01480  0.60150  Biso   1.000  H
  H21      1.0000 0.91390  0.88900  0.06240  Biso   1.000  H
  H22      1.0000 0.08610  0.88900  0.43760  Biso   1.000  H
  H23      1.0000 0.08610  0.11100  0.93760  Biso   1.000  H
  H24      1.0000 0.91390  0.11100  0.56240  Biso   1.000  H
  O61      1.0000 0.96420  0.72650  0.05960  Biso   1.000  O
  O62      1.0000 0.03580  0.72650  0.44040  Biso   1.000  O
  O63      1.0000 0.03580  0.27350  0.94040  Biso   1.000  O
  O64      1.0000 0.96420  0.27350  0.55960  Biso   1.000  O
  H25      1.0000 0.98500  0.74720  0.03460  Biso   1.000  H
  H26      1.0000 0.01500  0.74720  0.46540  Biso   1.000  H
  H27      1.0000 0.01500  0.25280  0.96540  Biso   1.000  H
  H28      1.0000 0.98500  0.25280  0.53460  Biso   1.000  H
  H29      1.0000 0.94800  0.65570  0.04710  Biso   1.000  H
  H30      1.0000 0.05200  0.65570  0.45290  Biso   1.000  H
  H31      1.0000 0.05200  0.34430  0.95290  Biso   1.000  H
  H32      1.0000 0.94800  0.34430  0.54710  Biso   1.000  H
  C1       1.0000 0.09820  0.01180  0.77410  Biso   1.000  C
  C2       1.0000 0.90180  0.01180  0.72590  Biso   1.000  C
  C3       1.0000 0.90180  0.98820  0.22590  Biso   1.000  C
  C4       1.0000 0.09820  0.98820  0.27410  Biso   1.000  C
  C5       1.0000 0.08470  0.99590  0.70160  Biso   1.000  C
  C6       1.0000 0.91530  0.99590  0.79840  Biso   1.000  C
  C7       1.0000 0.91530  0.00410  0.29840  Biso   1.000  C
  C8       1.0000 0.08470  0.00410  0.20160  Biso   1.000  C
  C9       1.0000 0.10710  0.07530  0.66330  Biso   1.000  C
  C10      1.0000 0.89290  0.07530  0.83670  Biso   1.000  C
  C11      1.0000 0.89290  0.92470  0.33670  Biso   1.000  C
  C12      1.0000 0.10710  0.92470  0.16330  Biso   1.000  C
  H33      1.0000 0.13150  0.14240  0.68110  Biso   1.000  H
  H34      1.0000 0.86850  0.14240  0.81890  Biso   1.000  H
  H35      1.0000 0.86850  0.85760  0.31890  Biso   1.000  H
  H36      1.0000 0.13150  0.85760  0.18110  Biso   1.000  H
  C13      1.0000 0.09290  0.05430  0.59860  Biso   1.000  C
  C14      1.0000 0.90710  0.05430  0.90140  Biso   1.000  C
  C15      1.0000 0.90710  0.94570  0.40140  Biso   1.000  C
  C16      1.0000 0.09290  0.94570  0.09860  Biso   1.000  C
  H37      1.0000 0.10840  0.10600  0.57220  Biso   1.000  H
  H38      1.0000 0.89160  0.10600  0.92780  Biso   1.000  H
  H39      1.0000 0.89160  0.89400  0.42780  Biso   1.000  H
  H40      1.0000 0.10840  0.89400  0.07220  Biso   1.000  H
  C17      1.0000 0.05620  0.95710  0.57350  Biso   1.000  C
  C18      1.0000 0.94380  0.95710  0.92650  Biso   1.000  C
  C19      1.0000 0.94380  0.04290  0.42650  Biso   1.000  C
  C20      1.0000 0.05620  0.04290  0.07350  Biso   1.000  C
  H41      1.0000 0.04630  0.94090  0.52980  Biso   1.000  H
  H42      1.0000 0.95370  0.94090  0.97020  Biso   1.000  H
  H43      1.0000 0.95370  0.05910  0.47020  Biso   1.000  H
  H44      1.0000 0.04630  0.05910  0.02980  Biso   1.000  H
  C21      1.0000 0.03360  0.88160  0.61480  Biso   1.000  C
  C22      1.0000 0.96640  0.88160  0.88520  Biso   1.000  C
  C23      1.0000 0.96640  0.11840  0.38520  Biso   1.000  C
  C24      1.0000 0.03360  0.11840  0.11480  Biso   1.000  C
  C25      1.0000 0.99130  0.77230  0.59430  Biso   1.000  C
  C26      1.0000 0.00870  0.77230  0.90570  Biso   1.000  C
  C27      1.0000 0.00870  0.22770  0.40570  Biso   1.000  C
  C28      1.0000 0.99130  0.22770  0.09430  Biso   1.000  C
  C29      1.0000 0.10290  0.55220  0.76480  Biso   1.000  C
  C30      1.0000 0.89710  0.55220  0.73520  Biso   1.000  C
  C31      1.0000 0.89710  0.44780  0.23520  Biso   1.000  C
  C32      1.0000 0.10290  0.44780  0.26480  Biso   1.000  C
  C33      1.0000 0.05040  0.46970  0.75850  Biso   1.000  C
  C34      1.0000 0.94960  0.46970  0.74150  Biso   1.000  C
  C35      1.0000 0.94960  0.53030  0.24150  Biso   1.000  C
  C36      1.0000 0.05040  0.53030  0.25850  Biso   1.000  C
  C37      1.0000 0.05180  0.33810  0.75890  Biso   1.000  C
  C38      1.0000 0.94820  0.33810  0.74110  Biso   1.000  C
  C39      1.0000 0.94820  0.66190  0.24110  Biso   1.000  C
  C40      1.0000 0.05180  0.66190  0.25890  Biso   1.000  C
  H45      1.0000 0.08730  0.29550  0.76520  Biso   1.000  H
  H46      1.0000 0.91270  0.29550  0.73480  Biso   1.000  H
  H47      1.0000 0.91270  0.70450  0.23480  Biso   1.000  H
  H48      1.0000 0.08730  0.70450  0.26520  Biso   1.000  H
  C41      1.0000 0.00000  0.27000  0.75000  Biso   1.000  C
  C42      1.0000 0.00000  0.73000  0.25000  Biso   1.000  C
  H49      1.0000 0.00000  0.18130  0.75000  Biso   1.000  H
  H50      1.0000 0.00000  0.81870  0.25000  Biso   1.000  H
  C43      1.0000 0.39620  0.49580  0.32980  Biso   1.000  C
  C44      1.0000 0.60380  0.49580  0.17020  Biso   1.000  C
  C45      1.0000 0.60380  0.50420  0.67020  Biso   1.000  C
  C46      1.0000 0.39620  0.50420  0.82980  Biso   1.000  C
  C47      1.0000 0.43810  0.40710  0.37180  Biso   1.000  C
  C48      1.0000 0.56190  0.40710  0.12820  Biso   1.000  C
  C49      1.0000 0.56190  0.59290  0.62820  Biso   1.000  C
  C50      1.0000 0.43810  0.59290  0.87180  Biso   1.000  C
  C51      1.0000 0.43750  0.37600  0.43560  Biso   1.000  C
  C52      1.0000 0.56250  0.37600  0.06440  Biso   1.000  C
  C53      1.0000 0.56250  0.62400  0.56440  Biso   1.000  C
  C54      1.0000 0.43750  0.62400  0.93560  Biso   1.000  C
  H51      1.0000 0.40870  0.40900  0.45320  Biso   1.000  H
  H52      1.0000 0.59130  0.40900  0.04680  Biso   1.000  H
  H53      1.0000 0.59130  0.59100  0.54680  Biso   1.000  H
  H54      1.0000 0.40870  0.59100  0.95320  Biso   1.000  H
  C55      1.0000 0.47970  0.29720  0.47050  Biso   1.000  C
  C56      1.0000 0.52030  0.29720  0.02950  Biso   1.000  C
  C57      1.0000 0.52030  0.70280  0.52950  Biso   1.000  C
  C58      1.0000 0.47970  0.70280  0.97050  Biso   1.000  C
  H55      1.0000 0.47940  0.27420  0.51180  Biso   1.000  H
  H56      1.0000 0.52060  0.27420  0.98820  Biso   1.000  H
  H57      1.0000 0.52060  0.72580  0.48820  Biso   1.000  H
  H58      1.0000 0.47940  0.72580  0.01180  Biso   1.000  H
  C59      1.0000 0.52270  0.25210  0.44410  Biso   1.000  C
  C60      1.0000 0.47730  0.25210  0.05590  Biso   1.000  C
  C61      1.0000 0.47730  0.74790  0.55590  Biso   1.000  C
  C62      1.0000 0.52270  0.74790  0.94410  Biso   1.000  C
  H59      1.0000 0.55190  0.19910  0.46770  Biso   1.000  H
  H60      1.0000 0.44810  0.19910  0.03230  Biso   1.000  H
  H61      1.0000 0.44810  0.80090  0.53230  Biso   1.000  H
  H62      1.0000 0.55190  0.80090  0.96770  Biso   1.000  H
  C63      1.0000 0.52240  0.28590  0.38240  Biso   1.000  C
  C64      1.0000 0.47760  0.28590  0.11760  Biso   1.000  C
  C65      1.0000 0.47760  0.71410  0.61760  Biso   1.000  C
  C66      1.0000 0.52240  0.71410  0.88240  Biso   1.000  C
  C67      1.0000 0.56910  0.24550  0.34930  Biso   1.000  C
  C68      1.0000 0.43090  0.24550  0.15070  Biso   1.000  C
  C69      1.0000 0.43090  0.75450  0.65070  Biso   1.000  C
  C70      1.0000 0.56910  0.75450  0.84930  Biso   1.000  C
  C71      1.0000 0.44460  0.69430  0.14040  Biso   1.000  C
  C72      1.0000 0.55540  0.69430  0.35960  Biso   1.000  C
  C73      1.0000 0.55540  0.30570  0.85960  Biso   1.000  C
  C74      1.0000 0.44460  0.30570  0.64040  Biso   1.000  C
  C75      1.0000 0.47370  0.77750  0.19770  Biso   1.000  C
  C76      1.0000 0.52630  0.77750  0.30230  Biso   1.000  C
  C77      1.0000 0.52630  0.22250  0.80230  Biso   1.000  C
  C78      1.0000 0.47370  0.22250  0.69770  Biso   1.000  C
  C79      1.0000 0.47120  0.90750  0.19640  Biso   1.000  C
  C80      1.0000 0.52880  0.90750  0.30360  Biso   1.000  C
  C81      1.0000 0.52880  0.09250  0.80360  Biso   1.000  C
  C82      1.0000 0.47120  0.09250  0.69640  Biso   1.000  C
  H63      1.0000 0.45030  0.94970  0.15990  Biso   1.000  H
  H64      1.0000 0.54970  0.94970  0.34010  Biso   1.000  H
  H65      1.0000 0.54970  0.05030  0.84010  Biso   1.000  H
  H66      1.0000 0.45030  0.05030  0.65990  Biso   1.000  H
  C83      1.0000 0.50000  0.97500  0.25000  Biso   1.000  C
  C84      1.0000 0.50000  0.02500  0.75000  Biso   1.000  C
  H67      1.0000 0.50000  0.06380  0.25000  Biso   1.000  H
  H68      1.0000 0.50000  0.93620  0.75000  Biso   1.000  H
  C85      1.0000 0.18320  0.71930  0.65510  Biso   1.000  C
  C86      1.0000 0.81680  0.71930  0.84490  Biso   1.000  C
  C87      1.0000 0.81680  0.28070  0.34490  Biso   1.000  C
  C88      1.0000 0.18320  0.28070  0.15510  Biso   1.000  C
  H69      1.0000 0.14850  0.74890  0.66250  Biso   1.000  H
  H70      1.0000 0.85150  0.74890  0.83750  Biso   1.000  H
  H71      1.0000 0.85150  0.25110  0.33750  Biso   1.000  H
  H72      1.0000 0.14850  0.25110  0.16250  Biso   1.000  H
  C89      1.0000 0.18810  0.71630  0.59370  Biso   1.000  C
  C90      1.0000 0.81190  0.71630  0.90630  Biso   1.000  C
  C91      1.0000 0.81190  0.28370  0.40630  Biso   1.000  C
  C92      1.0000 0.18810  0.28370  0.09370  Biso   1.000  C
  H73      1.0000 0.15670  0.74250  0.56060  Biso   1.000  H
  H74      1.0000 0.84330  0.74250  0.93940  Biso   1.000  H
  H75      1.0000 0.84330  0.25750  0.43940  Biso   1.000  H
  H76      1.0000 0.15670  0.25750  0.06060  Biso   1.000  H
  C93      1.0000 0.23980  0.67410  0.58010  Biso   1.000  C
  C94      1.0000 0.76020  0.67410  0.91990  Biso   1.000  C
  C95      1.0000 0.76020  0.32590  0.41990  Biso   1.000  C
  C96      1.0000 0.23980  0.32590  0.08010  Biso   1.000  C
  C97      1.0000 0.28510  0.63660  0.63450  Biso   1.000  C
  C98      1.0000 0.71490  0.63660  0.86550  Biso   1.000  C
  C99      1.0000 0.71490  0.36340  0.36550  Biso   1.000  C
  C100     1.0000 0.28510  0.36340  0.13450  Biso   1.000  C
  H77      1.0000 0.32100  0.60850  0.62990  Biso   1.000  H
  H78      1.0000 0.67900  0.60850  0.87010  Biso   1.000  H
  H79      1.0000 0.67900  0.39150  0.37010  Biso   1.000  H
  H80      1.0000 0.32100  0.39150  0.12990  Biso   1.000  H
  C101     1.0000 0.27470  0.64250  0.69310  Biso   1.000  C
  C102     1.0000 0.72530  0.64250  0.80690  Biso   1.000  C
  C103     1.0000 0.72530  0.35750  0.30690  Biso   1.000  C
  C104     1.0000 0.27470  0.35750  0.19310  Biso   1.000  C
  H81      1.0000 0.30500  0.61640  0.72750  Biso   1.000  H
  H82      1.0000 0.69500  0.61640  0.77250  Biso   1.000  H
  H83      1.0000 0.69500  0.38360  0.27250  Biso   1.000  H
  H84      1.0000 0.30500  0.38360  0.22750  Biso   1.000  H
  C105     1.0000 0.30510  0.67000  0.44040  Biso   1.000  C
  C106     1.0000 0.69490  0.67000  0.05960  Biso   1.000  C
  C107     1.0000 0.69490  0.33000  0.55960  Biso   1.000  C
  C108     1.0000 0.30510  0.33000  0.94040  Biso   1.000  C
  H85      1.0000 0.34190  0.67700  0.43270  Biso   1.000  H
  H86      1.0000 0.65810  0.67700  0.06730  Biso   1.000  H
  H87      1.0000 0.65810  0.32300  0.56730  Biso   1.000  H
  H88      1.0000 0.34190  0.32300  0.93270  Biso   1.000  H
  C109     1.0000 0.30130  0.67370  0.50250  Biso   1.000  C
  C110     1.0000 0.69870  0.67370  0.99750  Biso   1.000  C
  C111     1.0000 0.69870  0.32630  0.49750  Biso   1.000  C
  C112     1.0000 0.30130  0.32630  0.00250  Biso   1.000  C
  H89      1.0000 0.33500  0.68070  0.53590  Biso   1.000  H
  H90      1.0000 0.66500  0.68070  0.96410  Biso   1.000  H
  H91      1.0000 0.66500  0.31930  0.46410  Biso   1.000  H
  H92      1.0000 0.33500  0.31930  0.03590  Biso   1.000  H
  C113     1.0000 0.24680  0.66680  0.51490  Biso   1.000  C
  C114     1.0000 0.75320  0.66680  0.98510  Biso   1.000  C
  C115     1.0000 0.75320  0.33320  0.48510  Biso   1.000  C
  C116     1.0000 0.24680  0.33320  0.01490  Biso   1.000  C
  C117     1.0000 0.19880  0.65300  0.46280  Biso   1.000  C
  C118     1.0000 0.80120  0.65300  0.03720  Biso   1.000  C
  C119     1.0000 0.80120  0.34700  0.53720  Biso   1.000  C
  C120     1.0000 0.19880  0.34700  0.96280  Biso   1.000  C
  H93      1.0000 0.16110  0.64560  0.46800  Biso   1.000  H
  H94      1.0000 0.83890  0.64560  0.03200  Biso   1.000  H
  H95      1.0000 0.83890  0.35440  0.53200  Biso   1.000  H
  H96      1.0000 0.16110  0.35440  0.96800  Biso   1.000  H
  C121     1.0000 0.20860  0.65080  0.40350  Biso   1.000  C
  C122     1.0000 0.79140  0.65080  0.09650  Biso   1.000  C
  C123     1.0000 0.79140  0.34920  0.59650  Biso   1.000  C
  C124     1.0000 0.20860  0.34920  0.90350  Biso   1.000  C
  H97      1.0000 0.17580  0.64420  0.36890  Biso   1.000  H
  H98      1.0000 0.82420  0.64420  0.13110  Biso   1.000  H
  H99      1.0000 0.82420  0.35580  0.63110  Biso   1.000  H
  H100     1.0000 0.17580  0.35580  0.86890  Biso   1.000  H
  C125     1.0000 0.17610  0.72130  0.90510  Biso   1.000  C
  C126     1.0000 0.82390  0.72130  0.59490  Biso   1.000  C
  C127     1.0000 0.82390  0.27870  0.09490  Biso   1.000  C
  C128     1.0000 0.17610  0.27870  0.40510  Biso   1.000  C
  H101     1.0000 0.14020  0.74290  0.87760  Biso   1.000  H
  H102     1.0000 0.85980  0.74290  0.62240  Biso   1.000  H
  H103     1.0000 0.85980  0.25710  0.12240  Biso   1.000  H
  H104     1.0000 0.14020  0.25710  0.37760  Biso   1.000  H
  C129     1.0000 0.18140  0.72010  0.96860  Biso   1.000  C
  C130     1.0000 0.81860  0.72010  0.53140  Biso   1.000  C
  C131     1.0000 0.81860  0.27990  0.03140  Biso   1.000  C
  C132     1.0000 0.18140  0.27990  0.46860  Biso   1.000  C
  H105     1.0000 0.14880  0.73710  0.98370  Biso   1.000  H
  H106     1.0000 0.85120  0.73710  0.51630  Biso   1.000  H
  H107     1.0000 0.85120  0.26290  0.01630  Biso   1.000  H
  H108     1.0000 0.14880  0.26290  0.48370  Biso   1.000  H
  C133     1.0000 0.23350  0.69430  0.01080  Biso   1.000  C
  C134     1.0000 0.76650  0.69430  0.48920  Biso   1.000  C
  C135     1.0000 0.76650  0.30570  0.98920  Biso   1.000  C
  C136     1.0000 0.23350  0.30570  0.51080  Biso   1.000  C
  C137     1.0000 0.28110  0.67060  0.98750  Biso   1.000  C
  C138     1.0000 0.71890  0.67060  0.51250  Biso   1.000  C
  C139     1.0000 0.71890  0.32940  0.01250  Biso   1.000  C
  C140     1.0000 0.28110  0.32940  0.48750  Biso   1.000  C
  H109     1.0000 0.31780  0.65510  0.01490  Biso   1.000  H
  H110     1.0000 0.68220  0.65510  0.48510  Biso   1.000  H
  H111     1.0000 0.68220  0.34490  0.98510  Biso   1.000  H
  H112     1.0000 0.31780  0.34490  0.51490  Biso   1.000  H
  C141     1.0000 0.27260  0.67050  0.92030  Biso   1.000  C
  C142     1.0000 0.72740  0.67050  0.57970  Biso   1.000  C
  C143     1.0000 0.72740  0.32950  0.07970  Biso   1.000  C
  C144     1.0000 0.27260  0.32950  0.42030  Biso   1.000  C
  H113     1.0000 0.30470  0.65430  0.90420  Biso   1.000  H
  H114     1.0000 0.69530  0.65430  0.59580  Biso   1.000  H
  H115     1.0000 0.69530  0.34570  0.09580  Biso   1.000  H
  H116     1.0000 0.30470  0.34570  0.40420  Biso   1.000  H
  C145     1.0000 0.30100  0.69420  0.19210  Biso   1.000  C
  C146     1.0000 0.69900  0.69420  0.30790  Biso   1.000  C
  C147     1.0000 0.69900  0.30580  0.80790  Biso   1.000  C
  C148     1.0000 0.30100  0.30580  0.69210  Biso   1.000  C
  H117     1.0000 0.33750  0.71010  0.21990  Biso   1.000  H
  H118     1.0000 0.66250  0.71010  0.28010  Biso   1.000  H
  H119     1.0000 0.66250  0.28990  0.78010  Biso   1.000  H
  H120     1.0000 0.33750  0.28990  0.71990  Biso   1.000  H
  C149     1.0000 0.29420  0.70920  0.12590  Biso   1.000  C
  C150     1.0000 0.70580  0.70920  0.37410  Biso   1.000  C
  C151     1.0000 0.70580  0.29080  0.87410  Biso   1.000  C
  C152     1.0000 0.29420  0.29080  0.62590  Biso   1.000  C
  H121     1.0000 0.32620  0.73460  0.11150  Biso   1.000  H
  H122     1.0000 0.67380  0.73460  0.38850  Biso   1.000  H
  H123     1.0000 0.67380  0.26540  0.88850  Biso   1.000  H
  H124     1.0000 0.32620  0.26540  0.61150  Biso   1.000  H
  C153     1.0000 0.24100  0.68700  0.08160  Biso   1.000  C
  C154     1.0000 0.75900  0.68700  0.41840  Biso   1.000  C
  C155     1.0000 0.75900  0.31300  0.91840  Biso   1.000  C
  C156     1.0000 0.24100  0.31300  0.58160  Biso   1.000  C
  C157     1.0000 0.19600  0.65490  0.10800  Biso   1.000  C
  C158     1.0000 0.80400  0.65490  0.39200  Biso   1.000  C
  C159     1.0000 0.80400  0.34510  0.89200  Biso   1.000  C
  C160     1.0000 0.19600  0.34510  0.60800  Biso   1.000  C
  H125     1.0000 0.15890  0.64110  0.08110  Biso   1.000  H
  H126     1.0000 0.84110  0.64110  0.41890  Biso   1.000  H
  H127     1.0000 0.84110  0.35890  0.91890  Biso   1.000  H
  H128     1.0000 0.15890  0.35890  0.58110  Biso   1.000  H
  C161     1.0000 0.20400  0.64300  0.17070  Biso   1.000  C
  C162     1.0000 0.79600  0.64300  0.32930  Biso   1.000  C
  C163     1.0000 0.79600  0.35700  0.82930  Biso   1.000  C
  C164     1.0000 0.20400  0.35700  0.67070  Biso   1.000  C
  H129     1.0000 0.17150  0.62290  0.18530  Biso   1.000  H
  H130     1.0000 0.82850  0.62290  0.31470  Biso   1.000  H
  H131     1.0000 0.82850  0.37710  0.81470  Biso   1.000  H
  H132     1.0000 0.17150  0.37710  0.68530  Biso   1.000  H
  C165     1.0000 0.64610  0.98570  0.48600  Biso   1.000  C
  C166     1.0000 0.35390  0.98570  0.01400  Biso   1.000  C
  C167     1.0000 0.35390  0.01430  0.51400  Biso   1.000  C
  C168     1.0000 0.64610  0.01430  0.98600  Biso   1.000  C
  H133     1.0000 0.61130  0.97710  0.45420  Biso   1.000  H
  H134     1.0000 0.38870  0.97710  0.04580  Biso   1.000  H
  H135     1.0000 0.38870  0.02290  0.54580  Biso   1.000  H
  H136     1.0000 0.61130  0.02290  0.95420  Biso   1.000  H
  C169     1.0000 0.64540  0.97280  0.54980  Biso   1.000  C
  C170     1.0000 0.35460  0.97280  0.95020  Biso   1.000  C
  C171     1.0000 0.35460  0.02720  0.45020  Biso   1.000  C
  C172     1.0000 0.64540  0.02720  0.04980  Biso   1.000  C
  H137     1.0000 0.61030  0.95530  0.55970  Biso   1.000  H
  H138     1.0000 0.38970  0.95530  0.94030  Biso   1.000  H
  H139     1.0000 0.38970  0.04470  0.44030  Biso   1.000  H
  H140     1.0000 0.61030  0.04470  0.05970  Biso   1.000  H
  C173     1.0000 0.69770  0.98620  0.59990  Biso   1.000  C
  C174     1.0000 0.30230  0.98620  0.90010  Biso   1.000  C
  C175     1.0000 0.30230  0.01380  0.40010  Biso   1.000  C
  C176     1.0000 0.69770  0.01380  0.09990  Biso   1.000  C
  C177     1.0000 0.74790  0.00980  0.58110  Biso   1.000  C
  C178     1.0000 0.25210  0.00980  0.91890  Biso   1.000  C
  C179     1.0000 0.25210  0.99020  0.41890  Biso   1.000  C
  C180     1.0000 0.74790  0.99020  0.08110  Biso   1.000  C
  H141     1.0000 0.78360  0.01810  0.61150  Biso   1.000  H
  H142     1.0000 0.21640  0.01810  0.88850  Biso   1.000  H
  H143     1.0000 0.21640  0.98190  0.38850  Biso   1.000  H
  H144     1.0000 0.78360  0.98190  0.11150  Biso   1.000  H
  C181     1.0000 0.74530  0.02130  0.51690  Biso   1.000  C
  C182     1.0000 0.25470  0.02130  0.98310  Biso   1.000  C
  C183     1.0000 0.25470  0.97870  0.48310  Biso   1.000  C
  C184     1.0000 0.74530  0.97870  0.01690  Biso   1.000  C
  H145     1.0000 0.78010  0.03780  0.50580  Biso   1.000  H
  H146     1.0000 0.21990  0.03780  0.99420  Biso   1.000  H
  H147     1.0000 0.21990  0.96220  0.49420  Biso   1.000  H
  H148     1.0000 0.78010  0.96220  0.00580  Biso   1.000  H
  C185     1.0000 0.65040  0.89820  0.74750  Biso   1.000  C
  C186     1.0000 0.34960  0.89820  0.75250  Biso   1.000  C
  C187     1.0000 0.34960  0.10180  0.25250  Biso   1.000  C
  C188     1.0000 0.65040  0.10180  0.24750  Biso   1.000  C
  H149     1.0000 0.61990  0.85390  0.75750  Biso   1.000  H
  H150     1.0000 0.38010  0.85390  0.74250  Biso   1.000  H
  H151     1.0000 0.38010  0.14610  0.24250  Biso   1.000  H
  H152     1.0000 0.61990  0.14610  0.25750  Biso   1.000  H
  C189     1.0000 0.65160  0.90390  0.68480  Biso   1.000  C
  C190     1.0000 0.34840  0.90390  0.81520  Biso   1.000  C
  C191     1.0000 0.34840  0.09610  0.31520  Biso   1.000  C
  C192     1.0000 0.65160  0.09610  0.18480  Biso   1.000  C
  H153     1.0000 0.62260  0.86360  0.65370  Biso   1.000  H
  H154     1.0000 0.37740  0.86360  0.84630  Biso   1.000  H
  H155     1.0000 0.37740  0.13640  0.34630  Biso   1.000  H
  H156     1.0000 0.62260  0.13640  0.15370  Biso   1.000  H
  C193     1.0000 0.69600  0.96950  0.66760  Biso   1.000  C
  C194     1.0000 0.30400  0.96950  0.83240  Biso   1.000  C
  C195     1.0000 0.30400  0.03050  0.33240  Biso   1.000  C
  C196     1.0000 0.69600  0.03050  0.16760  Biso   1.000  C
  C197     1.0000 0.73880  0.02070  0.71530  Biso   1.000  C
  C198     1.0000 0.26120  0.02070  0.78470  Biso   1.000  C
  C199     1.0000 0.26120  0.97930  0.28470  Biso   1.000  C
  C200     1.0000 0.73880  0.97930  0.21530  Biso   1.000  C
  H157     1.0000 0.77010  0.06280  0.70590  Biso   1.000  H
  H158     1.0000 0.22990  0.06280  0.79410  Biso   1.000  H
  H159     1.0000 0.22990  0.93720  0.29410  Biso   1.000  H
  H160     1.0000 0.77010  0.93720  0.20590  Biso   1.000  H
  C201     1.0000 0.73580  0.01010  0.77830  Biso   1.000  C
  C202     1.0000 0.26420  0.01010  0.72170  Biso   1.000  C
  C203     1.0000 0.26420  0.98990  0.22170  Biso   1.000  C
  C204     1.0000 0.73580  0.98990  0.27830  Biso   1.000  C
  H161     1.0000 0.76630  0.04410  0.81010  Biso   1.000  H
  H162     1.0000 0.23370  0.04410  0.68990  Biso   1.000  H
  H163     1.0000 0.23370  0.95590  0.18990  Biso   1.000  H
  H164     1.0000 0.76630  0.95590  0.31010  Biso   1.000  H
