data_image0
_cell_length_a       23.682
_cell_length_b       10.546
_cell_length_c       21.648
_cell_angle_alpha    90
_cell_angle_beta     105.28
_cell_angle_gamma    90

_symmetry_space_group_name_H-M    "P 1"
_symmetry_int_tables_number       1

loop_
  _symmetry_equiv_pos_as_xyz
  'x, y, z'

loop_
  _atom_site_label
  _atom_site_occupancy
  _atom_site_fract_x
  _atom_site_fract_y
  _atom_site_fract_z
  _atom_site_thermal_displace_type
  _atom_site_B_iso_or_equiv
  _atom_site_type_symbol
  Cu1      1.0000 0.81349  0.04746  0.61932  Biso   1.000  Cu
  Cu2      1.0000 0.18651  0.04746  0.88068  Biso   1.000  Cu
  Cu3      1.0000 0.18651  0.95254  0.38068  Biso   1.000  Cu
  Cu4      1.0000 0.81349  0.95254  0.11932  Biso   1.000  Cu
  Cu5      1.0000 0.28735  0.66855  0.20992  Biso   1.000  Cu
  Cu6      1.0000 0.71265  0.66855  0.29008  Biso   1.000  Cu
  Cu7      1.0000 0.71265  0.33145  0.79008  Biso   1.000  Cu
  Cu8      1.0000 0.28735  0.33145  0.70992  Biso   1.000  Cu
  Cu9      1.0000 0.23082  0.63460  0.69447  Biso   1.000  Cu
  Cu10     1.0000 0.76918  0.63460  0.80553  Biso   1.000  Cu
  Cu11     1.0000 0.76918  0.36540  0.30553  Biso   1.000  Cu
  Cu12     1.0000 0.23082  0.36540  0.19447  Biso   1.000  Cu
  Eu1      1.0000 0.50000  0.77532  0.25000  Biso   1.000  Eu
  Eu2      1.0000 0.50000  0.22468  0.75000  Biso   1.000  Eu
  Eu3      1.0000 0.00000  0.46988  0.75000  Biso   1.000  Eu
  Eu4      1.0000 0.00000  0.53012  0.25000  Biso   1.000  Eu
  C1       1.0000 0.76459  0.98500  0.72260  Biso   1.000  C
  C2       1.0000 0.23541  0.98500  0.77740  Biso   1.000  C
  C3       1.0000 0.23541  0.01500  0.27740  Biso   1.000  C
  C4       1.0000 0.76459  0.01500  0.22260  Biso   1.000  C
  H1       1.0000 0.73530  0.94740  0.69060  Biso   1.000  H
  H2       1.0000 0.26470  0.94740  0.80940  Biso   1.000  H
  H3       1.0000 0.26470  0.05260  0.30940  Biso   1.000  H
  H4       1.0000 0.73530  0.05260  0.19060  Biso   1.000  H
  C5       1.0000 0.84888  0.10140  0.75259  Biso   1.000  C
  C6       1.0000 0.15112  0.10140  0.74741  Biso   1.000  C
  C7       1.0000 0.15112  0.89860  0.24741  Biso   1.000  C
  C8       1.0000 0.84888  0.89860  0.25259  Biso   1.000  C
  H5       1.0000 0.87900  0.14590  0.74210  Biso   1.000  H
  H6       1.0000 0.12100  0.14590  0.75790  Biso   1.000  H
  H7       1.0000 0.12100  0.85410  0.25790  Biso   1.000  H
  H8       1.0000 0.87900  0.85410  0.24210  Biso   1.000  H
  C9       1.0000 0.76128  0.97490  0.78457  Biso   1.000  C
  C10      1.0000 0.23872  0.97490  0.71543  Biso   1.000  C
  C11      1.0000 0.23872  0.02510  0.21543  Biso   1.000  C
  C12      1.0000 0.76128  0.02510  0.28457  Biso   1.000  C
  H9       1.0000 0.73020  0.93200  0.79380  Biso   1.000  H
  H10      1.0000 0.26980  0.93200  0.70620  Biso   1.000  H
  H11      1.0000 0.26980  0.06800  0.20620  Biso   1.000  H
  H12      1.0000 0.73020  0.06800  0.29380  Biso   1.000  H
  C13      1.0000 0.84832  0.09490  0.81581  Biso   1.000  C
  C14      1.0000 0.15168  0.09490  0.68419  Biso   1.000  C
  C15      1.0000 0.15168  0.90510  0.18419  Biso   1.000  C
  C16      1.0000 0.84832  0.90510  0.31581  Biso   1.000  C
  H13      1.0000 0.87760  0.13500  0.84680  Biso   1.000  H
  H14      1.0000 0.12240  0.13500  0.65320  Biso   1.000  H
  H15      1.0000 0.12240  0.86500  0.15320  Biso   1.000  H
  H16      1.0000 0.87760  0.86500  0.34680  Biso   1.000  H
  C17      1.0000 0.80453  0.02900  0.83370  Biso   1.000  C
  C18      1.0000 0.19547  0.02900  0.66630  Biso   1.000  C
  C19      1.0000 0.19547  0.97100  0.16630  Biso   1.000  C
  C20      1.0000 0.80453  0.97100  0.33370  Biso   1.000  C
  C21      1.0000 0.80394  0.01720  0.90186  Biso   1.000  C
  C22      1.0000 0.19606  0.01720  0.59814  Biso   1.000  C
  C23      1.0000 0.19606  0.98280  0.09814  Biso   1.000  C
  C24      1.0000 0.80394  0.98280  0.40186  Biso   1.000  C
  C25      1.0000 0.75283  0.99150  0.91999  Biso   1.000  C
  C26      1.0000 0.24717  0.99150  0.58001  Biso   1.000  C
  C27      1.0000 0.24717  0.00850  0.08001  Biso   1.000  C
  C28      1.0000 0.75283  0.00850  0.41999  Biso   1.000  C
  H17      1.0000 0.71740  0.98200  0.88910  Biso   1.000  H
  H18      1.0000 0.28260  0.98200  0.61090  Biso   1.000  H
  H19      1.0000 0.28260  0.01800  0.11090  Biso   1.000  H
  H20      1.0000 0.71740  0.01800  0.38910  Biso   1.000  H
  C29      1.0000 0.75502  0.98020  0.98390  Biso   1.000  C
  C30      1.0000 0.24498  0.98020  0.51610  Biso   1.000  C
  C31      1.0000 0.24498  0.01980  0.01610  Biso   1.000  C
  C32      1.0000 0.75502  0.01980  0.48390  Biso   1.000  C
  H21      1.0000 0.72040  0.96380  0.99510  Biso   1.000  H
  H22      1.0000 0.27960  0.96380  0.50490  Biso   1.000  H
  H23      1.0000 0.27960  0.03620  0.00490  Biso   1.000  H
  H24      1.0000 0.72040  0.03620  0.49510  Biso   1.000  H
  C33      1.0000 0.85359  0.01830  0.01351  Biso   1.000  C
  C34      1.0000 0.14641  0.01830  0.48649  Biso   1.000  C
  C35      1.0000 0.14641  0.98170  0.98649  Biso   1.000  C
  C36      1.0000 0.85359  0.98170  0.51351  Biso   1.000  C
  H25      1.0000 0.88820  0.02870  0.04550  Biso   1.000  H
  H26      1.0000 0.11180  0.02870  0.45450  Biso   1.000  H
  H27      1.0000 0.11180  0.97130  0.95450  Biso   1.000  H
  H28      1.0000 0.88820  0.97130  0.54550  Biso   1.000  H
  C37      1.0000 0.85526  0.03090  0.95087  Biso   1.000  C
  C38      1.0000 0.14474  0.03090  0.54913  Biso   1.000  C
  C39      1.0000 0.14474  0.96910  0.04913  Biso   1.000  C
  C40      1.0000 0.85526  0.96910  0.45087  Biso   1.000  C
  H29      1.0000 0.89050  0.04850  0.94120  Biso   1.000  H
  H30      1.0000 0.10950  0.04850  0.55880  Biso   1.000  H
  H31      1.0000 0.10950  0.95150  0.05880  Biso   1.000  H
  H32      1.0000 0.89050  0.95150  0.44120  Biso   1.000  H
  C41      1.0000 0.93229  0.24180  0.65085  Biso   1.000  C
  C42      1.0000 0.06771  0.24180  0.84915  Biso   1.000  C
  C43      1.0000 0.06771  0.75820  0.34915  Biso   1.000  C
  C44      1.0000 0.93229  0.75820  0.15085  Biso   1.000  C
  C45      1.0000 0.97852  0.28230  0.61798  Biso   1.000  C
  C46      1.0000 0.02148  0.28230  0.88202  Biso   1.000  C
  C47      1.0000 0.02148  0.71770  0.38202  Biso   1.000  C
  C48      1.0000 0.97852  0.71770  0.11798  Biso   1.000  C
  C49      1.0000 0.97811  0.24490  0.55661  Biso   1.000  C
  C50      1.0000 0.02189  0.24490  0.94339  Biso   1.000  C
  C51      1.0000 0.02189  0.75510  0.44339  Biso   1.000  C
  C52      1.0000 0.97811  0.75510  0.05661  Biso   1.000  C
  H33      1.0000 0.94990  0.18880  0.53390  Biso   1.000  H
  H34      1.0000 0.05010  0.18880  0.96610  Biso   1.000  H
  H35      1.0000 0.05010  0.81120  0.46610  Biso   1.000  H
  H36      1.0000 0.94990  0.81120  0.03390  Biso   1.000  H
  C53      1.0000 0.02066  0.29260  0.52986  Biso   1.000  C
  C54      1.0000 0.97934  0.29260  0.97014  Biso   1.000  C
  C55      1.0000 0.97934  0.70740  0.47014  Biso   1.000  C
  C56      1.0000 0.02066  0.70740  0.02986  Biso   1.000  C
  H37      1.0000 0.02100  0.27040  0.48840  Biso   1.000  H
  H38      1.0000 0.97900  0.27040  0.01160  Biso   1.000  H
  H39      1.0000 0.97900  0.72960  0.51160  Biso   1.000  H
  H40      1.0000 0.02100  0.72960  0.98840  Biso   1.000  H
  C57      1.0000 0.06293  0.37410  0.56548  Biso   1.000  C
  C58      1.0000 0.93707  0.37410  0.93452  Biso   1.000  C
  C59      1.0000 0.93707  0.62590  0.43452  Biso   1.000  C
  C60      1.0000 0.06293  0.62590  0.06548  Biso   1.000  C
  H41      1.0000 0.09190  0.40720  0.54840  Biso   1.000  H
  H42      1.0000 0.90810  0.40720  0.95160  Biso   1.000  H
  H43      1.0000 0.90810  0.59280  0.45160  Biso   1.000  H
  H44      1.0000 0.09190  0.59280  0.04840  Biso   1.000  H
  C61      1.0000 0.06088  0.40480  0.62710  Biso   1.000  C
  C62      1.0000 0.93912  0.40480  0.87290  Biso   1.000  C
  C63      1.0000 0.93912  0.59520  0.37290  Biso   1.000  C
  C64      1.0000 0.06088  0.59520  0.12710  Biso   1.000  C
  C65      1.0000 0.10328  0.49450  0.67070  Biso   1.000  C
  C66      1.0000 0.89672  0.49450  0.82930  Biso   1.000  C
  C67      1.0000 0.89672  0.50550  0.32930  Biso   1.000  C
  C68      1.0000 0.10328  0.50550  0.17070  Biso   1.000  C
  C69      1.0000 0.97338  0.77190  0.69705  Biso   1.000  C
  C70      1.0000 0.02662  0.77190  0.80295  Biso   1.000  C
  C71      1.0000 0.02662  0.22810  0.30295  Biso   1.000  C
  C72      1.0000 0.97338  0.22810  0.19705  Biso   1.000  C
  C73      1.0000 0.94445  0.68930  0.64039  Biso   1.000  C
  C74      1.0000 0.05555  0.68930  0.85961  Biso   1.000  C
  C75      1.0000 0.05555  0.31070  0.35961  Biso   1.000  C
  C76      1.0000 0.94445  0.31070  0.14039  Biso   1.000  C
  C77      1.0000 0.97280  0.90330  0.69560  Biso   1.000  C
  C78      1.0000 0.02720  0.90330  0.80440  Biso   1.000  C
  C79      1.0000 0.02720  0.09670  0.30440  Biso   1.000  C
  C80      1.0000 0.97280  0.09670  0.19560  Biso   1.000  C
  H45      1.0000 0.95420  0.94600  0.65820  Biso   1.000  H
  H46      1.0000 0.04580  0.94600  0.84180  Biso   1.000  H
  H47      1.0000 0.04580  0.05400  0.34180  Biso   1.000  H
  H48      1.0000 0.95420  0.05400  0.15820  Biso   1.000  H
  C81      1.0000 0.00000  0.97010  0.75000  Biso   1.000  C
  C82      1.0000 0.00000  0.02990  0.25000  Biso   1.000  C
  H49      1.0000 0.00000  0.05830  0.75000  Biso   1.000  H
  H50      1.0000 0.00000  0.94170  0.25000  Biso   1.000  H
  C83      1.0000 0.19358  0.66790  0.55842  Biso   1.000  C
  C84      1.0000 0.80642  0.66790  0.94158  Biso   1.000  C
  C85      1.0000 0.80642  0.33210  0.44158  Biso   1.000  C
  C86      1.0000 0.19358  0.33210  0.05842  Biso   1.000  C
  H51      1.0000 0.15660  0.67210  0.56570  Biso   1.000  H
  H52      1.0000 0.84340  0.67210  0.93430  Biso   1.000  H
  H53      1.0000 0.84340  0.32790  0.43430  Biso   1.000  H
  H54      1.0000 0.15660  0.32790  0.06570  Biso   1.000  H
  C87      1.0000 0.19781  0.67400  0.49640  Biso   1.000  C
  C88      1.0000 0.80219  0.67400  0.00360  Biso   1.000  C
  C89      1.0000 0.80219  0.32600  0.50360  Biso   1.000  C
  C90      1.0000 0.19781  0.32600  0.99640  Biso   1.000  C
  H55      1.0000 0.16420  0.68240  0.46280  Biso   1.000  H
  H56      1.0000 0.83580  0.68240  0.03720  Biso   1.000  H
  H57      1.0000 0.83580  0.31760  0.53720  Biso   1.000  H
  H58      1.0000 0.16420  0.31760  0.96280  Biso   1.000  H
  C91      1.0000 0.25254  0.66750  0.48401  Biso   1.000  C
  C92      1.0000 0.74746  0.66750  0.01599  Biso   1.000  C
  C93      1.0000 0.74746  0.33250  0.51599  Biso   1.000  C
  C94      1.0000 0.25254  0.33250  0.98401  Biso   1.000  C
  C95      1.0000 0.30076  0.65490  0.53666  Biso   1.000  C
  C96      1.0000 0.69924  0.65490  0.96334  Biso   1.000  C
  C97      1.0000 0.69924  0.34510  0.46334  Biso   1.000  C
  C98      1.0000 0.30076  0.34510  0.03666  Biso   1.000  C
  H59      1.0000 0.33820  0.64950  0.53090  Biso   1.000  H
  H60      1.0000 0.66180  0.64950  0.96910  Biso   1.000  H
  H61      1.0000 0.66180  0.35050  0.46910  Biso   1.000  H
  H62      1.0000 0.33820  0.35050  0.03090  Biso   1.000  H
  C99      1.0000 0.29282  0.65050  0.59716  Biso   1.000  C
  C100     1.0000 0.70718  0.65050  0.90284  Biso   1.000  C
  C101     1.0000 0.70718  0.34950  0.40284  Biso   1.000  C
  C102     1.0000 0.29282  0.34950  0.09716  Biso   1.000  C
  H63      1.0000 0.32580  0.64300  0.63160  Biso   1.000  H
  H64      1.0000 0.67420  0.64300  0.86840  Biso   1.000  H
  H65      1.0000 0.67420  0.35700  0.36840  Biso   1.000  H
  H66      1.0000 0.32580  0.35700  0.13160  Biso   1.000  H
  C103     1.0000 0.19863  0.69250  0.80908  Biso   1.000  C
  C104     1.0000 0.80137  0.69250  0.69092  Biso   1.000  C
  C105     1.0000 0.80137  0.30750  0.19092  Biso   1.000  C
  C106     1.0000 0.19863  0.30750  0.30908  Biso   1.000  C
  H67      1.0000 0.16200  0.70550  0.78090  Biso   1.000  H
  H68      1.0000 0.83800  0.70550  0.71910  Biso   1.000  H
  H69      1.0000 0.83800  0.29450  0.21910  Biso   1.000  H
  H70      1.0000 0.16200  0.29450  0.28090  Biso   1.000  H
  C107     1.0000 0.29578  0.64010  0.82694  Biso   1.000  C
  C108     1.0000 0.70422  0.64010  0.67306  Biso   1.000  C
  C109     1.0000 0.70422  0.35990  0.17306  Biso   1.000  C
  C110     1.0000 0.29578  0.35990  0.32694  Biso   1.000  C
  H71      1.0000 0.32730  0.61800  0.81110  Biso   1.000  H
  H72      1.0000 0.67270  0.61800  0.68890  Biso   1.000  H
  H73      1.0000 0.67270  0.38200  0.18890  Biso   1.000  H
  H74      1.0000 0.32730  0.38200  0.31110  Biso   1.000  H
  C111     1.0000 0.20461  0.70880  0.87362  Biso   1.000  C
  C112     1.0000 0.79539  0.70880  0.62638  Biso   1.000  C
  C113     1.0000 0.79539  0.29120  0.12638  Biso   1.000  C
  C114     1.0000 0.20461  0.29120  0.37362  Biso   1.000  C
  H75      1.0000 0.17270  0.73440  0.88800  Biso   1.000  H
  H76      1.0000 0.82730  0.73440  0.61200  Biso   1.000  H
  H77      1.0000 0.82730  0.26560  0.11200  Biso   1.000  H
  H78      1.0000 0.17270  0.26560  0.38800  Biso   1.000  H
  C115     1.0000 0.30495  0.65240  0.89211  Biso   1.000  C
  C116     1.0000 0.69505  0.65240  0.60789  Biso   1.000  C
  C117     1.0000 0.69505  0.34760  0.10789  Biso   1.000  C
  C118     1.0000 0.30495  0.34760  0.39211  Biso   1.000  C
  H79      1.0000 0.34190  0.63790  0.91940  Biso   1.000  H
  H80      1.0000 0.65810  0.63790  0.58060  Biso   1.000  H
  H81      1.0000 0.65810  0.36210  0.08060  Biso   1.000  H
  H82      1.0000 0.34190  0.36210  0.41940  Biso   1.000  H
  C119     1.0000 0.25830  0.68710  0.91727  Biso   1.000  C
  C120     1.0000 0.74170  0.68710  0.58273  Biso   1.000  C
  C121     1.0000 0.74170  0.31290  0.08273  Biso   1.000  C
  C122     1.0000 0.25830  0.31290  0.41727  Biso   1.000  C
  C123     1.0000 0.26541  0.69380  0.98748  Biso   1.000  C
  C124     1.0000 0.73459  0.69380  0.51252  Biso   1.000  C
  C125     1.0000 0.73459  0.30620  0.01252  Biso   1.000  C
  C126     1.0000 0.26541  0.30620  0.48748  Biso   1.000  C
  C127     1.0000 0.21793  0.67000  0.01264  Biso   1.000  C
  C128     1.0000 0.78207  0.67000  0.48736  Biso   1.000  C
  C129     1.0000 0.78207  0.33000  0.98736  Biso   1.000  C
  C130     1.0000 0.21793  0.33000  0.51264  Biso   1.000  C
  H83      1.0000 0.18100  0.65450  0.98550  Biso   1.000  H
  H84      1.0000 0.81900  0.65450  0.51450  Biso   1.000  H
  H85      1.0000 0.81900  0.34550  0.01450  Biso   1.000  H
  H86      1.0000 0.18100  0.34550  0.48550  Biso   1.000  H
  C131     1.0000 0.31894  0.72100  0.03072  Biso   1.000  C
  C132     1.0000 0.68106  0.72100  0.46928  Biso   1.000  C
  C133     1.0000 0.68106  0.27900  0.96928  Biso   1.000  C
  C134     1.0000 0.31894  0.27900  0.53072  Biso   1.000  C
  H87      1.0000 0.35140  0.73980  0.01590  Biso   1.000  H
  H88      1.0000 0.64860  0.73980  0.48410  Biso   1.000  H
  H89      1.0000 0.64860  0.26020  0.98410  Biso   1.000  H
  H90      1.0000 0.35140  0.26020  0.51590  Biso   1.000  H
  C135     1.0000 0.32359  0.72010  0.09538  Biso   1.000  C
  C136     1.0000 0.67641  0.72010  0.40462  Biso   1.000  C
  C137     1.0000 0.67641  0.27990  0.90462  Biso   1.000  C
  C138     1.0000 0.32359  0.27990  0.59538  Biso   1.000  C
  H91      1.0000 0.35970  0.73870  0.12350  Biso   1.000  H
  H92      1.0000 0.64030  0.73870  0.37650  Biso   1.000  H
  H93      1.0000 0.64030  0.26130  0.87650  Biso   1.000  H
  H94      1.0000 0.35970  0.26130  0.62350  Biso   1.000  H
  C139     1.0000 0.22634  0.66970  0.07796  Biso   1.000  C
  C140     1.0000 0.77366  0.66970  0.42204  Biso   1.000  C
  C141     1.0000 0.77366  0.33030  0.92204  Biso   1.000  C
  C142     1.0000 0.22634  0.33030  0.57796  Biso   1.000  C
  H95      1.0000 0.19440  0.65210  0.09400  Biso   1.000  H
  H96      1.0000 0.80560  0.65210  0.40600  Biso   1.000  H
  H97      1.0000 0.80560  0.34790  0.90600  Biso   1.000  H
  H98      1.0000 0.19440  0.34790  0.59400  Biso   1.000  H
  C143     1.0000 0.22323  0.64070  0.30479  Biso   1.000  C
  C144     1.0000 0.77677  0.64070  0.19521  Biso   1.000  C
  C145     1.0000 0.77677  0.35930  0.69521  Biso   1.000  C
  C146     1.0000 0.22323  0.35930  0.80479  Biso   1.000  C
  H99      1.0000 0.19290  0.61450  0.27040  Biso   1.000  H
  H100     1.0000 0.80710  0.61450  0.22960  Biso   1.000  H
  H101     1.0000 0.80710  0.38550  0.72960  Biso   1.000  H
  H102     1.0000 0.19290  0.38550  0.77040  Biso   1.000  H
  C147     1.0000 0.21481  0.63520  0.36517  Biso   1.000  C
  C148     1.0000 0.78519  0.63520  0.13483  Biso   1.000  C
  C149     1.0000 0.78519  0.36480  0.63483  Biso   1.000  C
  C150     1.0000 0.21481  0.36480  0.86517  Biso   1.000  C
  H103     1.0000 0.17960  0.60550  0.37090  Biso   1.000  H
  H104     1.0000 0.82040  0.60550  0.12910  Biso   1.000  H
  H105     1.0000 0.82040  0.39450  0.62910  Biso   1.000  H
  H106     1.0000 0.17960  0.39450  0.87090  Biso   1.000  H
  C151     1.0000 0.25920  0.67410  0.41770  Biso   1.000  C
  C152     1.0000 0.74080  0.67410  0.08230  Biso   1.000  C
  C153     1.0000 0.74080  0.32590  0.58230  Biso   1.000  C
  C154     1.0000 0.25920  0.32590  0.91770  Biso   1.000  C
  C155     1.0000 0.31046  0.71910  0.40532  Biso   1.000  C
  C156     1.0000 0.68954  0.71910  0.09468  Biso   1.000  C
  C157     1.0000 0.68954  0.28090  0.59468  Biso   1.000  C
  C158     1.0000 0.31046  0.28090  0.90532  Biso   1.000  C
  H107     1.0000 0.34100  0.74830  0.43870  Biso   1.000  H
  H108     1.0000 0.65900  0.74830  0.06130  Biso   1.000  H
  H109     1.0000 0.65900  0.25170  0.56130  Biso   1.000  H
  H110     1.0000 0.34100  0.25170  0.93870  Biso   1.000  H
  C159     1.0000 0.31572  0.72040  0.34353  Biso   1.000  C
  C160     1.0000 0.68428  0.72040  0.15647  Biso   1.000  C
  C161     1.0000 0.68428  0.27960  0.65647  Biso   1.000  C
  C162     1.0000 0.31572  0.27960  0.84353  Biso   1.000  C
  H111     1.0000 0.35060  0.74920  0.33640  Biso   1.000  H
  H112     1.0000 0.64940  0.74920  0.16360  Biso   1.000  H
  H113     1.0000 0.64940  0.25080  0.66360  Biso   1.000  H
  H114     1.0000 0.35060  0.25080  0.83640  Biso   1.000  H
  C163     1.0000 0.39680  0.55270  0.23575  Biso   1.000  C
  C164     1.0000 0.60320  0.55270  0.26425  Biso   1.000  C
  C165     1.0000 0.60320  0.44730  0.76425  Biso   1.000  C
  C166     1.0000 0.39680  0.44730  0.73575  Biso   1.000  C
  C167     1.0000 0.44981  0.47070  0.24182  Biso   1.000  C
  C168     1.0000 0.55019  0.47070  0.25818  Biso   1.000  C
  C169     1.0000 0.55019  0.52930  0.75818  Biso   1.000  C
  C170     1.0000 0.44981  0.52930  0.74182  Biso   1.000  C
  C171     1.0000 0.44794  0.33980  0.24060  Biso   1.000  C
  C172     1.0000 0.55206  0.33980  0.25940  Biso   1.000  C
  C173     1.0000 0.55206  0.66020  0.75940  Biso   1.000  C
  C174     1.0000 0.44794  0.66020  0.74060  Biso   1.000  C
  H115     1.0000 0.41250  0.29700  0.23360  Biso   1.000  H
  H116     1.0000 0.58750  0.29700  0.26640  Biso   1.000  H
  H117     1.0000 0.58750  0.70300  0.76640  Biso   1.000  H
  H118     1.0000 0.41250  0.70300  0.73360  Biso   1.000  H
  C175     1.0000 0.50000  0.27420  0.25000  Biso   1.000  C
  C176     1.0000 0.50000  0.72580  0.75000  Biso   1.000  C
  H119     1.0000 0.50000  0.18600  0.25000  Biso   1.000  H
  H120     1.0000 0.50000  0.81400  0.75000  Biso   1.000  H
  C177     1.0000 0.40215  0.01050  0.22547  Biso   1.000  C
  C178     1.0000 0.59785  0.01050  0.27453  Biso   1.000  C
  C179     1.0000 0.59785  0.98950  0.77453  Biso   1.000  C
  C180     1.0000 0.40215  0.98950  0.72547  Biso   1.000  C
  C181     1.0000 0.41566  0.99610  0.29739  Biso   1.000  C
  C182     1.0000 0.58434  0.99610  0.20261  Biso   1.000  C
  C183     1.0000 0.58434  0.00390  0.70261  Biso   1.000  C
  C184     1.0000 0.41566  0.00390  0.79739  Biso   1.000  C
  C185     1.0000 0.39224  0.07450  0.33590  Biso   1.000  C
  C186     1.0000 0.60776  0.07450  0.16410  Biso   1.000  C
  C187     1.0000 0.60776  0.92550  0.66410  Biso   1.000  C
  C188     1.0000 0.39224  0.92550  0.83590  Biso   1.000  C
  H121     1.0000 0.36700  0.14020  0.31810  Biso   1.000  H
  H122     1.0000 0.63300  0.14020  0.18190  Biso   1.000  H
  H123     1.0000 0.63300  0.85980  0.68190  Biso   1.000  H
  H124     1.0000 0.36700  0.85980  0.81810  Biso   1.000  H
  C189     1.0000 0.40710  0.05310  0.40060  Biso   1.000  C
  C190     1.0000 0.59290  0.05310  0.09940  Biso   1.000  C
  C191     1.0000 0.59290  0.94690  0.59940  Biso   1.000  C
  C192     1.0000 0.40710  0.94690  0.90060  Biso   1.000  C
  H125     1.0000 0.39180  0.10450  0.42720  Biso   1.000  H
  H126     1.0000 0.60820  0.10450  0.07280  Biso   1.000  H
  H127     1.0000 0.60820  0.89550  0.57280  Biso   1.000  H
  H128     1.0000 0.39180  0.89550  0.92720  Biso   1.000  H
  C193     1.0000 0.44488  0.95470  0.42635  Biso   1.000  C
  C194     1.0000 0.55512  0.95470  0.07365  Biso   1.000  C
  C195     1.0000 0.55512  0.04530  0.57365  Biso   1.000  C
  C196     1.0000 0.44488  0.04530  0.92635  Biso   1.000  C
  H129     1.0000 0.45500  0.93870  0.47010  Biso   1.000  H
  H130     1.0000 0.54500  0.93870  0.02990  Biso   1.000  H
  H131     1.0000 0.54500  0.06130  0.52990  Biso   1.000  H
  H132     1.0000 0.45500  0.06130  0.97010  Biso   1.000  H
  C197     1.0000 0.46726  0.88070  0.38536  Biso   1.000  C
  C198     1.0000 0.53274  0.88070  0.11464  Biso   1.000  C
  C199     1.0000 0.53274  0.11930  0.61464  Biso   1.000  C
  C200     1.0000 0.46726  0.11930  0.88536  Biso   1.000  C
  C201     1.0000 0.50892  0.77120  0.40644  Biso   1.000  C
  C202     1.0000 0.49108  0.77120  0.09356  Biso   1.000  C
  C203     1.0000 0.49108  0.22880  0.59356  Biso   1.000  C
  C204     1.0000 0.50892  0.22880  0.90644  Biso   1.000  C
  N1       1.0000 0.80807  0.04650  0.70553  Biso   1.000  N
  N2       1.0000 0.19193  0.04650  0.79447  Biso   1.000  N
  N3       1.0000 0.19193  0.95350  0.29447  Biso   1.000  N
  N4       1.0000 0.80807  0.95350  0.20553  Biso   1.000  N
  N5       1.0000 0.80499  0.99180  0.03098  Biso   1.000  N
  N6       1.0000 0.19501  0.99180  0.46902  Biso   1.000  N
  N7       1.0000 0.19501  0.00820  0.96902  Biso   1.000  N
  N8       1.0000 0.80499  0.00820  0.53098  Biso   1.000  N
  N9       1.0000 0.01882  0.36060  0.65212  Biso   1.000  N
  N10      1.0000 0.98118  0.36060  0.84788  Biso   1.000  N
  N11      1.0000 0.98118  0.63940  0.34788  Biso   1.000  N
  N12      1.0000 0.01882  0.63940  0.15212  Biso   1.000  N
  N13      1.0000 0.00000  0.70860  0.75000  Biso   1.000  N
  N14      1.0000 0.00000  0.29140  0.25000  Biso   1.000  N
  N15      1.0000 0.24057  0.65620  0.60929  Biso   1.000  N
  N16      1.0000 0.75943  0.65620  0.89071  Biso   1.000  N
  N17      1.0000 0.75943  0.34380  0.39071  Biso   1.000  N
  N18      1.0000 0.24057  0.34380  0.10929  Biso   1.000  N
  N19      1.0000 0.24305  0.65880  0.78493  Biso   1.000  N
  N20      1.0000 0.75695  0.65880  0.71507  Biso   1.000  N
  N21      1.0000 0.75695  0.34120  0.21507  Biso   1.000  N
  N22      1.0000 0.24305  0.34120  0.28493  Biso   1.000  N
  N23      1.0000 0.27812  0.69340  0.11994  Biso   1.000  N
  N24      1.0000 0.72188  0.69340  0.38006  Biso   1.000  N
  N25      1.0000 0.72188  0.30660  0.88006  Biso   1.000  N
  N26      1.0000 0.27812  0.30660  0.61994  Biso   1.000  N
  N27      1.0000 0.27274  0.68170  0.29286  Biso   1.000  N
  N28      1.0000 0.72726  0.68170  0.20714  Biso   1.000  N
  N29      1.0000 0.72726  0.31830  0.70714  Biso   1.000  N
  N30      1.0000 0.27274  0.31830  0.79286  Biso   1.000  N
  N31      1.0000 0.45228  0.90220  0.32209  Biso   1.000  N
  N32      1.0000 0.54772  0.90220  0.17791  Biso   1.000  N
  N33      1.0000 0.54772  0.09780  0.67791  Biso   1.000  N
  N34      1.0000 0.45228  0.09780  0.82209  Biso   1.000  N
  N35      1.0000 0.50000  0.53490  0.25000  Biso   1.000  N
  N36      1.0000 0.50000  0.46510  0.75000  Biso   1.000  N
  O1       1.0000 0.89684  0.15920  0.62412  Biso   1.000  O
  O2       1.0000 0.10316  0.15920  0.87588  Biso   1.000  O
  O3       1.0000 0.10316  0.84080  0.37588  Biso   1.000  O
  O4       1.0000 0.89684  0.84080  0.12412  Biso   1.000  O
  O5       1.0000 0.93391  0.29540  0.70309  Biso   1.000  O
  O6       1.0000 0.06609  0.29540  0.79691  Biso   1.000  O
  O7       1.0000 0.06609  0.70460  0.29691  Biso   1.000  O
  O8       1.0000 0.93391  0.70460  0.20309  Biso   1.000  O
  O9       1.0000 0.94487  0.57120  0.65176  Biso   1.000  O
  O10      1.0000 0.05513  0.57120  0.84824  Biso   1.000  O
  O11      1.0000 0.05513  0.42880  0.34824  Biso   1.000  O
  O12      1.0000 0.94487  0.42880  0.15176  Biso   1.000  O
  O13      1.0000 0.92210  0.74150  0.58850  Biso   1.000  O
  O14      1.0000 0.07790  0.74150  0.91150  Biso   1.000  O
  O15      1.0000 0.07790  0.25850  0.41150  Biso   1.000  O
  O16      1.0000 0.92210  0.25850  0.08850  Biso   1.000  O
  O17      1.0000 0.08873  0.53420  0.71881  Biso   1.000  O
  O18      1.0000 0.91127  0.53420  0.78119  Biso   1.000  O
  O19      1.0000 0.91127  0.46580  0.28119  Biso   1.000  O
  O20      1.0000 0.08873  0.46580  0.21881  Biso   1.000  O
  O21      1.0000 0.14978  0.51770  0.65555  Biso   1.000  O
  O22      1.0000 0.85022  0.51770  0.84445  Biso   1.000  O
  O23      1.0000 0.85022  0.48230  0.34445  Biso   1.000  O
  O24      1.0000 0.14978  0.48230  0.15555  Biso   1.000  O
  O25      1.0000 0.34751  0.50040  0.22480  Biso   1.000  O
  O26      1.0000 0.65249  0.50040  0.27520  Biso   1.000  O
  O27      1.0000 0.65249  0.49960  0.77520  Biso   1.000  O
  O28      1.0000 0.34751  0.49960  0.72480  Biso   1.000  O
  O29      1.0000 0.40507  0.67180  0.24133  Biso   1.000  O
  O30      1.0000 0.59493  0.67180  0.25867  Biso   1.000  O
  O31      1.0000 0.59493  0.32820  0.75867  Biso   1.000  O
  O32      1.0000 0.40507  0.32820  0.74133  Biso   1.000  O
  O33      1.0000 0.52371  0.71070  0.36297  Biso   1.000  O
  O34      1.0000 0.47629  0.71070  0.13703  Biso   1.000  O
  O35      1.0000 0.47629  0.28930  0.63703  Biso   1.000  O
  O36      1.0000 0.52371  0.28930  0.86297  Biso   1.000  O
  O37      1.0000 0.52554  0.74540  0.46493  Biso   1.000  O
  O38      1.0000 0.47446  0.74540  0.03507  Biso   1.000  O
  O39      1.0000 0.47446  0.25460  0.53507  Biso   1.000  O
  O40      1.0000 0.52554  0.25460  0.96493  Biso   1.000  O
  O41      1.0000 0.43052  0.93710  0.19781  Biso   1.000  O
  O42      1.0000 0.56948  0.93710  0.30219  Biso   1.000  O
  O43      1.0000 0.56948  0.06290  0.80219  Biso   1.000  O
  O44      1.0000 0.43052  0.06290  0.69781  Biso   1.000  O
  O45      1.0000 0.36571  0.09110  0.19884  Biso   1.000  O
  O46      1.0000 0.63429  0.09110  0.30116  Biso   1.000  O
  O47      1.0000 0.63429  0.90890  0.80116  Biso   1.000  O
  O48      1.0000 0.36571  0.90890  0.69884  Biso   1.000  O
  O49      1.0000 0.41993  0.49120  0.49470  Biso   1.000  O
  O50      1.0000 0.58007  0.49120  0.00530  Biso   1.000  O
  O51      1.0000 0.58007  0.50880  0.50530  Biso   1.000  O
  O52      1.0000 0.41993  0.50880  0.99470  Biso   1.000  O
  O53      1.0000 0.39340  0.04680  0.06215  Biso   1.000  O
  O54      1.0000 0.60660  0.04680  0.43785  Biso   1.000  O
  O55      1.0000 0.60660  0.95320  0.93785  Biso   1.000  O
  O56      1.0000 0.39340  0.95320  0.56215  Biso   1.000  O
  O57      1.0000 0.46410  0.27390  0.05890  Biso   1.000  O
  O58      1.0000 0.53590  0.27390  0.44110  Biso   1.000  O
  O59      1.0000 0.53590  0.72610  0.94110  Biso   1.000  O
  O60      1.0000 0.46410  0.72610  0.55890  Biso   1.000  O
  O61      1.0000 0.45120  0.47400  0.38070  Biso   1.000  O
  O62      1.0000 0.54880  0.47400  0.11930  Biso   1.000  O
  O63      1.0000 0.54880  0.52600  0.61930  Biso   1.000  O
  O64      1.0000 0.45120  0.52600  0.88070  Biso   1.000  O
  H133     1.0000 0.43580  0.49400  0.53390  Biso   1.000  H
  H134     1.0000 0.56420  0.49400  0.96610  Biso   1.000  H
  H135     1.0000 0.56420  0.50600  0.46610  Biso   1.000  H
  H136     1.0000 0.43580  0.50600  0.03390  Biso   1.000  H
  H137     1.0000 0.44180  0.46500  0.47360  Biso   1.000  H
  H138     1.0000 0.55820  0.46500  0.02640  Biso   1.000  H
  H139     1.0000 0.55820  0.53500  0.52640  Biso   1.000  H
  H140     1.0000 0.44180  0.53500  0.97360  Biso   1.000  H
  H141     1.0000 0.39700  0.99300  0.09020  Biso   1.000  H
  H142     1.0000 0.60300  0.99300  0.40980  Biso   1.000  H
  H143     1.0000 0.60300  0.00700  0.90980  Biso   1.000  H
  H144     1.0000 0.39700  0.00700  0.59020  Biso   1.000  H
  H145     1.0000 0.41100  0.11300  0.07500  Biso   1.000  H
  H146     1.0000 0.58900  0.11300  0.42500  Biso   1.000  H
  H147     1.0000 0.58900  0.88700  0.92500  Biso   1.000  H
  H148     1.0000 0.41100  0.88700  0.57500  Biso   1.000  H
  H149     1.0000 0.47600  0.27000  0.02700  Biso   1.000  H
  H150     1.0000 0.52400  0.27000  0.47300  Biso   1.000  H
  H151     1.0000 0.52400  0.73000  0.97300  Biso   1.000  H
  H152     1.0000 0.47600  0.73000  0.52700  Biso   1.000  H
  H153     1.0000 0.45800  0.34400  0.07100  Biso   1.000  H
  H154     1.0000 0.54200  0.34400  0.42900  Biso   1.000  H
  H155     1.0000 0.54200  0.65600  0.92900  Biso   1.000  H
  H156     1.0000 0.45800  0.65600  0.57100  Biso   1.000  H
  H157     1.0000 0.44130  0.47800  0.41500  Biso   1.000  H
  H158     1.0000 0.55870  0.47800  0.08500  Biso   1.000  H
  H159     1.0000 0.55870  0.52200  0.58500  Biso   1.000  H
  H160     1.0000 0.44130  0.52200  0.91500  Biso   1.000  H
  H161     1.0000 0.48710  0.48800  0.38700  Biso   1.000  H
  H162     1.0000 0.51290  0.48800  0.11300  Biso   1.000  H
  H163     1.0000 0.51290  0.51200  0.61300  Biso   1.000  H
  H164     1.0000 0.48710  0.51200  0.88700  Biso   1.000  H
