data_image0
_cell_length_a       23.738
_cell_length_b       10.5976
_cell_length_c       21.66
_cell_angle_alpha    90
_cell_angle_beta     105.239
_cell_angle_gamma    90

_symmetry_space_group_name_H-M    "P 1"
_symmetry_int_tables_number       1

loop_
  _symmetry_equiv_pos_as_xyz
  'x, y, z'

loop_
  _atom_site_label
  _atom_site_occupancy
  _atom_site_fract_x
  _atom_site_fract_y
  _atom_site_fract_z
  _atom_site_thermal_displace_type
  _atom_site_B_iso_or_equiv
  _atom_site_type_symbol
  Pr1      1.0000 0.00000  0.77876  0.75000  Biso   1.000  Pr
  Pr2      1.0000 0.00000  0.22124  0.25000  Biso   1.000  Pr
  Pr3      1.0000 0.50000  0.47456  0.25000  Biso   1.000  Pr
  Pr4      1.0000 0.50000  0.52544  0.75000  Biso   1.000  Pr
  Cu1      1.0000 0.21171  0.66814  0.78968  Biso   1.000  Cu
  Cu2      1.0000 0.78829  0.66814  0.71032  Biso   1.000  Cu
  Cu3      1.0000 0.78829  0.33186  0.21032  Biso   1.000  Cu
  Cu4      1.0000 0.21171  0.33186  0.28968  Biso   1.000  Cu
  Cu5      1.0000 0.26873  0.63452  0.30526  Biso   1.000  Cu
  Cu6      1.0000 0.73127  0.63452  0.19474  Biso   1.000  Cu
  Cu7      1.0000 0.73127  0.36548  0.69474  Biso   1.000  Cu
  Cu8      1.0000 0.26873  0.36548  0.80526  Biso   1.000  Cu
  Cu9      1.0000 0.68646  0.04926  0.38387  Biso   1.000  Cu
  Cu10     1.0000 0.31354  0.04926  0.11613  Biso   1.000  Cu
  Cu11     1.0000 0.31354  0.95074  0.61613  Biso   1.000  Cu
  Cu12     1.0000 0.68646  0.95074  0.88387  Biso   1.000  Cu
  N1       1.0000 0.04836  0.90660  0.67551  Biso   1.000  N
  N2       1.0000 0.95164  0.90660  0.82449  Biso   1.000  N
  N3       1.0000 0.95164  0.09340  0.32449  Biso   1.000  N
  N4       1.0000 0.04836  0.09340  0.17551  Biso   1.000  N
  N5       1.0000 0.00000  0.53410  0.75000  Biso   1.000  N
  N6       1.0000 0.00000  0.46590  0.25000  Biso   1.000  N
  N7       1.0000 0.48096  0.36250  0.35011  Biso   1.000  N
  N8       1.0000 0.51904  0.36250  0.14989  Biso   1.000  N
  N9       1.0000 0.51904  0.63750  0.64989  Biso   1.000  N
  N10      1.0000 0.48096  0.63750  0.85011  Biso   1.000  N
  N11      1.0000 0.50000  0.71870  0.25000  Biso   1.000  N
  N12      1.0000 0.50000  0.28130  0.75000  Biso   1.000  N
  N13      1.0000 0.22579  0.68040  0.70649  Biso   1.000  N
  N14      1.0000 0.77421  0.68040  0.79351  Biso   1.000  N
  N15      1.0000 0.77421  0.31960  0.29351  Biso   1.000  N
  N16      1.0000 0.22579  0.31960  0.20649  Biso   1.000  N
  N17      1.0000 0.25886  0.65600  0.39020  Biso   1.000  N
  N18      1.0000 0.74114  0.65600  0.10980  Biso   1.000  N
  N19      1.0000 0.74114  0.34400  0.60980  Biso   1.000  N
  N20      1.0000 0.25886  0.34400  0.89020  Biso   1.000  N
  N21      1.0000 0.22082  0.69350  0.87985  Biso   1.000  N
  N22      1.0000 0.77918  0.69350  0.62015  Biso   1.000  N
  N23      1.0000 0.77918  0.30650  0.12015  Biso   1.000  N
  N24      1.0000 0.22082  0.30650  0.37985  Biso   1.000  N
  N25      1.0000 0.25695  0.65830  0.21508  Biso   1.000  N
  N26      1.0000 0.74305  0.65830  0.28492  Biso   1.000  N
  N27      1.0000 0.74305  0.34170  0.78492  Biso   1.000  N
  N28      1.0000 0.25695  0.34170  0.71508  Biso   1.000  N
  N29      1.0000 0.69533  0.01100  0.47221  Biso   1.000  N
  N30      1.0000 0.30467  0.01100  0.02779  Biso   1.000  N
  N31      1.0000 0.30467  0.98900  0.52779  Biso   1.000  N
  N32      1.0000 0.69533  0.98900  0.97221  Biso   1.000  N
  N33      1.0000 0.69204  0.95180  0.79777  Biso   1.000  N
  N34      1.0000 0.30796  0.95180  0.70223  Biso   1.000  N
  N35      1.0000 0.30796  0.04820  0.20223  Biso   1.000  N
  N36      1.0000 0.69204  0.04820  0.29777  Biso   1.000  N
  O1       1.0000 0.07162  0.94370  0.80034  Biso   1.000  O
  O2       1.0000 0.92838  0.94370  0.69966  Biso   1.000  O
  O3       1.0000 0.92838  0.05630  0.19966  Biso   1.000  O
  O4       1.0000 0.07162  0.05630  0.30034  Biso   1.000  O
  O5       1.0000 0.13583  0.09630  0.79765  Biso   1.000  O
  O6       1.0000 0.86417  0.09630  0.70235  Biso   1.000  O
  O7       1.0000 0.86417  0.90370  0.20235  Biso   1.000  O
  O8       1.0000 0.13583  0.90370  0.29765  Biso   1.000  O
  O9       1.0000 0.97640  0.71650  0.63386  Biso   1.000  O
  O10      1.0000 0.02360  0.71650  0.86614  Biso   1.000  O
  O11      1.0000 0.02360  0.28350  0.36614  Biso   1.000  O
  O12      1.0000 0.97640  0.28350  0.13386  Biso   1.000  O
  O13      1.0000 0.97634  0.74840  0.53305  Biso   1.000  O
  O14      1.0000 0.02366  0.74840  0.96695  Biso   1.000  O
  O15      1.0000 0.02366  0.25160  0.46695  Biso   1.000  O
  O16      1.0000 0.97634  0.25160  0.03305  Biso   1.000  O
  O17      1.0000 0.09565  0.66880  0.75866  Biso   1.000  O
  O18      1.0000 0.90435  0.66880  0.74134  Biso   1.000  O
  O19      1.0000 0.90435  0.33120  0.24134  Biso   1.000  O
  O20      1.0000 0.09565  0.33120  0.25866  Biso   1.000  O
  O21      1.0000 0.15206  0.49830  0.77449  Biso   1.000  O
  O22      1.0000 0.84794  0.49830  0.72551  Biso   1.000  O
  O23      1.0000 0.84794  0.50170  0.22551  Biso   1.000  O
  O24      1.0000 0.15206  0.50170  0.27449  Biso   1.000  O
  O25      1.0000 0.40978  0.53580  0.28345  Biso   1.000  O
  O26      1.0000 0.59022  0.53580  0.21655  Biso   1.000  O
  O27      1.0000 0.59022  0.46420  0.71655  Biso   1.000  O
  O28      1.0000 0.40978  0.46420  0.78345  Biso   1.000  O
  O29      1.0000 0.34855  0.51240  0.34476  Biso   1.000  O
  O30      1.0000 0.65145  0.51240  0.15524  Biso   1.000  O
  O31      1.0000 0.65145  0.48760  0.65524  Biso   1.000  O
  O32      1.0000 0.34855  0.48760  0.84476  Biso   1.000  O
  O33      1.0000 0.56686  0.29810  0.30004  Biso   1.000  O
  O34      1.0000 0.43314  0.29810  0.19996  Biso   1.000  O
  O35      1.0000 0.43314  0.70190  0.69996  Biso   1.000  O
  O36      1.0000 0.56686  0.70190  0.80004  Biso   1.000  O
  O37      1.0000 0.60329  0.16310  0.37977  Biso   1.000  O
  O38      1.0000 0.39671  0.16310  0.12023  Biso   1.000  O
  O39      1.0000 0.39671  0.83690  0.62023  Biso   1.000  O
  O40      1.0000 0.60329  0.83690  0.87977  Biso   1.000  O
  O41      1.0000 0.44443  0.58310  0.15072  Biso   1.000  O
  O42      1.0000 0.55557  0.58310  0.34928  Biso   1.000  O
  O43      1.0000 0.55557  0.41690  0.84928  Biso   1.000  O
  O44      1.0000 0.44443  0.41690  0.65072  Biso   1.000  O
  O45      1.0000 0.42143  0.75220  0.08846  Biso   1.000  O
  O46      1.0000 0.57857  0.75220  0.41154  Biso   1.000  O
  O47      1.0000 0.57857  0.24780  0.91154  Biso   1.000  O
  O48      1.0000 0.42143  0.24780  0.58846  Biso   1.000  O
  O49      1.0000 0.92141  0.48830  0.99550  Biso   1.000  O
  O50      1.0000 0.07859  0.48830  0.50450  Biso   1.000  O
  O51      1.0000 0.07859  0.51170  0.00450  Biso   1.000  O
  O52      1.0000 0.92141  0.51170  0.49550  Biso   1.000  O
  H1       1.0000 0.93600  0.41900  0.01210  Biso   1.000  H
  H2       1.0000 0.06400  0.41900  0.48790  Biso   1.000  H
  H3       1.0000 0.06400  0.58100  0.98790  Biso   1.000  H
  H4       1.0000 0.93600  0.58100  0.51210  Biso   1.000  H
  H5       1.0000 0.92860  0.49560  0.95920  Biso   1.000  H
  H6       1.0000 0.07140  0.49560  0.54080  Biso   1.000  H
  H7       1.0000 0.07140  0.50440  0.04080  Biso   1.000  H
  H8       1.0000 0.92860  0.50440  0.45920  Biso   1.000  H
  O53      1.0000 0.95120  0.52300  0.38160  Biso   1.000  O
  O54      1.0000 0.04880  0.52300  0.11840  Biso   1.000  O
  O55      1.0000 0.04880  0.47700  0.61840  Biso   1.000  O
  O56      1.0000 0.95120  0.47700  0.88160  Biso   1.000  O
  H9       1.0000 0.97040  0.45750  0.37700  Biso   1.000  H
  H10      1.0000 0.02960  0.45750  0.12300  Biso   1.000  H
  H11      1.0000 0.02960  0.54250  0.62300  Biso   1.000  H
  H12      1.0000 0.97040  0.54250  0.87700  Biso   1.000  H
  H13      1.0000 0.97540  0.58040  0.39850  Biso   1.000  H
  H14      1.0000 0.02460  0.58040  0.10150  Biso   1.000  H
  H15      1.0000 0.02460  0.41960  0.60150  Biso   1.000  H
  H16      1.0000 0.97540  0.41960  0.89850  Biso   1.000  H
  O57      1.0000 0.89420  0.95670  0.06570  Biso   1.000  O
  O58      1.0000 0.10580  0.95670  0.43430  Biso   1.000  O
  O59      1.0000 0.10580  0.04330  0.93430  Biso   1.000  O
  O60      1.0000 0.89420  0.04330  0.56570  Biso   1.000  O
  H17      1.0000 0.90420  0.98470  0.10380  Biso   1.000  H
  H18      1.0000 0.09580  0.98470  0.39620  Biso   1.000  H
  H19      1.0000 0.09580  0.01530  0.89620  Biso   1.000  H
  H20      1.0000 0.90420  0.01530  0.60380  Biso   1.000  H
  H21      1.0000 0.91380  0.89020  0.06400  Biso   1.000  H
  H22      1.0000 0.08620  0.89020  0.43600  Biso   1.000  H
  H23      1.0000 0.08620  0.10980  0.93600  Biso   1.000  H
  H24      1.0000 0.91380  0.10980  0.56400  Biso   1.000  H
  O61      1.0000 0.96220  0.72350  0.06050  Biso   1.000  O
  O62      1.0000 0.03780  0.72350  0.43950  Biso   1.000  O
  O63      1.0000 0.03780  0.27650  0.93950  Biso   1.000  O
  O64      1.0000 0.96220  0.27650  0.56050  Biso   1.000  O
  H25      1.0000 0.98330  0.74560  0.03620  Biso   1.000  H
  H26      1.0000 0.01670  0.74560  0.46380  Biso   1.000  H
  H27      1.0000 0.01670  0.25440  0.96380  Biso   1.000  H
  H28      1.0000 0.98330  0.25440  0.53620  Biso   1.000  H
  H29      1.0000 0.94660  0.65290  0.04720  Biso   1.000  H
  H30      1.0000 0.05340  0.65290  0.45280  Biso   1.000  H
  H31      1.0000 0.05340  0.34710  0.95280  Biso   1.000  H
  H32      1.0000 0.94660  0.34710  0.54720  Biso   1.000  H
  O65      1.0000 0.50740  0.95430  0.06740  Biso   1.000  O
  O66      1.0000 0.49260  0.95430  0.43260  Biso   1.000  O
  O67      1.0000 0.49260  0.04570  0.93260  Biso   1.000  O
  O68      1.0000 0.50740  0.04570  0.56740  Biso   1.000  O
  H33      1.0000 0.48170  0.90010  0.07010  Biso   1.000  H
  H34      1.0000 0.51830  0.90010  0.42990  Biso   1.000  H
  H35      1.0000 0.51830  0.09990  0.92990  Biso   1.000  H
  H36      1.0000 0.48170  0.09990  0.57010  Biso   1.000  H
  H37      1.0000 0.50020  0.97930  0.02880  Biso   1.000  H
  H38      1.0000 0.49980  0.97930  0.47120  Biso   1.000  H
  H39      1.0000 0.49980  0.02070  0.97120  Biso   1.000  H
  H40      1.0000 0.50020  0.02070  0.52880  Biso   1.000  H
  O69      1.0000 0.40240  0.78960  0.35520  Biso   1.000  O
  O70      1.0000 0.59760  0.78960  0.14480  Biso   1.000  O
  O71      1.0000 0.59760  0.21040  0.64480  Biso   1.000  O
  O72      1.0000 0.40240  0.21040  0.85520  Biso   1.000  O
  H41      1.0000 0.41170  0.72350  0.33780  Biso   1.000  H
  H42      1.0000 0.58830  0.72350  0.16220  Biso   1.000  H
  H43      1.0000 0.58830  0.27650  0.66220  Biso   1.000  H
  H44      1.0000 0.41170  0.27650  0.83780  Biso   1.000  H
  H45      1.0000 0.43350  0.82600  0.37620  Biso   1.000  H
  H46      1.0000 0.56650  0.82600  0.12380  Biso   1.000  H
  H47      1.0000 0.56650  0.17400  0.62380  Biso   1.000  H
  H48      1.0000 0.43350  0.17400  0.87620  Biso   1.000  H
  C1       1.0000 0.09969  0.01620  0.77190  Biso   1.000  C
  C2       1.0000 0.90031  0.01620  0.72810  Biso   1.000  C
  C3       1.0000 0.90031  0.98380  0.22810  Biso   1.000  C
  C4       1.0000 0.09969  0.98380  0.27190  Biso   1.000  C
  C5       1.0000 0.08488  0.00040  0.69930  Biso   1.000  C
  C6       1.0000 0.91512  0.00040  0.80070  Biso   1.000  C
  C7       1.0000 0.91512  0.99960  0.30070  Biso   1.000  C
  C8       1.0000 0.08488  0.99960  0.19930  Biso   1.000  C
  C9       1.0000 0.10780  0.07750  0.66100  Biso   1.000  C
  C10      1.0000 0.89220  0.07750  0.83900  Biso   1.000  C
  C11      1.0000 0.89220  0.92250  0.33900  Biso   1.000  C
  C12      1.0000 0.10780  0.92250  0.16100  Biso   1.000  C
  H49      1.0000 0.13230  0.14400  0.67850  Biso   1.000  H
  H50      1.0000 0.86770  0.14400  0.82150  Biso   1.000  H
  H51      1.0000 0.86770  0.85600  0.32150  Biso   1.000  H
  H52      1.0000 0.13230  0.85600  0.17850  Biso   1.000  H
  C13      1.0000 0.09390  0.05440  0.59610  Biso   1.000  C
  C14      1.0000 0.90610  0.05440  0.90390  Biso   1.000  C
  C15      1.0000 0.90610  0.94560  0.40390  Biso   1.000  C
  C16      1.0000 0.09390  0.94560  0.09610  Biso   1.000  C
  H53      1.0000 0.10960  0.10420  0.56940  Biso   1.000  H
  H54      1.0000 0.89040  0.10420  0.93060  Biso   1.000  H
  H55      1.0000 0.89040  0.89580  0.43060  Biso   1.000  H
  H56      1.0000 0.10960  0.89580  0.06940  Biso   1.000  H
  C17      1.0000 0.05620  0.95640  0.57090  Biso   1.000  C
  C18      1.0000 0.94380  0.95640  0.92910  Biso   1.000  C
  C19      1.0000 0.94380  0.04360  0.42910  Biso   1.000  C
  C20      1.0000 0.05620  0.04360  0.07090  Biso   1.000  C
  H57      1.0000 0.04630  0.93940  0.52730  Biso   1.000  H
  H58      1.0000 0.95370  0.93940  0.97270  Biso   1.000  H
  H59      1.0000 0.95370  0.06060  0.47270  Biso   1.000  H
  H60      1.0000 0.04630  0.06060  0.02730  Biso   1.000  H
  C21      1.0000 0.03373  0.88450  0.61209  Biso   1.000  C
  C22      1.0000 0.96627  0.88450  0.88791  Biso   1.000  C
  C23      1.0000 0.96627  0.11550  0.38791  Biso   1.000  C
  C24      1.0000 0.03373  0.11550  0.11209  Biso   1.000  C
  C25      1.0000 0.99167  0.77550  0.59077  Biso   1.000  C
  C26      1.0000 0.00833  0.77550  0.90923  Biso   1.000  C
  C27      1.0000 0.00833  0.22450  0.40923  Biso   1.000  C
  C28      1.0000 0.99167  0.22450  0.09077  Biso   1.000  C
  C29      1.0000 0.10348  0.55090  0.76396  Biso   1.000  C
  C30      1.0000 0.89652  0.55090  0.73604  Biso   1.000  C
  C31      1.0000 0.89652  0.44910  0.23604  Biso   1.000  C
  C32      1.0000 0.10348  0.44910  0.26396  Biso   1.000  C
  C33      1.0000 0.05020  0.47030  0.75779  Biso   1.000  C
  C34      1.0000 0.94980  0.47030  0.74221  Biso   1.000  C
  C35      1.0000 0.94980  0.52970  0.24221  Biso   1.000  C
  C36      1.0000 0.05020  0.52970  0.25779  Biso   1.000  C
  C37      1.0000 0.05192  0.34000  0.75910  Biso   1.000  C
  C38      1.0000 0.94808  0.34000  0.74090  Biso   1.000  C
  C39      1.0000 0.94808  0.66000  0.24090  Biso   1.000  C
  C40      1.0000 0.05192  0.66000  0.25910  Biso   1.000  C
  H61      1.0000 0.08730  0.29740  0.76600  Biso   1.000  H
  H62      1.0000 0.91270  0.29740  0.73400  Biso   1.000  H
  H63      1.0000 0.91270  0.70260  0.23400  Biso   1.000  H
  H64      1.0000 0.08730  0.70260  0.26600  Biso   1.000  H
  C41      1.0000 0.00000  0.27380  0.75000  Biso   1.000  C
  C42      1.0000 0.00000  0.72620  0.25000  Biso   1.000  C
  H65      1.0000 0.00000  0.18610  0.75000  Biso   1.000  H
  H66      1.0000 0.00000  0.81390  0.25000  Biso   1.000  H
  C43      1.0000 0.39529  0.49260  0.33099  Biso   1.000  C
  C44      1.0000 0.60471  0.49260  0.16901  Biso   1.000  C
  C45      1.0000 0.60471  0.50740  0.66901  Biso   1.000  C
  C46      1.0000 0.39529  0.50740  0.83099  Biso   1.000  C
  C47      1.0000 0.43885  0.40690  0.37503  Biso   1.000  C
  C48      1.0000 0.56115  0.40690  0.12497  Biso   1.000  C
  C49      1.0000 0.56115  0.59310  0.62497  Biso   1.000  C
  C50      1.0000 0.43885  0.59310  0.87503  Biso   1.000  C
  C51      1.0000 0.43670  0.37560  0.43610  Biso   1.000  C
  C52      1.0000 0.56330  0.37560  0.06390  Biso   1.000  C
  C53      1.0000 0.56330  0.62440  0.56390  Biso   1.000  C
  C54      1.0000 0.43670  0.62440  0.93610  Biso   1.000  C
  H67      1.0000 0.40690  0.40660  0.45260  Biso   1.000  H
  H68      1.0000 0.59310  0.40660  0.04740  Biso   1.000  H
  H69      1.0000 0.59310  0.59340  0.54740  Biso   1.000  H
  H70      1.0000 0.40690  0.59340  0.95260  Biso   1.000  H
  C55      1.0000 0.47920  0.29770  0.47250  Biso   1.000  C
  C56      1.0000 0.52080  0.29770  0.02750  Biso   1.000  C
  C57      1.0000 0.52080  0.70230  0.52750  Biso   1.000  C
  C58      1.0000 0.47920  0.70230  0.97250  Biso   1.000  C
  H71      1.0000 0.47890  0.27700  0.51410  Biso   1.000  H
  H72      1.0000 0.52110  0.27700  0.98590  Biso   1.000  H
  H73      1.0000 0.52110  0.72300  0.48590  Biso   1.000  H
  H74      1.0000 0.47890  0.72300  0.01410  Biso   1.000  H
  C59      1.0000 0.52250  0.25020  0.44650  Biso   1.000  C
  C60      1.0000 0.47750  0.25020  0.05350  Biso   1.000  C
  C61      1.0000 0.47750  0.74980  0.55350  Biso   1.000  C
  C62      1.0000 0.52250  0.74980  0.94650  Biso   1.000  C
  H75      1.0000 0.55110  0.19610  0.46980  Biso   1.000  H
  H76      1.0000 0.44890  0.19610  0.03020  Biso   1.000  H
  H77      1.0000 0.44890  0.80390  0.53020  Biso   1.000  H
  H78      1.0000 0.55110  0.80390  0.96980  Biso   1.000  H
  C63      1.0000 0.52167  0.28630  0.38470  Biso   1.000  C
  C64      1.0000 0.47833  0.28630  0.11530  Biso   1.000  C
  C65      1.0000 0.47833  0.71370  0.61530  Biso   1.000  C
  C66      1.0000 0.52167  0.71370  0.88470  Biso   1.000  C
  C67      1.0000 0.56769  0.24470  0.35208  Biso   1.000  C
  C68      1.0000 0.43231  0.24470  0.14792  Biso   1.000  C
  C69      1.0000 0.43231  0.75530  0.64792  Biso   1.000  C
  C70      1.0000 0.56769  0.75530  0.85208  Biso   1.000  C
  C71      1.0000 0.44404  0.69920  0.14010  Biso   1.000  C
  C72      1.0000 0.55596  0.69920  0.35990  Biso   1.000  C
  C73      1.0000 0.55596  0.30080  0.85990  Biso   1.000  C
  C74      1.0000 0.44404  0.30080  0.64010  Biso   1.000  C
  C75      1.0000 0.47293  0.78230  0.19710  Biso   1.000  C
  C76      1.0000 0.52707  0.78230  0.30290  Biso   1.000  C
  C77      1.0000 0.52707  0.21770  0.80290  Biso   1.000  C
  C78      1.0000 0.47293  0.21770  0.69710  Biso   1.000  C
  C79      1.0000 0.47250  0.91150  0.19560  Biso   1.000  C
  C80      1.0000 0.52750  0.91150  0.30440  Biso   1.000  C
  C81      1.0000 0.52750  0.08850  0.80440  Biso   1.000  C
  C82      1.0000 0.47250  0.08850  0.69560  Biso   1.000  C
  H79      1.0000 0.45390  0.95420  0.15830  Biso   1.000  H
  H80      1.0000 0.54610  0.95420  0.34170  Biso   1.000  H
  H81      1.0000 0.54610  0.04580  0.84170  Biso   1.000  H
  H82      1.0000 0.45390  0.04580  0.65830  Biso   1.000  H
  C83      1.0000 0.50000  0.97740  0.25000  Biso   1.000  C
  C84      1.0000 0.50000  0.02260  0.75000  Biso   1.000  C
  H83      1.0000 0.50000  0.06520  0.25000  Biso   1.000  H
  H84      1.0000 0.50000  0.93480  0.75000  Biso   1.000  H
  C85      1.0000 0.18330  0.71900  0.65597  Biso   1.000  C
  C86      1.0000 0.81670  0.71900  0.84403  Biso   1.000  C
  C87      1.0000 0.81670  0.28100  0.34403  Biso   1.000  C
  C88      1.0000 0.18330  0.28100  0.15597  Biso   1.000  C
  H85      1.0000 0.14850  0.74760  0.66310  Biso   1.000  H
  H86      1.0000 0.85150  0.74760  0.83690  Biso   1.000  H
  H87      1.0000 0.85150  0.25240  0.33690  Biso   1.000  H
  H88      1.0000 0.14850  0.25240  0.16310  Biso   1.000  H
  C89      1.0000 0.18860  0.71840  0.59410  Biso   1.000  C
  C90      1.0000 0.81140  0.71840  0.90590  Biso   1.000  C
  C91      1.0000 0.81140  0.28160  0.40590  Biso   1.000  C
  C92      1.0000 0.18860  0.28160  0.09410  Biso   1.000  C
  H89      1.0000 0.15810  0.74740  0.56080  Biso   1.000  H
  H90      1.0000 0.84190  0.74740  0.93920  Biso   1.000  H
  H91      1.0000 0.84190  0.25260  0.43920  Biso   1.000  H
  H92      1.0000 0.15810  0.25260  0.06080  Biso   1.000  H
  C93      1.0000 0.23978  0.67410  0.58162  Biso   1.000  C
  C94      1.0000 0.76022  0.67410  0.91838  Biso   1.000  C
  C95      1.0000 0.76022  0.32590  0.41838  Biso   1.000  C
  C96      1.0000 0.23978  0.32590  0.08162  Biso   1.000  C
  C97      1.0000 0.28397  0.63500  0.63424  Biso   1.000  C
  C98      1.0000 0.71603  0.63500  0.86576  Biso   1.000  C
  C99      1.0000 0.71603  0.36500  0.36576  Biso   1.000  C
  C100     1.0000 0.28397  0.36500  0.13424  Biso   1.000  C
  H93      1.0000 0.31910  0.60550  0.62850  Biso   1.000  H
  H94      1.0000 0.68090  0.60550  0.87150  Biso   1.000  H
  H95      1.0000 0.68090  0.39450  0.37150  Biso   1.000  H
  H96      1.0000 0.31910  0.39450  0.12850  Biso   1.000  H
  C101     1.0000 0.27538  0.64030  0.69532  Biso   1.000  C
  C102     1.0000 0.72462  0.64030  0.80468  Biso   1.000  C
  C103     1.0000 0.72462  0.35970  0.30468  Biso   1.000  C
  C104     1.0000 0.27538  0.35970  0.19532  Biso   1.000  C
  H97      1.0000 0.30560  0.61470  0.72980  Biso   1.000  H
  H98      1.0000 0.69440  0.61470  0.77020  Biso   1.000  H
  H99      1.0000 0.69440  0.38530  0.27020  Biso   1.000  H
  H100     1.0000 0.30560  0.38530  0.22980  Biso   1.000  H
  C105     1.0000 0.30533  0.66740  0.44110  Biso   1.000  C
  C106     1.0000 0.69467  0.66740  0.05890  Biso   1.000  C
  C107     1.0000 0.69467  0.33260  0.55890  Biso   1.000  C
  C108     1.0000 0.30533  0.33260  0.94110  Biso   1.000  C
  H101     1.0000 0.34230  0.67150  0.43410  Biso   1.000  H
  H102     1.0000 0.65770  0.67150  0.06590  Biso   1.000  H
  H103     1.0000 0.65770  0.32850  0.56590  Biso   1.000  H
  H104     1.0000 0.34230  0.32850  0.93410  Biso   1.000  H
  C109     1.0000 0.30063  0.67320  0.50310  Biso   1.000  C
  C110     1.0000 0.69937  0.67320  0.99690  Biso   1.000  C
  C111     1.0000 0.69937  0.32680  0.49690  Biso   1.000  C
  C112     1.0000 0.30063  0.32680  0.00310  Biso   1.000  C
  H105     1.0000 0.33410  0.68150  0.53680  Biso   1.000  H
  H106     1.0000 0.66590  0.68150  0.96320  Biso   1.000  H
  H107     1.0000 0.66590  0.31850  0.46320  Biso   1.000  H
  H108     1.0000 0.33410  0.31850  0.03680  Biso   1.000  H
  C113     1.0000 0.24651  0.66680  0.51556  Biso   1.000  C
  C114     1.0000 0.75349  0.66680  0.98444  Biso   1.000  C
  C115     1.0000 0.75349  0.33320  0.48444  Biso   1.000  C
  C116     1.0000 0.24651  0.33320  0.01556  Biso   1.000  C
  C117     1.0000 0.19870  0.65660  0.46282  Biso   1.000  C
  C118     1.0000 0.80130  0.65660  0.03718  Biso   1.000  C
  C119     1.0000 0.80130  0.34340  0.53718  Biso   1.000  C
  C120     1.0000 0.19870  0.34340  0.96282  Biso   1.000  C
  H109     1.0000 0.16130  0.65360  0.46860  Biso   1.000  H
  H110     1.0000 0.83870  0.65360  0.03140  Biso   1.000  H
  H111     1.0000 0.83870  0.34640  0.53140  Biso   1.000  H
  H112     1.0000 0.16130  0.34640  0.96860  Biso   1.000  H
  C121     1.0000 0.20620  0.65090  0.40216  Biso   1.000  C
  C122     1.0000 0.79380  0.65090  0.09784  Biso   1.000  C
  C123     1.0000 0.79380  0.34910  0.59784  Biso   1.000  C
  C124     1.0000 0.20620  0.34910  0.90216  Biso   1.000  C
  H113     1.0000 0.17330  0.64320  0.36780  Biso   1.000  H
  H114     1.0000 0.82670  0.64320  0.13220  Biso   1.000  H
  H115     1.0000 0.82670  0.35680  0.63220  Biso   1.000  H
  H116     1.0000 0.17330  0.35680  0.86780  Biso   1.000  H
  C125     1.0000 0.17631  0.71950  0.90445  Biso   1.000  C
  C126     1.0000 0.82369  0.71950  0.59555  Biso   1.000  C
  C127     1.0000 0.82369  0.28050  0.09555  Biso   1.000  C
  C128     1.0000 0.17631  0.28050  0.40445  Biso   1.000  C
  H117     1.0000 0.14020  0.73760  0.87650  Biso   1.000  H
  H118     1.0000 0.85980  0.73760  0.62350  Biso   1.000  H
  H119     1.0000 0.85980  0.26240  0.12350  Biso   1.000  H
  H120     1.0000 0.14020  0.26240  0.37650  Biso   1.000  H
  C129     1.0000 0.18111  0.72090  0.96926  Biso   1.000  C
  C130     1.0000 0.81889  0.72090  0.53074  Biso   1.000  C
  C131     1.0000 0.81889  0.27910  0.03074  Biso   1.000  C
  C132     1.0000 0.18111  0.27910  0.46926  Biso   1.000  C
  H121     1.0000 0.14870  0.73970  0.98410  Biso   1.000  H
  H122     1.0000 0.85130  0.73970  0.51590  Biso   1.000  H
  H123     1.0000 0.85130  0.26030  0.01590  Biso   1.000  H
  H124     1.0000 0.14870  0.26030  0.48410  Biso   1.000  H
  C133     1.0000 0.23446  0.69440  0.01247  Biso   1.000  C
  C134     1.0000 0.76554  0.69440  0.48753  Biso   1.000  C
  C135     1.0000 0.76554  0.30560  0.98753  Biso   1.000  C
  C136     1.0000 0.23446  0.30560  0.51247  Biso   1.000  C
  C137     1.0000 0.28142  0.67120  0.98702  Biso   1.000  C
  C138     1.0000 0.71858  0.67120  0.51298  Biso   1.000  C
  C139     1.0000 0.71858  0.32880  0.01298  Biso   1.000  C
  C140     1.0000 0.28142  0.32880  0.48702  Biso   1.000  C
  H125     1.0000 0.31830  0.65620  0.01400  Biso   1.000  H
  H126     1.0000 0.68170  0.65620  0.48600  Biso   1.000  H
  H127     1.0000 0.68170  0.34380  0.98600  Biso   1.000  H
  H128     1.0000 0.31830  0.34380  0.51400  Biso   1.000  H
  C141     1.0000 0.27314  0.67050  0.92165  Biso   1.000  C
  C142     1.0000 0.72686  0.67050  0.57835  Biso   1.000  C
  C143     1.0000 0.72686  0.32950  0.07835  Biso   1.000  C
  C144     1.0000 0.27314  0.32950  0.42165  Biso   1.000  C
  H129     1.0000 0.30500  0.65340  0.90550  Biso   1.000  H
  H130     1.0000 0.69500  0.65340  0.59450  Biso   1.000  H
  H131     1.0000 0.69500  0.34660  0.09450  Biso   1.000  H
  H132     1.0000 0.30500  0.34660  0.40550  Biso   1.000  H
  C145     1.0000 0.30109  0.69280  0.19057  Biso   1.000  C
  C146     1.0000 0.69891  0.69280  0.30943  Biso   1.000  C
  C147     1.0000 0.69891  0.30720  0.80943  Biso   1.000  C
  C148     1.0000 0.30109  0.30720  0.69057  Biso   1.000  C
  H133     1.0000 0.33760  0.70630  0.21860  Biso   1.000  H
  H134     1.0000 0.66240  0.70630  0.28140  Biso   1.000  H
  H135     1.0000 0.66240  0.29370  0.78140  Biso   1.000  H
  H136     1.0000 0.33760  0.29370  0.71860  Biso   1.000  H
  C149     1.0000 0.29500  0.70910  0.12654  Biso   1.000  C
  C150     1.0000 0.70500  0.70910  0.37346  Biso   1.000  C
  C151     1.0000 0.70500  0.29090  0.87346  Biso   1.000  C
  C152     1.0000 0.29500  0.29090  0.62654  Biso   1.000  C
  H137     1.0000 0.32680  0.73510  0.11220  Biso   1.000  H
  H138     1.0000 0.67320  0.73510  0.38780  Biso   1.000  H
  H139     1.0000 0.67320  0.26490  0.88780  Biso   1.000  H
  H140     1.0000 0.32680  0.26490  0.61220  Biso   1.000  H
  C153     1.0000 0.24138  0.68700  0.08266  Biso   1.000  C
  C154     1.0000 0.75862  0.68700  0.41734  Biso   1.000  C
  C155     1.0000 0.75862  0.31300  0.91734  Biso   1.000  C
  C156     1.0000 0.24138  0.31300  0.58266  Biso   1.000  C
  C157     1.0000 0.19498  0.65270  0.10765  Biso   1.000  C
  C158     1.0000 0.80502  0.65270  0.39235  Biso   1.000  C
  C159     1.0000 0.80502  0.34730  0.89235  Biso   1.000  C
  C160     1.0000 0.19498  0.34730  0.60765  Biso   1.000  C
  H141     1.0000 0.15800  0.63860  0.08060  Biso   1.000  H
  H142     1.0000 0.84200  0.63860  0.41940  Biso   1.000  H
  H143     1.0000 0.84200  0.36140  0.91940  Biso   1.000  H
  H144     1.0000 0.15800  0.36140  0.58060  Biso   1.000  H
  C161     1.0000 0.20479  0.64020  0.17312  Biso   1.000  C
  C162     1.0000 0.79521  0.64020  0.32688  Biso   1.000  C
  C163     1.0000 0.79521  0.35980  0.82688  Biso   1.000  C
  C164     1.0000 0.20479  0.35980  0.67312  Biso   1.000  C
  H145     1.0000 0.17340  0.61800  0.18910  Biso   1.000  H
  H146     1.0000 0.82660  0.61800  0.31090  Biso   1.000  H
  H147     1.0000 0.82660  0.38200  0.81090  Biso   1.000  H
  H148     1.0000 0.17340  0.38200  0.68910  Biso   1.000  H
  C165     1.0000 0.64633  0.98480  0.48985  Biso   1.000  C
  C166     1.0000 0.35367  0.98480  0.01015  Biso   1.000  C
  C167     1.0000 0.35367  0.01520  0.51015  Biso   1.000  C
  C168     1.0000 0.64633  0.01520  0.98985  Biso   1.000  C
  H149     1.0000 0.61160  0.97590  0.45800  Biso   1.000  H
  H150     1.0000 0.38840  0.97590  0.04200  Biso   1.000  H
  H151     1.0000 0.38840  0.02410  0.54200  Biso   1.000  H
  H152     1.0000 0.61160  0.02410  0.95800  Biso   1.000  H
  C169     1.0000 0.64487  0.97060  0.55228  Biso   1.000  C
  C170     1.0000 0.35513  0.97060  0.94772  Biso   1.000  C
  C171     1.0000 0.35513  0.02940  0.44772  Biso   1.000  C
  C172     1.0000 0.64487  0.02940  0.05228  Biso   1.000  C
  H153     1.0000 0.60970  0.95280  0.56190  Biso   1.000  H
  H154     1.0000 0.39030  0.95280  0.93810  Biso   1.000  H
  H155     1.0000 0.39030  0.04720  0.43810  Biso   1.000  H
  H156     1.0000 0.60970  0.04720  0.06190  Biso   1.000  H
  C173     1.0000 0.69628  0.98290  0.60172  Biso   1.000  C
  C174     1.0000 0.30372  0.98290  0.89828  Biso   1.000  C
  C175     1.0000 0.30372  0.01710  0.39828  Biso   1.000  C
  C176     1.0000 0.69628  0.01710  0.10172  Biso   1.000  C
  C177     1.0000 0.74735  0.00740  0.58319  Biso   1.000  C
  C178     1.0000 0.25265  0.00740  0.91681  Biso   1.000  C
  C179     1.0000 0.25265  0.99260  0.41681  Biso   1.000  C
  C180     1.0000 0.74735  0.99260  0.08319  Biso   1.000  C
  H157     1.0000 0.78280  0.01520  0.61390  Biso   1.000  H
  H158     1.0000 0.21720  0.01520  0.88610  Biso   1.000  H
  H159     1.0000 0.21720  0.98480  0.38610  Biso   1.000  H
  H160     1.0000 0.78280  0.98480  0.11390  Biso   1.000  H
  C181     1.0000 0.74503  0.02000  0.51937  Biso   1.000  C
  C182     1.0000 0.25497  0.02000  0.98063  Biso   1.000  C
  C183     1.0000 0.25497  0.98000  0.48063  Biso   1.000  C
  C184     1.0000 0.74503  0.98000  0.01937  Biso   1.000  C
  H161     1.0000 0.77960  0.03570  0.50820  Biso   1.000  H
  H162     1.0000 0.22040  0.03570  0.99180  Biso   1.000  H
  H163     1.0000 0.22040  0.96430  0.49180  Biso   1.000  H
  H164     1.0000 0.77960  0.96430  0.00820  Biso   1.000  H
  C185     1.0000 0.65130  0.89720  0.75046  Biso   1.000  C
  C186     1.0000 0.34870  0.89720  0.74954  Biso   1.000  C
  C187     1.0000 0.34870  0.10280  0.24954  Biso   1.000  C
  C188     1.0000 0.65130  0.10280  0.25046  Biso   1.000  C
  H165     1.0000 0.62130  0.85290  0.76090  Biso   1.000  H
  H166     1.0000 0.37870  0.85290  0.73910  Biso   1.000  H
  H167     1.0000 0.37870  0.14710  0.23910  Biso   1.000  H
  H168     1.0000 0.62130  0.14710  0.26090  Biso   1.000  H
  C189     1.0000 0.65191  0.90360  0.68703  Biso   1.000  C
  C190     1.0000 0.34809  0.90360  0.81297  Biso   1.000  C
  C191     1.0000 0.34809  0.09640  0.31297  Biso   1.000  C
  C192     1.0000 0.65191  0.09640  0.18703  Biso   1.000  C
  H169     1.0000 0.62290  0.86330  0.65600  Biso   1.000  H
  H170     1.0000 0.37710  0.86330  0.84400  Biso   1.000  H
  H171     1.0000 0.37710  0.13670  0.34400  Biso   1.000  H
  H172     1.0000 0.62290  0.13670  0.15600  Biso   1.000  H
  C193     1.0000 0.69567  0.96990  0.66943  Biso   1.000  C
  C194     1.0000 0.30433  0.96990  0.83057  Biso   1.000  C
  C195     1.0000 0.30433  0.03010  0.33057  Biso   1.000  C
  C196     1.0000 0.69567  0.03010  0.16943  Biso   1.000  C
  C197     1.0000 0.73823  0.02510  0.71840  Biso   1.000  C
  C198     1.0000 0.26177  0.02510  0.78160  Biso   1.000  C
  C199     1.0000 0.26177  0.97490  0.28160  Biso   1.000  C
  C200     1.0000 0.73823  0.97490  0.21840  Biso   1.000  C
  H173     1.0000 0.76880  0.06950  0.70920  Biso   1.000  H
  H174     1.0000 0.23120  0.06950  0.79080  Biso   1.000  H
  H175     1.0000 0.23120  0.93050  0.29080  Biso   1.000  H
  H176     1.0000 0.76880  0.93050  0.20920  Biso   1.000  H
  C201     1.0000 0.73489  0.01370  0.78075  Biso   1.000  C
  C202     1.0000 0.26511  0.01370  0.71925  Biso   1.000  C
  C203     1.0000 0.26511  0.98630  0.21925  Biso   1.000  C
  C204     1.0000 0.73489  0.98630  0.28075  Biso   1.000  C
  H177     1.0000 0.76400  0.05110  0.81280  Biso   1.000  H
  H178     1.0000 0.23600  0.05110  0.68720  Biso   1.000  H
  H179     1.0000 0.23600  0.94890  0.18720  Biso   1.000  H
  H180     1.0000 0.76400  0.94890  0.31280  Biso   1.000  H
  H181     1.0000 0.54130  0.92220  0.07920  Biso   1.000  H
  H182     1.0000 0.45870  0.92220  0.42080  Biso   1.000  H
  H183     1.0000 0.45870  0.07780  0.92080  Biso   1.000  H
  H184     1.0000 0.54130  0.07780  0.57920  Biso   1.000  H
