data_image0
_cell_length_a       23.68
_cell_length_b       10.5601
_cell_length_c       21.642
_cell_angle_alpha    90
_cell_angle_beta     105.406
_cell_angle_gamma    90

_symmetry_space_group_name_H-M    "P 1"
_symmetry_int_tables_number       1

loop_
  _symmetry_equiv_pos_as_xyz
  'x, y, z'

loop_
  _atom_site_label
  _atom_site_occupancy
  _atom_site_fract_x
  _atom_site_fract_y
  _atom_site_fract_z
  _atom_site_thermal_displace_type
  _atom_site_B_iso_or_equiv
  _atom_site_type_symbol
  Nd1      1.0000 0.00000  0.77869  0.75000  Biso   1.000  Nd
  Nd2      1.0000 0.00000  0.22131  0.25000  Biso   1.000  Nd
  Nd3      1.0000 0.50000  0.47141  0.25000  Biso   1.000  Nd
  Nd4      1.0000 0.50000  0.52859  0.75000  Biso   1.000  Nd
  Cu1      1.0000 0.21198  0.66932  0.78994  Biso   1.000  Cu
  Cu2      1.0000 0.78802  0.66932  0.71006  Biso   1.000  Cu
  Cu3      1.0000 0.78802  0.33068  0.21006  Biso   1.000  Cu
  Cu4      1.0000 0.21198  0.33068  0.28994  Biso   1.000  Cu
  Cu5      1.0000 0.26890  0.63341  0.30559  Biso   1.000  Cu
  Cu6      1.0000 0.73110  0.63341  0.19441  Biso   1.000  Cu
  Cu7      1.0000 0.73110  0.36659  0.69441  Biso   1.000  Cu
  Cu8      1.0000 0.26890  0.36659  0.80559  Biso   1.000  Cu
  Cu9      1.0000 0.68640  0.04710  0.38302  Biso   1.000  Cu
  Cu10     1.0000 0.31360  0.04710  0.11698  Biso   1.000  Cu
  Cu11     1.0000 0.31360  0.95290  0.61698  Biso   1.000  Cu
  Cu12     1.0000 0.68640  0.95290  0.88302  Biso   1.000  Cu
  N1       1.0000 0.04830  0.90590  0.67630  Biso   1.000  N
  N2       1.0000 0.95170  0.90590  0.82370  Biso   1.000  N
  N3       1.0000 0.95170  0.09410  0.32370  Biso   1.000  N
  N4       1.0000 0.04830  0.09410  0.17630  Biso   1.000  N
  N5       1.0000 0.00000  0.53510  0.75000  Biso   1.000  N
  N6       1.0000 0.00000  0.46490  0.25000  Biso   1.000  N
  N7       1.0000 0.48110  0.35980  0.34970  Biso   1.000  N
  N8       1.0000 0.51890  0.35980  0.15030  Biso   1.000  N
  N9       1.0000 0.51890  0.64020  0.65030  Biso   1.000  N
  N10      1.0000 0.48110  0.64020  0.84970  Biso   1.000  N
  N11      1.0000 0.50000  0.71370  0.25000  Biso   1.000  N
  N12      1.0000 0.50000  0.28630  0.75000  Biso   1.000  N
  N13      1.0000 0.22620  0.68110  0.70660  Biso   1.000  N
  N14      1.0000 0.77380  0.68110  0.79340  Biso   1.000  N
  N15      1.0000 0.77380  0.31890  0.29340  Biso   1.000  N
  N16      1.0000 0.22620  0.31890  0.20660  Biso   1.000  N
  N17      1.0000 0.25920  0.65550  0.39030  Biso   1.000  N
  N18      1.0000 0.74080  0.65550  0.10970  Biso   1.000  N
  N19      1.0000 0.74080  0.34450  0.60970  Biso   1.000  N
  N20      1.0000 0.25920  0.34450  0.89030  Biso   1.000  N
  N21      1.0000 0.22120  0.69390  0.87990  Biso   1.000  N
  N22      1.0000 0.77880  0.69390  0.62010  Biso   1.000  N
  N23      1.0000 0.77880  0.30610  0.12010  Biso   1.000  N
  N24      1.0000 0.22120  0.30610  0.37990  Biso   1.000  N
  N25      1.0000 0.25660  0.65750  0.21510  Biso   1.000  N
  N26      1.0000 0.74340  0.65750  0.28490  Biso   1.000  N
  N27      1.0000 0.74340  0.34250  0.78490  Biso   1.000  N
  N28      1.0000 0.25660  0.34250  0.71510  Biso   1.000  N
  N29      1.0000 0.69490  0.00930  0.47120  Biso   1.000  N
  N30      1.0000 0.30510  0.00930  0.02880  Biso   1.000  N
  N31      1.0000 0.30510  0.99070  0.52880  Biso   1.000  N
  N32      1.0000 0.69490  0.99070  0.97120  Biso   1.000  N
  N33      1.0000 0.69210  0.95360  0.79710  Biso   1.000  N
  N34      1.0000 0.30790  0.95360  0.70290  Biso   1.000  N
  N35      1.0000 0.30790  0.04640  0.20290  Biso   1.000  N
  N36      1.0000 0.69210  0.04640  0.29710  Biso   1.000  N
  O1       1.0000 0.07088  0.94260  0.80102  Biso   1.000  O
  O2       1.0000 0.92912  0.94260  0.69898  Biso   1.000  O
  O3       1.0000 0.92912  0.05740  0.19898  Biso   1.000  O
  O4       1.0000 0.07088  0.05740  0.30102  Biso   1.000  O
  O5       1.0000 0.13559  0.09650  0.79840  Biso   1.000  O
  O6       1.0000 0.86441  0.09650  0.70160  Biso   1.000  O
  O7       1.0000 0.86441  0.90350  0.20160  Biso   1.000  O
  O8       1.0000 0.13559  0.90350  0.29840  Biso   1.000  O
  O9       1.0000 0.97625  0.71600  0.63478  Biso   1.000  O
  O10      1.0000 0.02375  0.71600  0.86522  Biso   1.000  O
  O11      1.0000 0.02375  0.28400  0.36522  Biso   1.000  O
  O12      1.0000 0.97625  0.28400  0.13478  Biso   1.000  O
  O13      1.0000 0.97610  0.74830  0.53350  Biso   1.000  O
  O14      1.0000 0.02390  0.74830  0.96650  Biso   1.000  O
  O15      1.0000 0.02390  0.25170  0.46650  Biso   1.000  O
  O16      1.0000 0.97610  0.25170  0.03350  Biso   1.000  O
  O17      1.0000 0.09554  0.67010  0.75881  Biso   1.000  O
  O18      1.0000 0.90446  0.67010  0.74119  Biso   1.000  O
  O19      1.0000 0.90446  0.32990  0.24119  Biso   1.000  O
  O20      1.0000 0.09554  0.32990  0.25881  Biso   1.000  O
  O21      1.0000 0.15230  0.49890  0.77480  Biso   1.000  O
  O22      1.0000 0.84770  0.49890  0.72520  Biso   1.000  O
  O23      1.0000 0.84770  0.50110  0.22520  Biso   1.000  O
  O24      1.0000 0.15230  0.50110  0.27480  Biso   1.000  O
  O25      1.0000 0.40995  0.53310  0.28260  Biso   1.000  O
  O26      1.0000 0.59005  0.53310  0.21740  Biso   1.000  O
  O27      1.0000 0.59005  0.46690  0.71740  Biso   1.000  O
  O28      1.0000 0.40995  0.46690  0.78260  Biso   1.000  O
  O29      1.0000 0.34940  0.51440  0.34480  Biso   1.000  O
  O30      1.0000 0.65060  0.51440  0.15520  Biso   1.000  O
  O31      1.0000 0.65060  0.48560  0.65520  Biso   1.000  O
  O32      1.0000 0.34940  0.48560  0.84480  Biso   1.000  O
  O33      1.0000 0.56631  0.29530  0.29899  Biso   1.000  O
  O34      1.0000 0.43369  0.29530  0.20101  Biso   1.000  O
  O35      1.0000 0.43369  0.70470  0.70101  Biso   1.000  O
  O36      1.0000 0.56631  0.70470  0.79899  Biso   1.000  O
  O37      1.0000 0.60320  0.15950  0.37862  Biso   1.000  O
  O38      1.0000 0.39680  0.15950  0.12138  Biso   1.000  O
  O39      1.0000 0.39680  0.84050  0.62138  Biso   1.000  O
  O40      1.0000 0.60320  0.84050  0.87862  Biso   1.000  O
  O41      1.0000 0.44463  0.57720  0.15108  Biso   1.000  O
  O42      1.0000 0.55537  0.57720  0.34892  Biso   1.000  O
  O43      1.0000 0.55537  0.42280  0.84892  Biso   1.000  O
  O44      1.0000 0.44463  0.42280  0.65108  Biso   1.000  O
  O45      1.0000 0.42130  0.74740  0.08810  Biso   1.000  O
  O46      1.0000 0.57870  0.74740  0.41190  Biso   1.000  O
  O47      1.0000 0.57870  0.25260  0.91190  Biso   1.000  O
  O48      1.0000 0.42130  0.25260  0.58810  Biso   1.000  O
  O49      1.0000 0.92160  0.48960  0.99540  Biso   1.000  O
  O50      1.0000 0.07840  0.48960  0.50460  Biso   1.000  O
  O51      1.0000 0.07840  0.51040  0.00460  Biso   1.000  O
  O52      1.0000 0.92160  0.51040  0.49540  Biso   1.000  O
  H1       1.0000 0.93620  0.42030  0.01200  Biso   1.000  H
  H2       1.0000 0.06380  0.42030  0.48800  Biso   1.000  H
  H3       1.0000 0.06380  0.57970  0.98800  Biso   1.000  H
  H4       1.0000 0.93620  0.57970  0.51200  Biso   1.000  H
  H5       1.0000 0.92870  0.49700  0.95920  Biso   1.000  H
  H6       1.0000 0.07130  0.49700  0.54080  Biso   1.000  H
  H7       1.0000 0.07130  0.50300  0.04080  Biso   1.000  H
  H8       1.0000 0.92870  0.50300  0.45920  Biso   1.000  H
  O53      1.0000 0.95040  0.52370  0.38170  Biso   1.000  O
  O54      1.0000 0.04960  0.52370  0.11830  Biso   1.000  O
  O55      1.0000 0.04960  0.47630  0.61830  Biso   1.000  O
  O56      1.0000 0.95040  0.47630  0.88170  Biso   1.000  O
  H9       1.0000 0.96950  0.45820  0.37710  Biso   1.000  H
  H10      1.0000 0.03050  0.45820  0.12290  Biso   1.000  H
  H11      1.0000 0.03050  0.54180  0.62290  Biso   1.000  H
  H12      1.0000 0.96950  0.54180  0.87710  Biso   1.000  H
  H13      1.0000 0.97450  0.58120  0.39860  Biso   1.000  H
  H14      1.0000 0.02550  0.58120  0.10140  Biso   1.000  H
  H15      1.0000 0.02550  0.41880  0.60140  Biso   1.000  H
  H16      1.0000 0.97450  0.41880  0.89860  Biso   1.000  H
  O57      1.0000 0.89370  0.95590  0.06520  Biso   1.000  O
  O58      1.0000 0.10630  0.95590  0.43480  Biso   1.000  O
  O59      1.0000 0.10630  0.04410  0.93480  Biso   1.000  O
  O60      1.0000 0.89370  0.04410  0.56520  Biso   1.000  O
  H17      1.0000 0.90370  0.98400  0.10330  Biso   1.000  H
  H18      1.0000 0.09630  0.98400  0.39670  Biso   1.000  H
  H19      1.0000 0.09630  0.01600  0.89670  Biso   1.000  H
  H20      1.0000 0.90370  0.01600  0.60330  Biso   1.000  H
  H21      1.0000 0.91330  0.88940  0.06350  Biso   1.000  H
  H22      1.0000 0.08670  0.88940  0.43650  Biso   1.000  H
  H23      1.0000 0.08670  0.11060  0.93650  Biso   1.000  H
  H24      1.0000 0.91330  0.11060  0.56350  Biso   1.000  H
  O61      1.0000 0.96280  0.72500  0.06000  Biso   1.000  O
  O62      1.0000 0.03720  0.72500  0.44000  Biso   1.000  O
  O63      1.0000 0.03720  0.27500  0.94000  Biso   1.000  O
  O64      1.0000 0.96280  0.27500  0.56000  Biso   1.000  O
  H25      1.0000 0.98390  0.74710  0.03570  Biso   1.000  H
  H26      1.0000 0.01610  0.74710  0.46430  Biso   1.000  H
  H27      1.0000 0.01610  0.25290  0.96430  Biso   1.000  H
  H28      1.0000 0.98390  0.25290  0.53570  Biso   1.000  H
  H29      1.0000 0.94720  0.65450  0.04670  Biso   1.000  H
  H30      1.0000 0.05280  0.65450  0.45330  Biso   1.000  H
  H31      1.0000 0.05280  0.34550  0.95330  Biso   1.000  H
  H32      1.0000 0.94720  0.34550  0.54670  Biso   1.000  H
  O65      1.0000 0.50790  0.95610  0.07040  Biso   1.000  O
  O66      1.0000 0.49210  0.95610  0.42960  Biso   1.000  O
  O67      1.0000 0.49210  0.04390  0.92960  Biso   1.000  O
  O68      1.0000 0.50790  0.04390  0.57040  Biso   1.000  O
  H33      1.0000 0.48230  0.90180  0.07320  Biso   1.000  H
  H34      1.0000 0.51770  0.90180  0.42680  Biso   1.000  H
  H35      1.0000 0.51770  0.09820  0.92680  Biso   1.000  H
  H36      1.0000 0.48230  0.09820  0.57320  Biso   1.000  H
  H37      1.0000 0.50080  0.98110  0.03190  Biso   1.000  H
  H38      1.0000 0.49920  0.98110  0.46810  Biso   1.000  H
  H39      1.0000 0.49920  0.01890  0.96810  Biso   1.000  H
  H40      1.0000 0.50080  0.01890  0.53190  Biso   1.000  H
  O69      1.0000 0.40400  0.78620  0.35780  Biso   1.000  O
  O70      1.0000 0.59600  0.78620  0.14220  Biso   1.000  O
  O71      1.0000 0.59600  0.21380  0.64220  Biso   1.000  O
  O72      1.0000 0.40400  0.21380  0.85780  Biso   1.000  O
  H41      1.0000 0.41320  0.72010  0.34050  Biso   1.000  H
  H42      1.0000 0.58680  0.72010  0.15950  Biso   1.000  H
  H43      1.0000 0.58680  0.27990  0.65950  Biso   1.000  H
  H44      1.0000 0.41320  0.27990  0.84050  Biso   1.000  H
  H45      1.0000 0.43500  0.82260  0.37880  Biso   1.000  H
  H46      1.0000 0.56500  0.82260  0.12120  Biso   1.000  H
  H47      1.0000 0.56500  0.17740  0.62120  Biso   1.000  H
  H48      1.0000 0.43500  0.17740  0.87880  Biso   1.000  H
  C1       1.0000 0.09900  0.01460  0.77300  Biso   1.000  C
  C2       1.0000 0.90100  0.01460  0.72700  Biso   1.000  C
  C3       1.0000 0.90100  0.98540  0.22700  Biso   1.000  C
  C4       1.0000 0.09900  0.98540  0.27300  Biso   1.000  C
  C5       1.0000 0.08470  0.00010  0.70020  Biso   1.000  C
  C6       1.0000 0.91530  0.00010  0.79980  Biso   1.000  C
  C7       1.0000 0.91530  0.99990  0.29980  Biso   1.000  C
  C8       1.0000 0.08470  0.99990  0.20020  Biso   1.000  C
  C9       1.0000 0.10730  0.07740  0.66160  Biso   1.000  C
  C10      1.0000 0.89270  0.07740  0.83840  Biso   1.000  C
  C11      1.0000 0.89270  0.92260  0.33840  Biso   1.000  C
  C12      1.0000 0.10730  0.92260  0.16160  Biso   1.000  C
  H49      1.0000 0.13200  0.14420  0.67910  Biso   1.000  H
  H50      1.0000 0.86800  0.14420  0.82090  Biso   1.000  H
  H51      1.0000 0.86800  0.85580  0.32090  Biso   1.000  H
  H52      1.0000 0.13200  0.85580  0.17910  Biso   1.000  H
  C13      1.0000 0.09310  0.05480  0.59670  Biso   1.000  C
  C14      1.0000 0.90690  0.05480  0.90330  Biso   1.000  C
  C15      1.0000 0.90690  0.94520  0.40330  Biso   1.000  C
  C16      1.0000 0.09310  0.94520  0.09670  Biso   1.000  C
  H53      1.0000 0.10820  0.10570  0.56990  Biso   1.000  H
  H54      1.0000 0.89180  0.10570  0.93010  Biso   1.000  H
  H55      1.0000 0.89180  0.89430  0.43010  Biso   1.000  H
  H56      1.0000 0.10820  0.89430  0.06990  Biso   1.000  H
  C17      1.0000 0.05630  0.95640  0.57210  Biso   1.000  C
  C18      1.0000 0.94370  0.95640  0.92790  Biso   1.000  C
  C19      1.0000 0.94370  0.04360  0.42790  Biso   1.000  C
  C20      1.0000 0.05630  0.04360  0.07210  Biso   1.000  C
  H57      1.0000 0.04680  0.93870  0.52840  Biso   1.000  H
  H58      1.0000 0.95320  0.93870  0.97160  Biso   1.000  H
  H59      1.0000 0.95320  0.06130  0.47160  Biso   1.000  H
  H60      1.0000 0.04680  0.06130  0.02840  Biso   1.000  H
  C21      1.0000 0.03360  0.88420  0.61230  Biso   1.000  C
  C22      1.0000 0.96640  0.88420  0.88770  Biso   1.000  C
  C23      1.0000 0.96640  0.11580  0.38770  Biso   1.000  C
  C24      1.0000 0.03360  0.11580  0.11230  Biso   1.000  C
  C25      1.0000 0.99150  0.77440  0.59150  Biso   1.000  C
  C26      1.0000 0.00850  0.77440  0.90850  Biso   1.000  C
  C27      1.0000 0.00850  0.22560  0.40850  Biso   1.000  C
  C28      1.0000 0.99150  0.22560  0.09150  Biso   1.000  C
  C29      1.0000 0.10330  0.55180  0.76400  Biso   1.000  C
  C30      1.0000 0.89670  0.55180  0.73600  Biso   1.000  C
  C31      1.0000 0.89670  0.44820  0.23600  Biso   1.000  C
  C32      1.0000 0.10330  0.44820  0.26400  Biso   1.000  C
  C33      1.0000 0.05010  0.47120  0.75780  Biso   1.000  C
  C34      1.0000 0.94990  0.47120  0.74220  Biso   1.000  C
  C35      1.0000 0.94990  0.52880  0.24220  Biso   1.000  C
  C36      1.0000 0.05010  0.52880  0.25780  Biso   1.000  C
  C37      1.0000 0.05180  0.33980  0.75900  Biso   1.000  C
  C38      1.0000 0.94820  0.33980  0.74100  Biso   1.000  C
  C39      1.0000 0.94820  0.66020  0.24100  Biso   1.000  C
  C40      1.0000 0.05180  0.66020  0.25900  Biso   1.000  C
  H61      1.0000 0.08710  0.29650  0.76570  Biso   1.000  H
  H62      1.0000 0.91290  0.29650  0.73430  Biso   1.000  H
  H63      1.0000 0.91290  0.70350  0.23430  Biso   1.000  H
  H64      1.0000 0.08710  0.70350  0.26570  Biso   1.000  H
  C41      1.0000 0.00000  0.27580  0.75000  Biso   1.000  C
  C42      1.0000 0.00000  0.72420  0.25000  Biso   1.000  C
  H65      1.0000 0.00000  0.18770  0.75000  Biso   1.000  H
  H66      1.0000 0.00000  0.81230  0.25000  Biso   1.000  H
  C43      1.0000 0.39570  0.49190  0.33040  Biso   1.000  C
  C44      1.0000 0.60430  0.49190  0.16960  Biso   1.000  C
  C45      1.0000 0.60430  0.50810  0.66960  Biso   1.000  C
  C46      1.0000 0.39570  0.50810  0.83040  Biso   1.000  C
  C47      1.0000 0.43900  0.40480  0.37450  Biso   1.000  C
  C48      1.0000 0.56100  0.40480  0.12550  Biso   1.000  C
  C49      1.0000 0.56100  0.59520  0.62550  Biso   1.000  C
  C50      1.0000 0.43900  0.59520  0.87450  Biso   1.000  C
  C51      1.0000 0.43740  0.37350  0.43570  Biso   1.000  C
  C52      1.0000 0.56260  0.37350  0.06430  Biso   1.000  C
  C53      1.0000 0.56260  0.62650  0.56430  Biso   1.000  C
  C54      1.0000 0.43740  0.62650  0.93570  Biso   1.000  C
  H67      1.0000 0.40810  0.40590  0.45250  Biso   1.000  H
  H68      1.0000 0.59190  0.40590  0.04750  Biso   1.000  H
  H69      1.0000 0.59190  0.59410  0.54750  Biso   1.000  H
  H70      1.0000 0.40810  0.59410  0.95250  Biso   1.000  H
  C55      1.0000 0.47950  0.29360  0.47200  Biso   1.000  C
  C56      1.0000 0.52050  0.29360  0.02800  Biso   1.000  C
  C57      1.0000 0.52050  0.70640  0.52800  Biso   1.000  C
  C58      1.0000 0.47950  0.70640  0.97200  Biso   1.000  C
  H71      1.0000 0.47910  0.27160  0.51350  Biso   1.000  H
  H72      1.0000 0.52090  0.27160  0.98650  Biso   1.000  H
  H73      1.0000 0.52090  0.72840  0.48650  Biso   1.000  H
  H74      1.0000 0.47910  0.72840  0.01350  Biso   1.000  H
  C59      1.0000 0.52210  0.24720  0.44530  Biso   1.000  C
  C60      1.0000 0.47790  0.24720  0.05470  Biso   1.000  C
  C61      1.0000 0.47790  0.75280  0.55470  Biso   1.000  C
  C62      1.0000 0.52210  0.75280  0.94530  Biso   1.000  C
  H75      1.0000 0.55070  0.19240  0.46840  Biso   1.000  H
  H76      1.0000 0.44930  0.19240  0.03160  Biso   1.000  H
  H77      1.0000 0.44930  0.80760  0.53160  Biso   1.000  H
  H78      1.0000 0.55070  0.80760  0.96840  Biso   1.000  H
  C63      1.0000 0.52160  0.28320  0.38370  Biso   1.000  C
  C64      1.0000 0.47840  0.28320  0.11630  Biso   1.000  C
  C65      1.0000 0.47840  0.71680  0.61630  Biso   1.000  C
  C66      1.0000 0.52160  0.71680  0.88370  Biso   1.000  C
  C67      1.0000 0.56750  0.24220  0.35110  Biso   1.000  C
  C68      1.0000 0.43250  0.24220  0.14890  Biso   1.000  C
  C69      1.0000 0.43250  0.75780  0.64890  Biso   1.000  C
  C70      1.0000 0.56750  0.75780  0.85110  Biso   1.000  C
  C71      1.0000 0.44420  0.69430  0.14040  Biso   1.000  C
  C72      1.0000 0.55580  0.69430  0.35960  Biso   1.000  C
  C73      1.0000 0.55580  0.30570  0.85960  Biso   1.000  C
  C74      1.0000 0.44420  0.30570  0.64040  Biso   1.000  C
  C75      1.0000 0.47300  0.77720  0.19730  Biso   1.000  C
  C76      1.0000 0.52700  0.77720  0.30270  Biso   1.000  C
  C77      1.0000 0.52700  0.22280  0.80270  Biso   1.000  C
  C78      1.0000 0.47300  0.22280  0.69730  Biso   1.000  C
  C79      1.0000 0.47250  0.90640  0.19570  Biso   1.000  C
  C80      1.0000 0.52750  0.90640  0.30430  Biso   1.000  C
  C81      1.0000 0.52750  0.09360  0.80430  Biso   1.000  C
  C82      1.0000 0.47250  0.09360  0.69570  Biso   1.000  C
  H79      1.0000 0.45380  0.94920  0.15830  Biso   1.000  H
  H80      1.0000 0.54620  0.94920  0.34170  Biso   1.000  H
  H81      1.0000 0.54620  0.05080  0.84170  Biso   1.000  H
  H82      1.0000 0.45380  0.05080  0.65830  Biso   1.000  H
  C83      1.0000 0.50000  0.97240  0.25000  Biso   1.000  C
  C84      1.0000 0.50000  0.02760  0.75000  Biso   1.000  C
  H83      1.0000 0.50000  0.06050  0.25000  Biso   1.000  H
  H84      1.0000 0.50000  0.93950  0.75000  Biso   1.000  H
  C85      1.0000 0.18400  0.72060  0.65630  Biso   1.000  C
  C86      1.0000 0.81600  0.72060  0.84370  Biso   1.000  C
  C87      1.0000 0.81600  0.27940  0.34370  Biso   1.000  C
  C88      1.0000 0.18400  0.27940  0.15630  Biso   1.000  C
  H85      1.0000 0.14930  0.75060  0.66330  Biso   1.000  H
  H86      1.0000 0.85070  0.75060  0.83670  Biso   1.000  H
  H87      1.0000 0.85070  0.24940  0.33670  Biso   1.000  H
  H88      1.0000 0.14930  0.24940  0.16330  Biso   1.000  H
  C89      1.0000 0.18940  0.71900  0.59450  Biso   1.000  C
  C90      1.0000 0.81060  0.71900  0.90550  Biso   1.000  C
  C91      1.0000 0.81060  0.28100  0.40550  Biso   1.000  C
  C92      1.0000 0.18940  0.28100  0.09450  Biso   1.000  C
  H89      1.0000 0.15870  0.74770  0.56100  Biso   1.000  H
  H90      1.0000 0.84130  0.74770  0.93900  Biso   1.000  H
  H91      1.0000 0.84130  0.25230  0.43900  Biso   1.000  H
  H92      1.0000 0.15870  0.25230  0.06100  Biso   1.000  H
  C93      1.0000 0.24040  0.67480  0.58220  Biso   1.000  C
  C94      1.0000 0.75960  0.67480  0.91780  Biso   1.000  C
  C95      1.0000 0.75960  0.32520  0.41780  Biso   1.000  C
  C96      1.0000 0.24040  0.32520  0.08220  Biso   1.000  C
  C97      1.0000 0.28430  0.63570  0.63500  Biso   1.000  C
  C98      1.0000 0.71570  0.63570  0.86500  Biso   1.000  C
  C99      1.0000 0.71570  0.36430  0.36500  Biso   1.000  C
  C100     1.0000 0.28430  0.36430  0.13500  Biso   1.000  C
  H93      1.0000 0.31940  0.60500  0.62940  Biso   1.000  H
  H94      1.0000 0.68060  0.60500  0.87060  Biso   1.000  H
  H95      1.0000 0.68060  0.39500  0.37060  Biso   1.000  H
  H96      1.0000 0.31940  0.39500  0.12940  Biso   1.000  H
  C101     1.0000 0.27630  0.64200  0.69590  Biso   1.000  C
  C102     1.0000 0.72370  0.64200  0.80410  Biso   1.000  C
  C103     1.0000 0.72370  0.35800  0.30410  Biso   1.000  C
  C104     1.0000 0.27630  0.35800  0.19590  Biso   1.000  C
  H97      1.0000 0.30690  0.61810  0.73060  Biso   1.000  H
  H98      1.0000 0.69310  0.61810  0.76940  Biso   1.000  H
  H99      1.0000 0.69310  0.38190  0.26940  Biso   1.000  H
  H100     1.0000 0.30690  0.38190  0.23060  Biso   1.000  H
  C105     1.0000 0.30580  0.66740  0.44140  Biso   1.000  C
  C106     1.0000 0.69420  0.66740  0.05860  Biso   1.000  C
  C107     1.0000 0.69420  0.33260  0.55860  Biso   1.000  C
  C108     1.0000 0.30580  0.33260  0.94140  Biso   1.000  C
  H101     1.0000 0.34290  0.67180  0.43450  Biso   1.000  H
  H102     1.0000 0.65710  0.67180  0.06550  Biso   1.000  H
  H103     1.0000 0.65710  0.32820  0.56550  Biso   1.000  H
  H104     1.0000 0.34290  0.32820  0.93450  Biso   1.000  H
  C109     1.0000 0.30140  0.67340  0.50350  Biso   1.000  C
  C110     1.0000 0.69860  0.67340  0.99650  Biso   1.000  C
  C111     1.0000 0.69860  0.32660  0.49650  Biso   1.000  C
  C112     1.0000 0.30140  0.32660  0.00350  Biso   1.000  C
  H105     1.0000 0.33500  0.68130  0.53730  Biso   1.000  H
  H106     1.0000 0.66500  0.68130  0.96270  Biso   1.000  H
  H107     1.0000 0.66500  0.31870  0.46270  Biso   1.000  H
  H108     1.0000 0.33500  0.31870  0.03730  Biso   1.000  H
  C113     1.0000 0.24680  0.66770  0.51580  Biso   1.000  C
  C114     1.0000 0.75320  0.66770  0.98420  Biso   1.000  C
  C115     1.0000 0.75320  0.33230  0.48420  Biso   1.000  C
  C116     1.0000 0.24680  0.33230  0.01580  Biso   1.000  C
  C117     1.0000 0.19930  0.65590  0.46300  Biso   1.000  C
  C118     1.0000 0.80070  0.65590  0.03700  Biso   1.000  C
  C119     1.0000 0.80070  0.34410  0.53700  Biso   1.000  C
  C120     1.0000 0.19930  0.34410  0.96300  Biso   1.000  C
  H109     1.0000 0.16180  0.65140  0.46860  Biso   1.000  H
  H110     1.0000 0.83820  0.65140  0.03140  Biso   1.000  H
  H111     1.0000 0.83820  0.34860  0.53140  Biso   1.000  H
  H112     1.0000 0.16180  0.34860  0.96860  Biso   1.000  H
  C121     1.0000 0.20660  0.65080  0.40230  Biso   1.000  C
  C122     1.0000 0.79340  0.65080  0.09770  Biso   1.000  C
  C123     1.0000 0.79340  0.34920  0.59770  Biso   1.000  C
  C124     1.0000 0.20660  0.34920  0.90230  Biso   1.000  C
  H113     1.0000 0.17350  0.64380  0.36780  Biso   1.000  H
  H114     1.0000 0.82650  0.64380  0.13220  Biso   1.000  H
  H115     1.0000 0.82650  0.35620  0.63220  Biso   1.000  H
  H116     1.0000 0.17350  0.35620  0.86780  Biso   1.000  H
  C125     1.0000 0.17640  0.72040  0.90370  Biso   1.000  C
  C126     1.0000 0.82360  0.72040  0.59630  Biso   1.000  C
  C127     1.0000 0.82360  0.27960  0.09630  Biso   1.000  C
  C128     1.0000 0.17640  0.27960  0.40370  Biso   1.000  C
  H117     1.0000 0.14040  0.73910  0.87540  Biso   1.000  H
  H118     1.0000 0.85960  0.73910  0.62460  Biso   1.000  H
  H119     1.0000 0.85960  0.26090  0.12460  Biso   1.000  H
  H120     1.0000 0.14040  0.26090  0.37540  Biso   1.000  H
  C129     1.0000 0.18090  0.72160  0.96970  Biso   1.000  C
  C130     1.0000 0.81910  0.72160  0.53030  Biso   1.000  C
  C131     1.0000 0.81910  0.27840  0.03030  Biso   1.000  C
  C132     1.0000 0.18090  0.27840  0.46970  Biso   1.000  C
  H121     1.0000 0.14840  0.74060  0.98450  Biso   1.000  H
  H122     1.0000 0.85160  0.74060  0.51550  Biso   1.000  H
  H123     1.0000 0.85160  0.25940  0.01550  Biso   1.000  H
  H124     1.0000 0.14840  0.25940  0.48450  Biso   1.000  H
  C133     1.0000 0.23470  0.69400  0.01270  Biso   1.000  C
  C134     1.0000 0.76530  0.69400  0.48730  Biso   1.000  C
  C135     1.0000 0.76530  0.30600  0.98730  Biso   1.000  C
  C136     1.0000 0.23470  0.30600  0.51270  Biso   1.000  C
  C137     1.0000 0.28170  0.67020  0.98750  Biso   1.000  C
  C138     1.0000 0.71830  0.67020  0.51250  Biso   1.000  C
  C139     1.0000 0.71830  0.32980  0.01250  Biso   1.000  C
  C140     1.0000 0.28170  0.32980  0.48750  Biso   1.000  C
  H125     1.0000 0.31870  0.65490  0.01460  Biso   1.000  H
  H126     1.0000 0.68130  0.65490  0.48540  Biso   1.000  H
  H127     1.0000 0.68130  0.34510  0.98540  Biso   1.000  H
  H128     1.0000 0.31870  0.34510  0.51460  Biso   1.000  H
  C141     1.0000 0.27340  0.66950  0.92190  Biso   1.000  C
  C142     1.0000 0.72660  0.66950  0.57810  Biso   1.000  C
  C143     1.0000 0.72660  0.33050  0.07810  Biso   1.000  C
  C144     1.0000 0.27340  0.33050  0.42190  Biso   1.000  C
  H129     1.0000 0.30520  0.65130  0.90590  Biso   1.000  H
  H130     1.0000 0.69480  0.65130  0.59410  Biso   1.000  H
  H131     1.0000 0.69480  0.34870  0.09410  Biso   1.000  H
  H132     1.0000 0.30520  0.34870  0.40590  Biso   1.000  H
  C145     1.0000 0.30110  0.69120  0.19060  Biso   1.000  C
  C146     1.0000 0.69890  0.69120  0.30940  Biso   1.000  C
  C147     1.0000 0.69890  0.30880  0.80940  Biso   1.000  C
  C148     1.0000 0.30110  0.30880  0.69060  Biso   1.000  C
  H133     1.0000 0.33790  0.70390  0.21880  Biso   1.000  H
  H134     1.0000 0.66210  0.70390  0.28120  Biso   1.000  H
  H135     1.0000 0.66210  0.29610  0.78120  Biso   1.000  H
  H136     1.0000 0.33790  0.29610  0.71880  Biso   1.000  H
  C149     1.0000 0.29520  0.70790  0.12690  Biso   1.000  C
  C150     1.0000 0.70480  0.70790  0.37310  Biso   1.000  C
  C151     1.0000 0.70480  0.29210  0.87310  Biso   1.000  C
  C152     1.0000 0.29520  0.29210  0.62690  Biso   1.000  C
  H137     1.0000 0.32710  0.73390  0.11270  Biso   1.000  H
  H138     1.0000 0.67290  0.73390  0.38730  Biso   1.000  H
  H139     1.0000 0.67290  0.26610  0.88730  Biso   1.000  H
  H140     1.0000 0.32710  0.26610  0.61270  Biso   1.000  H
  C153     1.0000 0.24160  0.68610  0.08310  Biso   1.000  C
  C154     1.0000 0.75840  0.68610  0.41690  Biso   1.000  C
  C155     1.0000 0.75840  0.31390  0.91690  Biso   1.000  C
  C156     1.0000 0.24160  0.31390  0.58310  Biso   1.000  C
  C157     1.0000 0.19510  0.65290  0.10770  Biso   1.000  C
  C158     1.0000 0.80490  0.65290  0.39230  Biso   1.000  C
  C159     1.0000 0.80490  0.34710  0.89230  Biso   1.000  C
  C160     1.0000 0.19510  0.34710  0.60770  Biso   1.000  C
  H141     1.0000 0.15800  0.63980  0.08040  Biso   1.000  H
  H142     1.0000 0.84200  0.63980  0.41960  Biso   1.000  H
  H143     1.0000 0.84200  0.36020  0.91960  Biso   1.000  H
  H144     1.0000 0.15800  0.36020  0.58040  Biso   1.000  H
  C161     1.0000 0.20440  0.63950  0.17320  Biso   1.000  C
  C162     1.0000 0.79560  0.63950  0.32680  Biso   1.000  C
  C163     1.0000 0.79560  0.36050  0.82680  Biso   1.000  C
  C164     1.0000 0.20440  0.36050  0.67320  Biso   1.000  C
  H145     1.0000 0.17290  0.61680  0.18880  Biso   1.000  H
  H146     1.0000 0.82710  0.61680  0.31120  Biso   1.000  H
  H147     1.0000 0.82710  0.38320  0.81120  Biso   1.000  H
  H148     1.0000 0.17290  0.38320  0.68880  Biso   1.000  H
  C165     1.0000 0.64600  0.98230  0.48880  Biso   1.000  C
  C166     1.0000 0.35400  0.98230  0.01120  Biso   1.000  C
  C167     1.0000 0.35400  0.01770  0.51120  Biso   1.000  C
  C168     1.0000 0.64600  0.01770  0.98880  Biso   1.000  C
  H149     1.0000 0.61120  0.97200  0.45690  Biso   1.000  H
  H150     1.0000 0.38880  0.97200  0.04310  Biso   1.000  H
  H151     1.0000 0.38880  0.02800  0.54310  Biso   1.000  H
  H152     1.0000 0.61120  0.02800  0.95690  Biso   1.000  H
  C169     1.0000 0.64480  0.96900  0.55190  Biso   1.000  C
  C170     1.0000 0.35520  0.96900  0.94810  Biso   1.000  C
  C171     1.0000 0.35520  0.03100  0.44810  Biso   1.000  C
  C172     1.0000 0.64480  0.03100  0.05190  Biso   1.000  C
  H153     1.0000 0.60990  0.95010  0.56180  Biso   1.000  H
  H154     1.0000 0.39010  0.95010  0.93820  Biso   1.000  H
  H155     1.0000 0.39010  0.04990  0.43820  Biso   1.000  H
  H156     1.0000 0.60990  0.04990  0.06180  Biso   1.000  H
  C173     1.0000 0.69620  0.98410  0.60080  Biso   1.000  C
  C174     1.0000 0.30380  0.98410  0.89920  Biso   1.000  C
  C175     1.0000 0.30380  0.01590  0.39920  Biso   1.000  C
  C176     1.0000 0.69620  0.01590  0.10080  Biso   1.000  C
  C177     1.0000 0.74690  0.00830  0.58230  Biso   1.000  C
  C178     1.0000 0.25310  0.00830  0.91770  Biso   1.000  C
  C179     1.0000 0.25310  0.99170  0.41770  Biso   1.000  C
  C180     1.0000 0.74690  0.99170  0.08230  Biso   1.000  C
  H157     1.0000 0.78240  0.01760  0.61320  Biso   1.000  H
  H158     1.0000 0.21760  0.01760  0.88680  Biso   1.000  H
  H159     1.0000 0.21760  0.98240  0.38680  Biso   1.000  H
  H160     1.0000 0.78240  0.98240  0.11320  Biso   1.000  H
  C181     1.0000 0.74490  0.01850  0.51810  Biso   1.000  C
  C182     1.0000 0.25510  0.01850  0.98190  Biso   1.000  C
  C183     1.0000 0.25510  0.98150  0.48190  Biso   1.000  C
  C184     1.0000 0.74490  0.98150  0.01810  Biso   1.000  C
  H161     1.0000 0.77970  0.03240  0.50690  Biso   1.000  H
  H162     1.0000 0.22030  0.03240  0.99310  Biso   1.000  H
  H163     1.0000 0.22030  0.96760  0.49310  Biso   1.000  H
  H164     1.0000 0.77970  0.96760  0.00690  Biso   1.000  H
  C185     1.0000 0.65140  0.89810  0.74990  Biso   1.000  C
  C186     1.0000 0.34860  0.89810  0.75010  Biso   1.000  C
  C187     1.0000 0.34860  0.10190  0.25010  Biso   1.000  C
  C188     1.0000 0.65140  0.10190  0.24990  Biso   1.000  C
  H165     1.0000 0.62140  0.85310  0.76030  Biso   1.000  H
  H166     1.0000 0.37860  0.85310  0.73970  Biso   1.000  H
  H167     1.0000 0.37860  0.14690  0.23970  Biso   1.000  H
  H168     1.0000 0.62140  0.14690  0.26030  Biso   1.000  H
  C189     1.0000 0.65220  0.90500  0.68610  Biso   1.000  C
  C190     1.0000 0.34780  0.90500  0.81390  Biso   1.000  C
  C191     1.0000 0.34780  0.09500  0.31390  Biso   1.000  C
  C192     1.0000 0.65220  0.09500  0.18610  Biso   1.000  C
  H169     1.0000 0.62310  0.86420  0.65500  Biso   1.000  H
  H170     1.0000 0.37690  0.86420  0.84500  Biso   1.000  H
  H171     1.0000 0.37690  0.13580  0.34500  Biso   1.000  H
  H172     1.0000 0.62310  0.13580  0.15500  Biso   1.000  H
  C193     1.0000 0.69530  0.97140  0.66830  Biso   1.000  C
  C194     1.0000 0.30470  0.97140  0.83170  Biso   1.000  C
  C195     1.0000 0.30470  0.02860  0.33170  Biso   1.000  C
  C196     1.0000 0.69530  0.02860  0.16830  Biso   1.000  C
  C197     1.0000 0.73820  0.02730  0.71760  Biso   1.000  C
  C198     1.0000 0.26180  0.02730  0.78240  Biso   1.000  C
  C199     1.0000 0.26180  0.97270  0.28240  Biso   1.000  C
  C200     1.0000 0.73820  0.97270  0.21760  Biso   1.000  C
  H173     1.0000 0.76890  0.07200  0.70860  Biso   1.000  H
  H174     1.0000 0.23110  0.07200  0.79140  Biso   1.000  H
  H175     1.0000 0.23110  0.92800  0.29140  Biso   1.000  H
  H176     1.0000 0.76890  0.92800  0.20860  Biso   1.000  H
  C201     1.0000 0.73450  0.01570  0.77980  Biso   1.000  C
  C202     1.0000 0.26550  0.01570  0.72020  Biso   1.000  C
  C203     1.0000 0.26550  0.98430  0.22020  Biso   1.000  C
  C204     1.0000 0.73450  0.98430  0.27980  Biso   1.000  C
  H177     1.0000 0.76360  0.05370  0.81190  Biso   1.000  H
  H178     1.0000 0.23640  0.05370  0.68810  Biso   1.000  H
  H179     1.0000 0.23640  0.94630  0.18810  Biso   1.000  H
  H180     1.0000 0.76360  0.94630  0.31190  Biso   1.000  H
  H181     1.0000 0.54190  0.92390  0.08220  Biso   1.000  H
  H182     1.0000 0.45810  0.92390  0.41780  Biso   1.000  H
  H183     1.0000 0.45810  0.07610  0.91780  Biso   1.000  H
  H184     1.0000 0.54190  0.07610  0.58220  Biso   1.000  H
