data_image0
_cell_length_a       15.8233
_cell_length_b       9.5733
_cell_length_c       38.988
_cell_angle_alpha    90
_cell_angle_beta     96.762
_cell_angle_gamma    90

_symmetry_space_group_name_H-M    "P 1"
_symmetry_int_tables_number       1

loop_
  _symmetry_equiv_pos_as_xyz
  'x, y, z'

loop_
  _atom_site_label
  _atom_site_occupancy
  _atom_site_fract_x
  _atom_site_fract_y
  _atom_site_fract_z
  _atom_site_thermal_displace_type
  _atom_site_B_iso_or_equiv
  _atom_site_type_symbol
  Cu1      1.0000 0.11145  0.70435  0.38429  Biso   1.000  Cu
  Cu2      1.0000 0.88855  0.70435  0.11571  Biso   1.000  Cu
  Cu3      1.0000 0.61145  0.20435  0.38429  Biso   1.000  Cu
  Cu4      1.0000 0.38855  0.20435  0.11571  Biso   1.000  Cu
  Cu5      1.0000 0.88855  0.29565  0.61571  Biso   1.000  Cu
  Cu6      1.0000 0.11145  0.29565  0.88429  Biso   1.000  Cu
  Cu7      1.0000 0.38855  0.79565  0.61571  Biso   1.000  Cu
  Cu8      1.0000 0.61145  0.79565  0.88429  Biso   1.000  Cu
  Cu9      1.0000 0.91044  0.30974  0.36923  Biso   1.000  Cu
  Cu10     1.0000 0.08956  0.30974  0.13077  Biso   1.000  Cu
  Cu11     1.0000 0.41044  0.80974  0.36923  Biso   1.000  Cu
  Cu12     1.0000 0.58956  0.80974  0.13077  Biso   1.000  Cu
  Cu13     1.0000 0.08956  0.69026  0.63077  Biso   1.000  Cu
  Cu14     1.0000 0.91044  0.69026  0.86923  Biso   1.000  Cu
  Cu15     1.0000 0.58956  0.19026  0.63077  Biso   1.000  Cu
  Cu16     1.0000 0.41044  0.19026  0.86923  Biso   1.000  Cu
  Cu17     1.0000 0.26462  0.20349  0.73623  Biso   1.000  Cu
  Cu18     1.0000 0.73538  0.20349  0.76377  Biso   1.000  Cu
  Cu19     1.0000 0.76462  0.70349  0.73623  Biso   1.000  Cu
  Cu20     1.0000 0.23538  0.70349  0.76377  Biso   1.000  Cu
  Cu21     1.0000 0.73538  0.79651  0.26377  Biso   1.000  Cu
  Cu22     1.0000 0.26462  0.79651  0.23623  Biso   1.000  Cu
  Cu23     1.0000 0.23538  0.29651  0.26377  Biso   1.000  Cu
  Cu24     1.0000 0.76462  0.29651  0.23623  Biso   1.000  Cu
  S1       1.0000 0.22007  0.26851  0.56312  Biso   1.000  S
  S2       1.0000 0.77993  0.26851  0.93688  Biso   1.000  S
  S3       1.0000 0.72007  0.76851  0.56312  Biso   1.000  S
  S4       1.0000 0.27993  0.76851  0.93688  Biso   1.000  S
  S5       1.0000 0.77993  0.73149  0.43688  Biso   1.000  S
  S6       1.0000 0.22007  0.73149  0.06312  Biso   1.000  S
  S7       1.0000 0.27993  0.23149  0.43688  Biso   1.000  S
  S8       1.0000 0.72007  0.23149  0.06312  Biso   1.000  S
  S9       1.0000 0.93901  0.20992  0.46928  Biso   1.000  S
  S10      1.0000 0.06099  0.20992  0.03072  Biso   1.000  S
  S11      1.0000 0.43901  0.70992  0.46928  Biso   1.000  S
  S12      1.0000 0.56099  0.70992  0.03072  Biso   1.000  S
  S13      1.0000 0.06099  0.79008  0.53072  Biso   1.000  S
  S14      1.0000 0.93901  0.79008  0.96928  Biso   1.000  S
  S15      1.0000 0.56099  0.29008  0.53072  Biso   1.000  S
  S16      1.0000 0.43901  0.29008  0.96928  Biso   1.000  S
  S17      1.0000 0.16192  0.54714  0.45706  Biso   1.000  S
  S18      1.0000 0.83808  0.54714  0.04294  Biso   1.000  S
  S19      1.0000 0.66192  0.04714  0.45706  Biso   1.000  S
  S20      1.0000 0.33808  0.04714  0.04294  Biso   1.000  S
  S21      1.0000 0.83808  0.45286  0.54294  Biso   1.000  S
  S22      1.0000 0.16192  0.45286  0.95706  Biso   1.000  S
  S23      1.0000 0.33808  0.95286  0.54294  Biso   1.000  S
  S24      1.0000 0.66192  0.95286  0.95706  Biso   1.000  S
  S25      1.0000 0.06263  0.75220  0.29875  Biso   1.000  S
  S26      1.0000 0.93737  0.75220  0.20125  Biso   1.000  S
  S27      1.0000 0.56263  0.25220  0.29875  Biso   1.000  S
  S28      1.0000 0.43737  0.25220  0.20125  Biso   1.000  S
  S29      1.0000 0.93737  0.24780  0.70125  Biso   1.000  S
  S30      1.0000 0.06263  0.24780  0.79875  Biso   1.000  S
  S31      1.0000 0.43737  0.74780  0.70125  Biso   1.000  S
  S32      1.0000 0.56263  0.74780  0.79875  Biso   1.000  S
  S33      1.0000 0.00000  0.26550  0.25000  Biso   1.000  S
  S34      1.0000 0.50000  0.76550  0.25000  Biso   1.000  S
  S35      1.0000 0.00000  0.73450  0.75000  Biso   1.000  S
  S36      1.0000 0.50000  0.23450  0.75000  Biso   1.000  S
  N1       1.0000 0.05770  0.86600  0.41045  Biso   1.000  N
  N2       1.0000 0.94230  0.86600  0.08955  Biso   1.000  N
  N3       1.0000 0.55770  0.36600  0.41045  Biso   1.000  N
  N4       1.0000 0.44230  0.36600  0.08955  Biso   1.000  N
  N5       1.0000 0.94230  0.13400  0.58955  Biso   1.000  N
  N6       1.0000 0.05770  0.13400  0.91045  Biso   1.000  N
  N7       1.0000 0.44230  0.63400  0.58955  Biso   1.000  N
  N8       1.0000 0.55770  0.63400  0.91045  Biso   1.000  N
  N9       1.0000 0.26200  0.22630  0.68052  Biso   1.000  N
  N10      1.0000 0.73800  0.22630  0.81948  Biso   1.000  N
  N11      1.0000 0.76200  0.72630  0.68052  Biso   1.000  N
  N12      1.0000 0.23800  0.72630  0.81948  Biso   1.000  N
  N13      1.0000 0.73800  0.77370  0.31948  Biso   1.000  N
  N14      1.0000 0.26200  0.77370  0.18052  Biso   1.000  N
  N15      1.0000 0.23800  0.27370  0.31948  Biso   1.000  N
  N16      1.0000 0.76200  0.27370  0.18052  Biso   1.000  N
  C1       1.0000 0.98690  0.46160  0.37468  Biso   1.000  C
  C2       1.0000 0.01310  0.46160  0.12532  Biso   1.000  C
  C3       1.0000 0.48690  0.96160  0.37468  Biso   1.000  C
  C4       1.0000 0.51310  0.96160  0.12532  Biso   1.000  C
  C5       1.0000 0.01310  0.53840  0.62532  Biso   1.000  C
  C6       1.0000 0.98690  0.53840  0.87468  Biso   1.000  C
  C7       1.0000 0.51310  0.03840  0.62532  Biso   1.000  C
  C8       1.0000 0.48690  0.03840  0.87468  Biso   1.000  C
  C9       1.0000 0.25170  0.39330  0.74918  Biso   1.000  C
  C10      1.0000 0.74830  0.39330  0.75082  Biso   1.000  C
  C11      1.0000 0.75170  0.89330  0.74918  Biso   1.000  C
  C12      1.0000 0.24830  0.89330  0.75082  Biso   1.000  C
  C13      1.0000 0.74830  0.60670  0.25082  Biso   1.000  C
  C14      1.0000 0.25170  0.60670  0.24918  Biso   1.000  C
  C15      1.0000 0.24830  0.10670  0.25082  Biso   1.000  C
  C16      1.0000 0.75170  0.10670  0.24918  Biso   1.000  C
  N17      1.0000 0.95960  0.14650  0.34363  Biso   1.000  N
  N18      1.0000 0.04040  0.14650  0.15637  Biso   1.000  N
  N19      1.0000 0.45960  0.64650  0.34363  Biso   1.000  N
  N20      1.0000 0.54040  0.64650  0.15637  Biso   1.000  N
  N21      1.0000 0.04040  0.85350  0.65637  Biso   1.000  N
  N22      1.0000 0.95960  0.85350  0.84363  Biso   1.000  N
  N23      1.0000 0.54040  0.35350  0.65637  Biso   1.000  N
  N24      1.0000 0.45960  0.35350  0.84363  Biso   1.000  N
  C17      1.0000 0.53340  0.05500  0.37755  Biso   1.000  C
  C18      1.0000 0.46660  0.05500  0.12245  Biso   1.000  C
  C19      1.0000 0.03340  0.55500  0.37755  Biso   1.000  C
  C20      1.0000 0.96660  0.55500  0.12245  Biso   1.000  C
  C21      1.0000 0.46660  0.94500  0.62245  Biso   1.000  C
  C22      1.0000 0.53340  0.94500  0.87755  Biso   1.000  C
  C23      1.0000 0.96660  0.44500  0.62245  Biso   1.000  C
  C24      1.0000 0.03340  0.44500  0.87755  Biso   1.000  C
  C25      1.0000 0.14280  0.44660  0.51638  Biso   1.000  C
  C26      1.0000 0.85720  0.44660  0.98362  Biso   1.000  C
  C27      1.0000 0.64280  0.94660  0.51638  Biso   1.000  C
  C28      1.0000 0.35720  0.94660  0.98362  Biso   1.000  C
  C29      1.0000 0.85720  0.55340  0.48362  Biso   1.000  C
  C30      1.0000 0.14280  0.55340  0.01638  Biso   1.000  C
  C31      1.0000 0.35720  0.05340  0.48362  Biso   1.000  C
  C32      1.0000 0.64280  0.05340  0.01638  Biso   1.000  C
  C33      1.0000 0.27060  0.13650  0.62379  Biso   1.000  C
  C34      1.0000 0.72940  0.13650  0.87621  Biso   1.000  C
  C35      1.0000 0.77060  0.63650  0.62379  Biso   1.000  C
  C36      1.0000 0.22940  0.63650  0.87621  Biso   1.000  C
  C37      1.0000 0.72940  0.86350  0.37621  Biso   1.000  C
  C38      1.0000 0.27060  0.86350  0.12379  Biso   1.000  C
  C39      1.0000 0.22940  0.36350  0.37621  Biso   1.000  C
  C40      1.0000 0.77060  0.36350  0.12379  Biso   1.000  C
  H1       1.0000 0.28660  0.06350  0.61020  Biso   1.000  H
  H2       1.0000 0.71340  0.06350  0.88980  Biso   1.000  H
  H3       1.0000 0.78660  0.56350  0.61020  Biso   1.000  H
  H4       1.0000 0.21340  0.56350  0.88980  Biso   1.000  H
  H5       1.0000 0.71340  0.93650  0.38980  Biso   1.000  H
  H6       1.0000 0.28660  0.93650  0.11020  Biso   1.000  H
  H7       1.0000 0.21340  0.43650  0.38980  Biso   1.000  H
  H8       1.0000 0.78660  0.43650  0.11020  Biso   1.000  H
  C41      1.0000 0.23370  0.25670  0.60835  Biso   1.000  C
  C42      1.0000 0.76630  0.25670  0.89165  Biso   1.000  C
  C43      1.0000 0.73370  0.75670  0.60835  Biso   1.000  C
  C44      1.0000 0.26630  0.75670  0.89165  Biso   1.000  C
  C45      1.0000 0.76630  0.74330  0.39165  Biso   1.000  C
  C46      1.0000 0.23370  0.74330  0.10835  Biso   1.000  C
  C47      1.0000 0.26630  0.24330  0.39165  Biso   1.000  C
  C48      1.0000 0.73370  0.24330  0.10835  Biso   1.000  C
  C49      1.0000 0.93870  0.99800  0.42434  Biso   1.000  C
  C50      1.0000 0.06130  0.99800  0.07566  Biso   1.000  C
  C51      1.0000 0.43870  0.49800  0.42434  Biso   1.000  C
  C52      1.0000 0.56130  0.49800  0.07566  Biso   1.000  C
  C53      1.0000 0.06130  0.00200  0.57566  Biso   1.000  C
  C54      1.0000 0.93870  0.00200  0.92434  Biso   1.000  C
  C55      1.0000 0.56130  0.50200  0.57566  Biso   1.000  C
  C56      1.0000 0.43870  0.50200  0.92434  Biso   1.000  C
  H9       1.0000 0.88040  0.01400  0.42040  Biso   1.000  H
  H10      1.0000 0.11960  0.01400  0.07960  Biso   1.000  H
  H11      1.0000 0.38040  0.51400  0.42040  Biso   1.000  H
  H12      1.0000 0.61960  0.51400  0.07960  Biso   1.000  H
  H13      1.0000 0.11960  0.98600  0.57960  Biso   1.000  H
  H14      1.0000 0.88040  0.98600  0.92040  Biso   1.000  H
  H15      1.0000 0.61960  0.48600  0.57960  Biso   1.000  H
  H16      1.0000 0.38040  0.48600  0.92040  Biso   1.000  H
  C57      1.0000 0.98900  0.08000  0.44752  Biso   1.000  C
  C58      1.0000 0.01100  0.08000  0.05248  Biso   1.000  C
  C59      1.0000 0.48900  0.58000  0.44752  Biso   1.000  C
  C60      1.0000 0.51100  0.58000  0.05248  Biso   1.000  C
  C61      1.0000 0.01100  0.92000  0.55248  Biso   1.000  C
  C62      1.0000 0.98900  0.92000  0.94752  Biso   1.000  C
  C63      1.0000 0.51100  0.42000  0.55248  Biso   1.000  C
  C64      1.0000 0.48900  0.42000  0.94752  Biso   1.000  C
  C65      1.0000 0.07460  0.00070  0.33147  Biso   1.000  C
  C66      1.0000 0.92540  0.00070  0.16853  Biso   1.000  C
  C67      1.0000 0.57460  0.50070  0.33147  Biso   1.000  C
  C68      1.0000 0.42540  0.50070  0.16853  Biso   1.000  C
  C69      1.0000 0.92540  0.99930  0.66853  Biso   1.000  C
  C70      1.0000 0.07460  0.99930  0.83147  Biso   1.000  C
  C71      1.0000 0.42540  0.49930  0.66853  Biso   1.000  C
  C72      1.0000 0.57460  0.49930  0.83147  Biso   1.000  C
  H17      1.0000 0.13310  0.98700  0.33320  Biso   1.000  H
  H18      1.0000 0.86690  0.98700  0.16680  Biso   1.000  H
  H19      1.0000 0.63310  0.48700  0.33320  Biso   1.000  H
  H20      1.0000 0.36690  0.48700  0.16680  Biso   1.000  H
  H21      1.0000 0.86690  0.01300  0.66680  Biso   1.000  H
  H22      1.0000 0.13310  0.01300  0.83320  Biso   1.000  H
  H23      1.0000 0.36690  0.51300  0.66680  Biso   1.000  H
  H24      1.0000 0.63310  0.51300  0.83320  Biso   1.000  H
  C73      1.0000 0.21100  0.36110  0.63046  Biso   1.000  C
  C74      1.0000 0.78900  0.36110  0.86954  Biso   1.000  C
  C75      1.0000 0.71100  0.86110  0.63046  Biso   1.000  C
  C76      1.0000 0.28900  0.86110  0.86954  Biso   1.000  C
  C77      1.0000 0.78900  0.63890  0.36954  Biso   1.000  C
  C78      1.0000 0.21100  0.63890  0.13046  Biso   1.000  C
  C79      1.0000 0.28900  0.13890  0.36954  Biso   1.000  C
  C80      1.0000 0.71100  0.13890  0.13046  Biso   1.000  C
  H25      1.0000 0.18590  0.44320  0.62150  Biso   1.000  H
  H26      1.0000 0.81410  0.44320  0.87850  Biso   1.000  H
  H27      1.0000 0.68590  0.94320  0.62150  Biso   1.000  H
  H28      1.0000 0.31410  0.94320  0.87850  Biso   1.000  H
  H29      1.0000 0.81410  0.55680  0.37850  Biso   1.000  H
  H30      1.0000 0.18590  0.55680  0.12150  Biso   1.000  H
  H31      1.0000 0.31410  0.05680  0.37850  Biso   1.000  H
  H32      1.0000 0.68590  0.05680  0.12150  Biso   1.000  H
  C81      1.0000 0.18970  0.53870  0.50076  Biso   1.000  C
  C82      1.0000 0.81030  0.53870  0.99924  Biso   1.000  C
  C83      1.0000 0.68970  0.03870  0.50076  Biso   1.000  C
  C84      1.0000 0.31030  0.03870  0.99924  Biso   1.000  C
  C85      1.0000 0.81030  0.46130  0.49924  Biso   1.000  C
  C86      1.0000 0.18970  0.46130  0.00076  Biso   1.000  C
  C87      1.0000 0.31030  0.96130  0.49924  Biso   1.000  C
  C88      1.0000 0.68970  0.96130  0.00076  Biso   1.000  C
  H33      1.0000 0.23280  0.59240  0.51250  Biso   1.000  H
  H34      1.0000 0.76720  0.59240  0.98750  Biso   1.000  H
  H35      1.0000 0.73280  0.09240  0.51250  Biso   1.000  H
  H36      1.0000 0.26720  0.09240  0.98750  Biso   1.000  H
  H37      1.0000 0.76720  0.40760  0.48750  Biso   1.000  H
  H38      1.0000 0.23280  0.40760  0.01250  Biso   1.000  H
  H39      1.0000 0.26720  0.90760  0.48750  Biso   1.000  H
  H40      1.0000 0.73280  0.90760  0.01250  Biso   1.000  H
  C89      1.0000 0.24250  0.51060  0.75366  Biso   1.000  C
  C90      1.0000 0.75750  0.51060  0.74634  Biso   1.000  C
  C91      1.0000 0.74250  0.01060  0.75366  Biso   1.000  C
  C92      1.0000 0.25750  0.01060  0.74634  Biso   1.000  C
  C93      1.0000 0.75750  0.48940  0.24634  Biso   1.000  C
  C94      1.0000 0.24250  0.48940  0.25366  Biso   1.000  C
  C95      1.0000 0.25750  0.98940  0.24634  Biso   1.000  C
  C96      1.0000 0.74250  0.98940  0.25366  Biso   1.000  C
  C97      1.0000 0.15300  0.42260  0.55440  Biso   1.000  C
  C98      1.0000 0.84700  0.42260  0.94560  Biso   1.000  C
  C99      1.0000 0.65300  0.92260  0.55440  Biso   1.000  C
  C100     1.0000 0.34700  0.92260  0.94560  Biso   1.000  C
  C101     1.0000 0.84700  0.57740  0.44560  Biso   1.000  C
  C102     1.0000 0.15300  0.57740  0.05440  Biso   1.000  C
  C103     1.0000 0.34700  0.07740  0.44560  Biso   1.000  C
  C104     1.0000 0.65300  0.07740  0.05440  Biso   1.000  C
  H41      1.0000 0.09790  0.40750  0.56230  Biso   1.000  H
  H42      1.0000 0.90210  0.40750  0.93770  Biso   1.000  H
  H43      1.0000 0.59790  0.90750  0.56230  Biso   1.000  H
  H44      1.0000 0.40210  0.90750  0.93770  Biso   1.000  H
  H45      1.0000 0.90210  0.59250  0.43770  Biso   1.000  H
  H46      1.0000 0.09790  0.59250  0.06230  Biso   1.000  H
  H47      1.0000 0.40210  0.09250  0.43770  Biso   1.000  H
  H48      1.0000 0.59790  0.09250  0.06230  Biso   1.000  H
  H49      1.0000 0.17940  0.50320  0.56630  Biso   1.000  H
  H50      1.0000 0.82060  0.50320  0.93370  Biso   1.000  H
  H51      1.0000 0.67940  0.00320  0.56630  Biso   1.000  H
  H52      1.0000 0.32060  0.00320  0.93370  Biso   1.000  H
  H53      1.0000 0.82060  0.49680  0.43370  Biso   1.000  H
  H54      1.0000 0.17940  0.49680  0.06630  Biso   1.000  H
  H55      1.0000 0.32060  0.99680  0.43370  Biso   1.000  H
  H56      1.0000 0.67940  0.99680  0.06630  Biso   1.000  H
  C105     1.0000 0.02000  0.27140  0.50279  Biso   1.000  C
  C106     1.0000 0.98000  0.27140  0.99721  Biso   1.000  C
  C107     1.0000 0.52000  0.77140  0.50279  Biso   1.000  C
  C108     1.0000 0.48000  0.77140  0.99721  Biso   1.000  C
  C109     1.0000 0.98000  0.72860  0.49721  Biso   1.000  C
  C110     1.0000 0.02000  0.72860  0.00279  Biso   1.000  C
  C111     1.0000 0.48000  0.22860  0.49721  Biso   1.000  C
  C112     1.0000 0.52000  0.22860  0.00279  Biso   1.000  C
  H57      1.0000 0.99170  0.31070  0.52130  Biso   1.000  H
  H58      1.0000 0.00830  0.31070  0.97870  Biso   1.000  H
  H59      1.0000 0.49170  0.81070  0.52130  Biso   1.000  H
  H60      1.0000 0.50830  0.81070  0.97870  Biso   1.000  H
  H61      1.0000 0.00830  0.68930  0.47870  Biso   1.000  H
  H62      1.0000 0.99170  0.68930  0.02130  Biso   1.000  H
  H63      1.0000 0.50830  0.18930  0.47870  Biso   1.000  H
  H64      1.0000 0.49170  0.18930  0.02130  Biso   1.000  H
  H65      1.0000 0.05260  0.19140  0.51210  Biso   1.000  H
  H66      1.0000 0.94740  0.19140  0.98790  Biso   1.000  H
  H67      1.0000 0.55260  0.69140  0.51210  Biso   1.000  H
  H68      1.0000 0.44740  0.69140  0.98790  Biso   1.000  H
  H69      1.0000 0.94740  0.80860  0.48790  Biso   1.000  H
  H70      1.0000 0.05260  0.80860  0.01210  Biso   1.000  H
  H71      1.0000 0.44740  0.30860  0.48790  Biso   1.000  H
  H72      1.0000 0.55260  0.30860  0.01210  Biso   1.000  H
  C113     1.0000 0.29800  0.76740  0.37741  Biso   1.000  C
  C114     1.0000 0.70200  0.76740  0.12259  Biso   1.000  C
  C115     1.0000 0.79800  0.26740  0.37741  Biso   1.000  C
  C116     1.0000 0.20200  0.26740  0.12259  Biso   1.000  C
  C117     1.0000 0.70200  0.23260  0.62259  Biso   1.000  C
  C118     1.0000 0.29800  0.23260  0.87741  Biso   1.000  C
  C119     1.0000 0.20200  0.73260  0.62259  Biso   1.000  C
  C120     1.0000 0.79800  0.73260  0.87741  Biso   1.000  C
  C121     1.0000 0.98870  0.51960  0.26731  Biso   1.000  C
  C122     1.0000 0.01130  0.51960  0.23269  Biso   1.000  C
  C123     1.0000 0.48870  0.01960  0.26731  Biso   1.000  C
  C124     1.0000 0.51130  0.01960  0.23269  Biso   1.000  C
  C125     1.0000 0.01130  0.48040  0.73269  Biso   1.000  C
  C126     1.0000 0.98870  0.48040  0.76731  Biso   1.000  C
  C127     1.0000 0.51130  0.98040  0.73269  Biso   1.000  C
  C128     1.0000 0.48870  0.98040  0.76731  Biso   1.000  C
  C129     1.0000 0.97460  0.89260  0.40701  Biso   1.000  C
  C130     1.0000 0.02540  0.89260  0.09299  Biso   1.000  C
  C131     1.0000 0.47460  0.39260  0.40701  Biso   1.000  C
  C132     1.0000 0.52540  0.39260  0.09299  Biso   1.000  C
  C133     1.0000 0.02540  0.10740  0.59299  Biso   1.000  C
  C134     1.0000 0.97460  0.10740  0.90701  Biso   1.000  C
  C135     1.0000 0.52540  0.60740  0.59299  Biso   1.000  C
  C136     1.0000 0.47460  0.60740  0.90701  Biso   1.000  C
  H73      1.0000 0.93900  0.83680  0.39210  Biso   1.000  H
  H74      1.0000 0.06100  0.83680  0.10790  Biso   1.000  H
  H75      1.0000 0.43900  0.33680  0.39210  Biso   1.000  H
  H76      1.0000 0.56100  0.33680  0.10790  Biso   1.000  H
  H77      1.0000 0.06100  0.16320  0.60790  Biso   1.000  H
  H78      1.0000 0.93900  0.16320  0.89210  Biso   1.000  H
  H79      1.0000 0.56100  0.66320  0.60790  Biso   1.000  H
  H80      1.0000 0.43900  0.66320  0.89210  Biso   1.000  H
  C137     1.0000 0.04200  0.11710  0.34576  Biso   1.000  C
  C138     1.0000 0.95800  0.11710  0.15424  Biso   1.000  C
  C139     1.0000 0.54200  0.61710  0.34576  Biso   1.000  C
  C140     1.0000 0.45800  0.61710  0.15424  Biso   1.000  C
  C141     1.0000 0.95800  0.88290  0.65424  Biso   1.000  C
  C142     1.0000 0.04200  0.88290  0.84576  Biso   1.000  C
  C143     1.0000 0.45800  0.38290  0.65424  Biso   1.000  C
  C144     1.0000 0.54200  0.38290  0.84576  Biso   1.000  C
  H81      1.0000 0.08000  0.17910  0.35770  Biso   1.000  H
  H82      1.0000 0.92000  0.17910  0.14230  Biso   1.000  H
  H83      1.0000 0.58000  0.67910  0.35770  Biso   1.000  H
  H84      1.0000 0.42000  0.67910  0.14230  Biso   1.000  H
  H85      1.0000 0.92000  0.82090  0.64230  Biso   1.000  H
  H86      1.0000 0.08000  0.82090  0.85770  Biso   1.000  H
  H87      1.0000 0.42000  0.32090  0.64230  Biso   1.000  H
  H88      1.0000 0.58000  0.32090  0.85770  Biso   1.000  H
  C145     1.0000 0.07670  0.05370  0.45089  Biso   1.000  C
  C146     1.0000 0.92330  0.05370  0.04911  Biso   1.000  C
  C147     1.0000 0.57670  0.55370  0.45089  Biso   1.000  C
  C148     1.0000 0.42330  0.55370  0.04911  Biso   1.000  C
  C149     1.0000 0.92330  0.94630  0.54911  Biso   1.000  C
  C150     1.0000 0.07670  0.94630  0.95089  Biso   1.000  C
  C151     1.0000 0.42330  0.44630  0.54911  Biso   1.000  C
  C152     1.0000 0.57670  0.44630  0.95089  Biso   1.000  C
  H89      1.0000 0.11400  0.10740  0.46570  Biso   1.000  H
  H90      1.0000 0.88600  0.10740  0.03430  Biso   1.000  H
  H91      1.0000 0.61400  0.60740  0.46570  Biso   1.000  H
  H92      1.0000 0.38600  0.60740  0.03430  Biso   1.000  H
  H93      1.0000 0.88600  0.89260  0.53430  Biso   1.000  H
  H94      1.0000 0.11400  0.89260  0.96570  Biso   1.000  H
  H95      1.0000 0.38600  0.39260  0.53430  Biso   1.000  H
  H96      1.0000 0.61400  0.39260  0.96570  Biso   1.000  H
  C153     1.0000 0.01970  0.90440  0.31453  Biso   1.000  C
  C154     1.0000 0.98030  0.90440  0.18547  Biso   1.000  C
  C155     1.0000 0.51970  0.40440  0.31453  Biso   1.000  C
  C156     1.0000 0.48030  0.40440  0.18547  Biso   1.000  C
  C157     1.0000 0.98030  0.09560  0.68547  Biso   1.000  C
  C158     1.0000 0.01970  0.09560  0.81453  Biso   1.000  C
  C159     1.0000 0.48030  0.59560  0.68547  Biso   1.000  C
  C160     1.0000 0.51970  0.59560  0.81453  Biso   1.000  C
  C161     1.0000 0.08100  0.37830  0.49205  Biso   1.000  C
  C162     1.0000 0.91900  0.37830  0.00795  Biso   1.000  C
  C163     1.0000 0.58100  0.87830  0.49205  Biso   1.000  C
  C164     1.0000 0.41900  0.87830  0.00795  Biso   1.000  C
  C165     1.0000 0.91900  0.62170  0.50795  Biso   1.000  C
  C166     1.0000 0.08100  0.62170  0.99205  Biso   1.000  C
  C167     1.0000 0.41900  0.12170  0.50795  Biso   1.000  C
  C168     1.0000 0.58100  0.12170  0.99205  Biso   1.000  C
  C169     1.0000 0.22580  0.34210  0.66538  Biso   1.000  C
  C170     1.0000 0.77420  0.34210  0.83462  Biso   1.000  C
  C171     1.0000 0.72580  0.84210  0.66538  Biso   1.000  C
  C172     1.0000 0.27420  0.84210  0.83462  Biso   1.000  C
  C173     1.0000 0.77420  0.65790  0.33462  Biso   1.000  C
  C174     1.0000 0.22580  0.65790  0.16538  Biso   1.000  C
  C175     1.0000 0.27420  0.15790  0.33462  Biso   1.000  C
  C176     1.0000 0.72580  0.15790  0.16538  Biso   1.000  C
  H97      1.0000 0.21000  0.41320  0.67960  Biso   1.000  H
  H98      1.0000 0.79000  0.41320  0.82040  Biso   1.000  H
  H99      1.0000 0.71000  0.91320  0.67960  Biso   1.000  H
  H100     1.0000 0.29000  0.91320  0.82040  Biso   1.000  H
  H101     1.0000 0.79000  0.58680  0.32040  Biso   1.000  H
  H102     1.0000 0.21000  0.58680  0.17960  Biso   1.000  H
  H103     1.0000 0.29000  0.08680  0.32040  Biso   1.000  H
  H104     1.0000 0.71000  0.08680  0.17960  Biso   1.000  H
  C177     1.0000 0.96870  0.64680  0.28714  Biso   1.000  C
  C178     1.0000 0.03130  0.64680  0.21286  Biso   1.000  C
  C179     1.0000 0.46870  0.14680  0.28714  Biso   1.000  C
  C180     1.0000 0.53130  0.14680  0.21286  Biso   1.000  C
  C181     1.0000 0.03130  0.35320  0.71286  Biso   1.000  C
  C182     1.0000 0.96870  0.35320  0.78714  Biso   1.000  C
  C183     1.0000 0.53130  0.85320  0.71286  Biso   1.000  C
  C184     1.0000 0.46870  0.85320  0.78714  Biso   1.000  C
  H105     1.0000 0.94520  0.61870  0.30790  Biso   1.000  H
  H106     1.0000 0.05480  0.61870  0.19210  Biso   1.000  H
  H107     1.0000 0.44520  0.11870  0.30790  Biso   1.000  H
  H108     1.0000 0.55480  0.11870  0.19210  Biso   1.000  H
  H109     1.0000 0.05480  0.38130  0.69210  Biso   1.000  H
  H110     1.0000 0.94520  0.38130  0.80790  Biso   1.000  H
  H111     1.0000 0.55480  0.88130  0.69210  Biso   1.000  H
  H112     1.0000 0.44520  0.88130  0.80790  Biso   1.000  H
  H113     1.0000 0.92620  0.70210  0.27330  Biso   1.000  H
  H114     1.0000 0.07380  0.70210  0.22670  Biso   1.000  H
  H115     1.0000 0.42620  0.20210  0.27330  Biso   1.000  H
  H116     1.0000 0.57380  0.20210  0.22670  Biso   1.000  H
  H117     1.0000 0.07380  0.29790  0.72670  Biso   1.000  H
  H118     1.0000 0.92620  0.29790  0.77330  Biso   1.000  H
  H119     1.0000 0.57380  0.79790  0.72670  Biso   1.000  H
  H120     1.0000 0.42620  0.79790  0.77330  Biso   1.000  H
  C185     1.0000 0.10640  0.94800  0.43208  Biso   1.000  C
  C186     1.0000 0.89360  0.94800  0.06792  Biso   1.000  C
  C187     1.0000 0.60640  0.44800  0.43208  Biso   1.000  C
  C188     1.0000 0.39360  0.44800  0.06792  Biso   1.000  C
  C189     1.0000 0.89360  0.05200  0.56792  Biso   1.000  C
  C190     1.0000 0.10640  0.05200  0.93208  Biso   1.000  C
  C191     1.0000 0.39360  0.55200  0.56792  Biso   1.000  C
  C192     1.0000 0.60640  0.55200  0.93208  Biso   1.000  C
  H121     1.0000 0.16480  0.93220  0.43460  Biso   1.000  H
  H122     1.0000 0.83520  0.93220  0.06540  Biso   1.000  H
  H123     1.0000 0.66480  0.43220  0.43460  Biso   1.000  H
  H124     1.0000 0.33520  0.43220  0.06540  Biso   1.000  H
  H125     1.0000 0.83520  0.06780  0.56540  Biso   1.000  H
  H126     1.0000 0.16480  0.06780  0.93460  Biso   1.000  H
  H127     1.0000 0.33520  0.56780  0.56540  Biso   1.000  H
  H128     1.0000 0.66480  0.56780  0.93460  Biso   1.000  H
  C193     1.0000 0.90700  0.05660  0.32663  Biso   1.000  C
  C194     1.0000 0.09300  0.05660  0.17337  Biso   1.000  C
  C195     1.0000 0.40700  0.55660  0.32663  Biso   1.000  C
  C196     1.0000 0.59300  0.55660  0.17337  Biso   1.000  C
  C197     1.0000 0.09300  0.94340  0.67337  Biso   1.000  C
  C198     1.0000 0.90700  0.94340  0.82663  Biso   1.000  C
  C199     1.0000 0.59300  0.44340  0.67337  Biso   1.000  C
  C200     1.0000 0.40700  0.44340  0.82663  Biso   1.000  C
  H129     1.0000 0.84900  0.07520  0.32470  Biso   1.000  H
  H130     1.0000 0.15100  0.07520  0.17530  Biso   1.000  H
  H131     1.0000 0.34900  0.57520  0.32470  Biso   1.000  H
  H132     1.0000 0.65100  0.57520  0.17530  Biso   1.000  H
  H133     1.0000 0.15100  0.92480  0.67530  Biso   1.000  H
  H134     1.0000 0.84900  0.92480  0.82470  Biso   1.000  H
  H135     1.0000 0.65100  0.42480  0.67530  Biso   1.000  H
  H136     1.0000 0.34900  0.42480  0.82470  Biso   1.000  H
  C201     1.0000 0.93360  0.93680  0.31171  Biso   1.000  C
  C202     1.0000 0.06640  0.93680  0.18829  Biso   1.000  C
  C203     1.0000 0.43360  0.43680  0.31171  Biso   1.000  C
  C204     1.0000 0.56640  0.43680  0.18829  Biso   1.000  C
  C205     1.0000 0.06640  0.06320  0.68829  Biso   1.000  C
  C206     1.0000 0.93360  0.06320  0.81171  Biso   1.000  C
  C207     1.0000 0.56640  0.56320  0.68829  Biso   1.000  C
  C208     1.0000 0.43360  0.56320  0.81171  Biso   1.000  C
  H137     1.0000 0.89400  0.87750  0.29970  Biso   1.000  H
  H138     1.0000 0.10600  0.87750  0.20030  Biso   1.000  H
  H139     1.0000 0.39400  0.37750  0.29970  Biso   1.000  H
  H140     1.0000 0.60600  0.37750  0.20030  Biso   1.000  H
  H141     1.0000 0.10600  0.12250  0.70030  Biso   1.000  H
  H142     1.0000 0.89400  0.12250  0.79970  Biso   1.000  H
  H143     1.0000 0.60600  0.62250  0.70030  Biso   1.000  H
  H144     1.0000 0.39400  0.62250  0.79970  Biso   1.000  H
  C209     1.0000 0.28310  0.12670  0.65896  Biso   1.000  C
  C210     1.0000 0.71690  0.12670  0.84104  Biso   1.000  C
  C211     1.0000 0.78310  0.62670  0.65896  Biso   1.000  C
  C212     1.0000 0.21690  0.62670  0.84104  Biso   1.000  C
  C213     1.0000 0.71690  0.87330  0.34104  Biso   1.000  C
  C214     1.0000 0.28310  0.87330  0.15896  Biso   1.000  C
  C215     1.0000 0.21690  0.37330  0.34104  Biso   1.000  C
  C216     1.0000 0.78310  0.37330  0.15896  Biso   1.000  C
  H145     1.0000 0.30790  0.04540  0.66860  Biso   1.000  H
  H146     1.0000 0.69210  0.04540  0.83140  Biso   1.000  H
  H147     1.0000 0.80790  0.54540  0.66860  Biso   1.000  H
  H148     1.0000 0.19210  0.54540  0.83140  Biso   1.000  H
  H149     1.0000 0.69210  0.95460  0.33140  Biso   1.000  H
  H150     1.0000 0.30790  0.95460  0.16860  Biso   1.000  H
  H151     1.0000 0.19210  0.45460  0.33140  Biso   1.000  H
  H152     1.0000 0.80790  0.45460  0.16860  Biso   1.000  H
  C217     1.0000 0.08550  0.42430  0.45949  Biso   1.000  C
  C218     1.0000 0.91450  0.42430  0.04051  Biso   1.000  C
  C219     1.0000 0.58550  0.92430  0.45949  Biso   1.000  C
  C220     1.0000 0.41450  0.92430  0.04051  Biso   1.000  C
  C221     1.0000 0.91450  0.57570  0.54051  Biso   1.000  C
  C222     1.0000 0.08550  0.57570  0.95949  Biso   1.000  C
  C223     1.0000 0.41450  0.07570  0.54051  Biso   1.000  C
  C224     1.0000 0.58550  0.07570  0.95949  Biso   1.000  C
  H153     1.0000 0.05020  0.39190  0.44040  Biso   1.000  H
  H154     1.0000 0.94980  0.39190  0.05960  Biso   1.000  H
  H155     1.0000 0.55020  0.89190  0.44040  Biso   1.000  H
  H156     1.0000 0.44980  0.89190  0.05960  Biso   1.000  H
  H157     1.0000 0.94980  0.60810  0.55960  Biso   1.000  H
  H158     1.0000 0.05020  0.60810  0.94040  Biso   1.000  H
  H159     1.0000 0.44980  0.10810  0.55960  Biso   1.000  H
  H160     1.0000 0.55020  0.10810  0.94040  Biso   1.000  H
  C225     1.0000 0.98200  0.38790  0.27933  Biso   1.000  C
  C226     1.0000 0.01800  0.38790  0.22067  Biso   1.000  C
  C227     1.0000 0.48200  0.88790  0.27933  Biso   1.000  C
  C228     1.0000 0.51800  0.88790  0.22067  Biso   1.000  C
  C229     1.0000 0.01800  0.61210  0.72067  Biso   1.000  C
  C230     1.0000 0.98200  0.61210  0.77933  Biso   1.000  C
  C231     1.0000 0.51800  0.11210  0.72067  Biso   1.000  C
  C232     1.0000 0.48200  0.11210  0.77933  Biso   1.000  C
  H161     1.0000 0.96880  0.36720  0.30140  Biso   1.000  H
  H162     1.0000 0.03120  0.36720  0.19860  Biso   1.000  H
  H163     1.0000 0.46880  0.86720  0.30140  Biso   1.000  H
  H164     1.0000 0.53120  0.86720  0.19860  Biso   1.000  H
  H165     1.0000 0.03120  0.63280  0.69860  Biso   1.000  H
  H166     1.0000 0.96880  0.63280  0.80140  Biso   1.000  H
  H167     1.0000 0.53120  0.13280  0.69860  Biso   1.000  H
  H168     1.0000 0.46880  0.13280  0.80140  Biso   1.000  H
  C233     1.0000 0.22790  0.74450  0.38066  Biso   1.000  C
  C234     1.0000 0.77210  0.74450  0.11934  Biso   1.000  C
  C235     1.0000 0.72790  0.24450  0.38066  Biso   1.000  C
  C236     1.0000 0.27210  0.24450  0.11934  Biso   1.000  C
  C237     1.0000 0.77210  0.25550  0.61934  Biso   1.000  C
  C238     1.0000 0.22790  0.25550  0.88066  Biso   1.000  C
  C239     1.0000 0.27210  0.75550  0.61934  Biso   1.000  C
  C240     1.0000 0.72790  0.75550  0.88066  Biso   1.000  C
