data_image0
_cell_length_a       13.8291
_cell_length_b       12.241
_cell_length_c       24.3326
_cell_angle_alpha    90
_cell_angle_beta     104.604
_cell_angle_gamma    90

_symmetry_space_group_name_H-M    "P 1"
_symmetry_int_tables_number       1

loop_
  _symmetry_equiv_pos_as_xyz
  'x, y, z'

loop_
  _atom_site_label
  _atom_site_occupancy
  _atom_site_fract_x
  _atom_site_fract_y
  _atom_site_fract_z
  _atom_site_thermal_displace_type
  _atom_site_B_iso_or_equiv
  _atom_site_type_symbol
  C1       1.0000 0.56610  0.95730  0.69126  Biso   1.000  C
  C2       1.0000 0.43390  0.95730  0.80874  Biso   1.000  C
  C3       1.0000 0.06610  0.45730  0.69126  Biso   1.000  C
  C4       1.0000 0.93390  0.45730  0.80874  Biso   1.000  C
  C5       1.0000 0.43390  0.04270  0.30874  Biso   1.000  C
  C6       1.0000 0.56610  0.04270  0.19126  Biso   1.000  C
  C7       1.0000 0.93390  0.54270  0.30874  Biso   1.000  C
  C8       1.0000 0.06610  0.54270  0.19126  Biso   1.000  C
  Cu1      1.0000 0.50285  0.90377  0.19343  Biso   1.000  Cu
  Cu2      1.0000 0.49715  0.90377  0.30657  Biso   1.000  Cu
  Cu3      1.0000 0.00285  0.40377  0.19343  Biso   1.000  Cu
  Cu4      1.0000 0.99715  0.40377  0.30657  Biso   1.000  Cu
  Cu5      1.0000 0.49715  0.09623  0.80657  Biso   1.000  Cu
  Cu6      1.0000 0.50285  0.09623  0.69343  Biso   1.000  Cu
  Cu7      1.0000 0.99715  0.59623  0.80657  Biso   1.000  Cu
  Cu8      1.0000 0.00285  0.59623  0.69343  Biso   1.000  Cu
  Cu9      1.0000 0.18797  0.75076  0.21586  Biso   1.000  Cu
  Cu10     1.0000 0.81203  0.75076  0.28414  Biso   1.000  Cu
  Cu11     1.0000 0.68797  0.25076  0.21586  Biso   1.000  Cu
  Cu12     1.0000 0.31203  0.25076  0.28414  Biso   1.000  Cu
  Cu13     1.0000 0.81203  0.24924  0.78414  Biso   1.000  Cu
  Cu14     1.0000 0.18797  0.24924  0.71586  Biso   1.000  Cu
  Cu15     1.0000 0.31203  0.74924  0.78414  Biso   1.000  Cu
  Cu16     1.0000 0.68797  0.74924  0.71586  Biso   1.000  Cu
  S1       1.0000 0.56372  0.50466  0.92954  Biso   1.000  S
  S2       1.0000 0.43628  0.50466  0.57046  Biso   1.000  S
  S3       1.0000 0.06372  0.00466  0.92954  Biso   1.000  S
  S4       1.0000 0.93628  0.00466  0.57046  Biso   1.000  S
  S5       1.0000 0.43628  0.49534  0.07046  Biso   1.000  S
  S6       1.0000 0.56372  0.49534  0.42954  Biso   1.000  S
  S7       1.0000 0.93628  0.99534  0.07046  Biso   1.000  S
  S8       1.0000 0.06372  0.99534  0.42954  Biso   1.000  S
  S9       1.0000 0.77209  0.61897  0.05509  Biso   1.000  S
  S10      1.0000 0.22791  0.61897  0.44491  Biso   1.000  S
  S11      1.0000 0.27209  0.11897  0.05509  Biso   1.000  S
  S12      1.0000 0.72791  0.11897  0.44491  Biso   1.000  S
  S13      1.0000 0.22791  0.38103  0.94491  Biso   1.000  S
  S14      1.0000 0.77209  0.38103  0.55509  Biso   1.000  S
  S15      1.0000 0.72791  0.88103  0.94491  Biso   1.000  S
  S16      1.0000 0.27209  0.88103  0.55509  Biso   1.000  S
  S17      1.0000 0.92223  0.35294  0.96640  Biso   1.000  S
  S18      1.0000 0.07777  0.35294  0.53360  Biso   1.000  S
  S19      1.0000 0.42223  0.85294  0.96640  Biso   1.000  S
  S20      1.0000 0.57777  0.85294  0.53360  Biso   1.000  S
  S21      1.0000 0.07777  0.64706  0.03360  Biso   1.000  S
  S22      1.0000 0.92223  0.64706  0.46640  Biso   1.000  S
  S23      1.0000 0.57777  0.14706  0.03360  Biso   1.000  S
  S24      1.0000 0.42223  0.14706  0.46640  Biso   1.000  S
  C9       1.0000 0.30070  0.18230  0.70054  Biso   1.000  C
  C10      1.0000 0.69930  0.18230  0.79946  Biso   1.000  C
  C11      1.0000 0.80070  0.68230  0.70054  Biso   1.000  C
  C12      1.0000 0.19930  0.68230  0.79946  Biso   1.000  C
  C13      1.0000 0.69930  0.81770  0.29946  Biso   1.000  C
  C14      1.0000 0.30070  0.81770  0.20054  Biso   1.000  C
  C15      1.0000 0.19930  0.31770  0.29946  Biso   1.000  C
  C16      1.0000 0.80070  0.31770  0.20054  Biso   1.000  C
  C17      1.0000 0.70020  0.68370  0.09495  Biso   1.000  C
  C18      1.0000 0.29980  0.68370  0.40505  Biso   1.000  C
  C19      1.0000 0.20020  0.18370  0.09495  Biso   1.000  C
  C20      1.0000 0.79980  0.18370  0.40505  Biso   1.000  C
  C21      1.0000 0.29980  0.31630  0.90505  Biso   1.000  C
  C22      1.0000 0.70020  0.31630  0.59495  Biso   1.000  C
  C23      1.0000 0.79980  0.81630  0.90505  Biso   1.000  C
  C24      1.0000 0.20020  0.81630  0.59495  Biso   1.000  C
  C25      1.0000 0.37700  0.85020  0.19850  Biso   1.000  C
  C26      1.0000 0.62300  0.85020  0.30150  Biso   1.000  C
  C27      1.0000 0.87700  0.35020  0.19850  Biso   1.000  C
  C28      1.0000 0.12300  0.35020  0.30150  Biso   1.000  C
  C29      1.0000 0.62300  0.14980  0.80150  Biso   1.000  C
  C30      1.0000 0.37700  0.14980  0.69850  Biso   1.000  C
  C31      1.0000 0.12300  0.64980  0.80150  Biso   1.000  C
  C32      1.0000 0.87700  0.64980  0.69850  Biso   1.000  C
  C33      1.0000 0.61180  0.12100  0.19743  Biso   1.000  C
  C34      1.0000 0.38820  0.12100  0.30257  Biso   1.000  C
  C35      1.0000 0.11180  0.62100  0.19743  Biso   1.000  C
  C36      1.0000 0.88820  0.62100  0.30257  Biso   1.000  C
  C37      1.0000 0.38820  0.87900  0.80257  Biso   1.000  C
  C38      1.0000 0.61180  0.87900  0.69743  Biso   1.000  C
  C39      1.0000 0.88820  0.37900  0.80257  Biso   1.000  C
  C40      1.0000 0.11180  0.37900  0.69743  Biso   1.000  C
  C41      1.0000 0.74510  0.47530  0.05878  Biso   1.000  C
  C42      1.0000 0.25490  0.47530  0.44122  Biso   1.000  C
  C43      1.0000 0.24510  0.97530  0.05878  Biso   1.000  C
  C44      1.0000 0.75490  0.97530  0.44122  Biso   1.000  C
  C45      1.0000 0.25490  0.52470  0.94122  Biso   1.000  C
  C46      1.0000 0.74510  0.52470  0.55878  Biso   1.000  C
  C47      1.0000 0.75490  0.02470  0.94122  Biso   1.000  C
  C48      1.0000 0.24510  0.02470  0.55878  Biso   1.000  C
  H1       1.0000 0.67350  0.46290  0.04950  Biso   1.000  H
  H2       1.0000 0.32650  0.46290  0.45050  Biso   1.000  H
  H3       1.0000 0.17350  0.96290  0.04950  Biso   1.000  H
  H4       1.0000 0.82650  0.96290  0.45050  Biso   1.000  H
  H5       1.0000 0.32650  0.53710  0.95050  Biso   1.000  H
  H6       1.0000 0.67350  0.53710  0.54950  Biso   1.000  H
  H7       1.0000 0.82650  0.03710  0.95050  Biso   1.000  H
  H8       1.0000 0.17350  0.03710  0.54950  Biso   1.000  H
  H9       1.0000 0.77440  0.44700  0.09650  Biso   1.000  H
  H10      1.0000 0.22560  0.44700  0.40350  Biso   1.000  H
  H11      1.0000 0.27440  0.94700  0.09650  Biso   1.000  H
  H12      1.0000 0.72560  0.94700  0.40350  Biso   1.000  H
  H13      1.0000 0.22560  0.55300  0.90350  Biso   1.000  H
  H14      1.0000 0.77440  0.55300  0.59650  Biso   1.000  H
  H15      1.0000 0.72560  0.05300  0.90350  Biso   1.000  H
  H16      1.0000 0.27440  0.05300  0.59650  Biso   1.000  H
  N1       1.0000 0.64104  0.66080  0.77670  Biso   1.000  N
  N2       1.0000 0.35896  0.66080  0.72330  Biso   1.000  N
  N3       1.0000 0.14104  0.16080  0.77670  Biso   1.000  N
  N4       1.0000 0.85896  0.16080  0.72330  Biso   1.000  N
  N5       1.0000 0.35896  0.33920  0.22330  Biso   1.000  N
  N6       1.0000 0.64104  0.33920  0.27670  Biso   1.000  N
  N7       1.0000 0.85896  0.83920  0.22330  Biso   1.000  N
  N8       1.0000 0.14104  0.83920  0.27670  Biso   1.000  N
  C49      1.0000 0.59300  0.55730  0.86859  Biso   1.000  C
  C50      1.0000 0.40700  0.55730  0.63141  Biso   1.000  C
  C51      1.0000 0.09300  0.05730  0.86859  Biso   1.000  C
  C52      1.0000 0.90700  0.05730  0.63141  Biso   1.000  C
  C53      1.0000 0.40700  0.44270  0.13141  Biso   1.000  C
  C54      1.0000 0.59300  0.44270  0.36859  Biso   1.000  C
  C55      1.0000 0.90700  0.94270  0.13141  Biso   1.000  C
  C56      1.0000 0.09300  0.94270  0.36859  Biso   1.000  C
  N9       1.0000 0.59100  0.80610  0.15590  Biso   1.000  N
  N10      1.0000 0.40900  0.80610  0.34410  Biso   1.000  N
  N11      1.0000 0.09100  0.30610  0.15590  Biso   1.000  N
  N12      1.0000 0.90900  0.30610  0.34410  Biso   1.000  N
  N13      1.0000 0.40900  0.19390  0.84410  Biso   1.000  N
  N14      1.0000 0.59100  0.19390  0.65590  Biso   1.000  N
  N15      1.0000 0.90900  0.69390  0.84410  Biso   1.000  N
  N16      1.0000 0.09100  0.69390  0.65590  Biso   1.000  N
  C57      1.0000 0.59350  0.71380  0.81068  Biso   1.000  C
  C58      1.0000 0.40650  0.71380  0.68932  Biso   1.000  C
  C59      1.0000 0.09350  0.21380  0.81068  Biso   1.000  C
  C60      1.0000 0.90650  0.21380  0.68932  Biso   1.000  C
  C61      1.0000 0.40650  0.28620  0.18932  Biso   1.000  C
  C62      1.0000 0.59350  0.28620  0.31068  Biso   1.000  C
  C63      1.0000 0.90650  0.78620  0.18932  Biso   1.000  C
  C64      1.0000 0.09350  0.78620  0.31068  Biso   1.000  C
  H17      1.0000 0.57620  0.78660  0.80280  Biso   1.000  H
  H18      1.0000 0.42380  0.78660  0.69720  Biso   1.000  H
  H19      1.0000 0.07620  0.28660  0.80280  Biso   1.000  H
  H20      1.0000 0.92380  0.28660  0.69720  Biso   1.000  H
  H21      1.0000 0.42380  0.21340  0.19720  Biso   1.000  H
  H22      1.0000 0.57620  0.21340  0.30280  Biso   1.000  H
  H23      1.0000 0.92380  0.71340  0.19720  Biso   1.000  H
  H24      1.0000 0.07620  0.71340  0.30280  Biso   1.000  H
  C65      1.0000 0.79110  0.42090  0.01551  Biso   1.000  C
  C66      1.0000 0.20890  0.42090  0.48449  Biso   1.000  C
  C67      1.0000 0.29110  0.92090  0.01551  Biso   1.000  C
  C68      1.0000 0.70890  0.92090  0.48449  Biso   1.000  C
  C69      1.0000 0.20890  0.57910  0.98449  Biso   1.000  C
  C70      1.0000 0.79110  0.57910  0.51551  Biso   1.000  C
  C71      1.0000 0.70890  0.07910  0.98449  Biso   1.000  C
  C72      1.0000 0.29110  0.07910  0.51551  Biso   1.000  C
  C73      1.0000 0.63170  0.85160  0.11718  Biso   1.000  C
  C74      1.0000 0.36830  0.85160  0.38282  Biso   1.000  C
  C75      1.0000 0.13170  0.35160  0.11718  Biso   1.000  C
  C76      1.0000 0.86830  0.35160  0.38282  Biso   1.000  C
  C77      1.0000 0.36830  0.14840  0.88282  Biso   1.000  C
  C78      1.0000 0.63170  0.14840  0.61718  Biso   1.000  C
  C79      1.0000 0.86830  0.64840  0.88282  Biso   1.000  C
  C80      1.0000 0.13170  0.64840  0.61718  Biso   1.000  C
  H25      1.0000 0.62390  0.92650  0.11120  Biso   1.000  H
  H26      1.0000 0.37610  0.92650  0.38880  Biso   1.000  H
  H27      1.0000 0.12390  0.42650  0.11120  Biso   1.000  H
  H28      1.0000 0.87610  0.42650  0.38880  Biso   1.000  H
  H29      1.0000 0.37610  0.07350  0.88880  Biso   1.000  H
  H30      1.0000 0.62390  0.07350  0.61120  Biso   1.000  H
  H31      1.0000 0.87610  0.57350  0.88880  Biso   1.000  H
  H32      1.0000 0.12390  0.57350  0.61120  Biso   1.000  H
  C81      1.0000 0.60700  0.69840  0.16457  Biso   1.000  C
  C82      1.0000 0.39300  0.69840  0.33543  Biso   1.000  C
  C83      1.0000 0.10700  0.19840  0.16457  Biso   1.000  C
  C84      1.0000 0.89300  0.19840  0.33543  Biso   1.000  C
  C85      1.0000 0.39300  0.30160  0.83543  Biso   1.000  C
  C86      1.0000 0.60700  0.30160  0.66457  Biso   1.000  C
  C87      1.0000 0.89300  0.80160  0.83543  Biso   1.000  C
  C88      1.0000 0.10700  0.80160  0.66457  Biso   1.000  C
  H33      1.0000 0.57970  0.66450  0.19140  Biso   1.000  H
  H34      1.0000 0.42030  0.66450  0.30860  Biso   1.000  H
  H35      1.0000 0.07970  0.16450  0.19140  Biso   1.000  H
  H36      1.0000 0.92030  0.16450  0.30860  Biso   1.000  H
  H37      1.0000 0.42030  0.33550  0.80860  Biso   1.000  H
  H38      1.0000 0.57970  0.33550  0.69140  Biso   1.000  H
  H39      1.0000 0.92030  0.83550  0.80860  Biso   1.000  H
  H40      1.0000 0.07970  0.83550  0.69140  Biso   1.000  H
  C89      1.0000 0.66200  0.55600  0.78839  Biso   1.000  C
  C90      1.0000 0.33800  0.55600  0.71161  Biso   1.000  C
  C91      1.0000 0.16200  0.05600  0.78839  Biso   1.000  C
  C92      1.0000 0.83800  0.05600  0.71161  Biso   1.000  C
  C93      1.0000 0.33800  0.44400  0.21161  Biso   1.000  C
  C94      1.0000 0.66200  0.44400  0.28839  Biso   1.000  C
  C95      1.0000 0.83800  0.94400  0.21161  Biso   1.000  C
  C96      1.0000 0.16200  0.94400  0.28839  Biso   1.000  C
  H41      1.0000 0.69450  0.51780  0.76530  Biso   1.000  H
  H42      1.0000 0.30550  0.51780  0.73470  Biso   1.000  H
  H43      1.0000 0.19450  0.01780  0.76530  Biso   1.000  H
  H44      1.0000 0.80550  0.01780  0.73470  Biso   1.000  H
  H45      1.0000 0.30550  0.48220  0.23470  Biso   1.000  H
  H46      1.0000 0.69450  0.48220  0.26530  Biso   1.000  H
  H47      1.0000 0.80550  0.98220  0.23470  Biso   1.000  H
  H48      1.0000 0.19450  0.98220  0.26530  Biso   1.000  H
  C97      1.0000 0.63850  0.50050  0.83255  Biso   1.000  C
  C98      1.0000 0.36150  0.50050  0.66745  Biso   1.000  C
  C99      1.0000 0.13850  0.00050  0.83255  Biso   1.000  C
  C100     1.0000 0.86150  0.00050  0.66745  Biso   1.000  C
  C101     1.0000 0.36150  0.49950  0.16745  Biso   1.000  C
  C102     1.0000 0.63850  0.49950  0.33255  Biso   1.000  C
  C103     1.0000 0.86150  0.99950  0.16745  Biso   1.000  C
  C104     1.0000 0.13850  0.99950  0.33255  Biso   1.000  C
  H49      1.0000 0.65290  0.42650  0.83810  Biso   1.000  H
  H50      1.0000 0.34710  0.42650  0.66190  Biso   1.000  H
  H51      1.0000 0.15290  0.92650  0.83810  Biso   1.000  H
  H52      1.0000 0.84710  0.92650  0.66190  Biso   1.000  H
  H53      1.0000 0.34710  0.57350  0.16190  Biso   1.000  H
  H54      1.0000 0.65290  0.57350  0.33810  Biso   1.000  H
  H55      1.0000 0.84710  0.07350  0.16190  Biso   1.000  H
  H56      1.0000 0.15290  0.07350  0.33810  Biso   1.000  H
  C105     1.0000 0.56950  0.66560  0.85626  Biso   1.000  C
  C106     1.0000 0.43050  0.66560  0.64374  Biso   1.000  C
  C107     1.0000 0.06950  0.16560  0.85626  Biso   1.000  C
  C108     1.0000 0.93050  0.16560  0.64374  Biso   1.000  C
  C109     1.0000 0.43050  0.33440  0.14374  Biso   1.000  C
  C110     1.0000 0.56950  0.33440  0.35626  Biso   1.000  C
  C111     1.0000 0.93050  0.83440  0.14374  Biso   1.000  C
  C112     1.0000 0.06950  0.83440  0.35626  Biso   1.000  C
  H57      1.0000 0.53740  0.70580  0.87890  Biso   1.000  H
  H58      1.0000 0.46260  0.70580  0.62110  Biso   1.000  H
  H59      1.0000 0.03740  0.20580  0.87890  Biso   1.000  H
  H60      1.0000 0.96260  0.20580  0.62110  Biso   1.000  H
  H61      1.0000 0.46260  0.29420  0.12110  Biso   1.000  H
  H62      1.0000 0.53740  0.29420  0.37890  Biso   1.000  H
  H63      1.0000 0.96260  0.79420  0.12110  Biso   1.000  H
  H64      1.0000 0.03740  0.79420  0.37890  Biso   1.000  H
  C113     1.0000 0.66120  0.63540  0.13625  Biso   1.000  C
  C114     1.0000 0.33880  0.63540  0.36375  Biso   1.000  C
  C115     1.0000 0.16120  0.13540  0.13625  Biso   1.000  C
  C116     1.0000 0.83880  0.13540  0.36375  Biso   1.000  C
  C117     1.0000 0.33880  0.36460  0.86375  Biso   1.000  C
  C118     1.0000 0.66120  0.36460  0.63625  Biso   1.000  C
  C119     1.0000 0.83880  0.86460  0.86375  Biso   1.000  C
  C120     1.0000 0.16120  0.86460  0.63625  Biso   1.000  C
  H65      1.0000 0.67150  0.56150  0.14470  Biso   1.000  H
  H66      1.0000 0.32850  0.56150  0.35530  Biso   1.000  H
  H67      1.0000 0.17150  0.06150  0.14470  Biso   1.000  H
  H68      1.0000 0.82850  0.06150  0.35530  Biso   1.000  H
  H69      1.0000 0.32850  0.43850  0.85530  Biso   1.000  H
  H70      1.0000 0.67150  0.43850  0.64470  Biso   1.000  H
  H71      1.0000 0.82850  0.93850  0.85530  Biso   1.000  H
  H72      1.0000 0.17150  0.93850  0.64470  Biso   1.000  H
  C121     1.0000 0.68410  0.79520  0.08580  Biso   1.000  C
  C122     1.0000 0.31590  0.79520  0.41420  Biso   1.000  C
  C123     1.0000 0.18410  0.29520  0.08580  Biso   1.000  C
  C124     1.0000 0.81590  0.29520  0.41420  Biso   1.000  C
  C125     1.0000 0.31590  0.20480  0.91420  Biso   1.000  C
  C126     1.0000 0.68410  0.20480  0.58580  Biso   1.000  C
  C127     1.0000 0.81590  0.70480  0.91420  Biso   1.000  C
  C128     1.0000 0.18410  0.70480  0.58580  Biso   1.000  C
  H73      1.0000 0.70890  0.83100  0.05850  Biso   1.000  H
  H74      1.0000 0.29110  0.83100  0.44150  Biso   1.000  H
  H75      1.0000 0.20890  0.33100  0.05850  Biso   1.000  H
  H76      1.0000 0.79110  0.33100  0.44150  Biso   1.000  H
  H77      1.0000 0.29110  0.16900  0.94150  Biso   1.000  H
  H78      1.0000 0.70890  0.16900  0.55850  Biso   1.000  H
  H79      1.0000 0.79110  0.66900  0.94150  Biso   1.000  H
  H80      1.0000 0.20890  0.66900  0.55850  Biso   1.000  H
  C129     1.0000 0.89070  0.41220  0.02272  Biso   1.000  C
  C130     1.0000 0.10930  0.41220  0.47728  Biso   1.000  C
  C131     1.0000 0.39070  0.91220  0.02272  Biso   1.000  C
  C132     1.0000 0.60930  0.91220  0.47728  Biso   1.000  C
  C133     1.0000 0.10930  0.58780  0.97728  Biso   1.000  C
  C134     1.0000 0.89070  0.58780  0.52272  Biso   1.000  C
  C135     1.0000 0.60930  0.08780  0.97728  Biso   1.000  C
  C136     1.0000 0.39070  0.08780  0.52272  Biso   1.000  C
  H81      1.0000 0.93730  0.43600  0.05510  Biso   1.000  H
  H82      1.0000 0.06270  0.43600  0.44490  Biso   1.000  H
  H83      1.0000 0.43730  0.93600  0.05510  Biso   1.000  H
  H84      1.0000 0.56270  0.93600  0.44490  Biso   1.000  H
  H85      1.0000 0.06270  0.56400  0.94490  Biso   1.000  H
  H86      1.0000 0.93730  0.56400  0.55510  Biso   1.000  H
  H87      1.0000 0.56270  0.06400  0.94490  Biso   1.000  H
  H88      1.0000 0.43730  0.06400  0.55510  Biso   1.000  H
  C137     1.0000 0.80060  0.33790  0.93243  Biso   1.000  C
  C138     1.0000 0.19940  0.33790  0.56757  Biso   1.000  C
  C139     1.0000 0.30060  0.83790  0.93243  Biso   1.000  C
  C140     1.0000 0.69940  0.83790  0.56757  Biso   1.000  C
  C141     1.0000 0.19940  0.66210  0.06757  Biso   1.000  C
  C142     1.0000 0.80060  0.66210  0.43243  Biso   1.000  C
  C143     1.0000 0.69940  0.16210  0.06757  Biso   1.000  C
  C144     1.0000 0.30060  0.16210  0.43243  Biso   1.000  C
  H89      1.0000 0.77900  0.30560  0.89680  Biso   1.000  H
  H90      1.0000 0.22100  0.30560  0.60320  Biso   1.000  H
  H91      1.0000 0.27900  0.80560  0.89680  Biso   1.000  H
  H92      1.0000 0.72100  0.80560  0.60320  Biso   1.000  H
  H93      1.0000 0.22100  0.69440  0.10320  Biso   1.000  H
  H94      1.0000 0.77900  0.69440  0.39680  Biso   1.000  H
  H95      1.0000 0.72100  0.19440  0.10320  Biso   1.000  H
  H96      1.0000 0.27900  0.19440  0.39680  Biso   1.000  H
  C145     1.0000 0.73710  0.37760  0.96223  Biso   1.000  C
  C146     1.0000 0.26290  0.37760  0.53777  Biso   1.000  C
  C147     1.0000 0.23710  0.87760  0.96223  Biso   1.000  C
  C148     1.0000 0.76290  0.87760  0.53777  Biso   1.000  C
  C149     1.0000 0.26290  0.62240  0.03777  Biso   1.000  C
  C150     1.0000 0.73710  0.62240  0.46223  Biso   1.000  C
  C151     1.0000 0.76290  0.12240  0.03777  Biso   1.000  C
  C152     1.0000 0.23710  0.12240  0.46223  Biso   1.000  C
  C153     1.0000 0.62500  0.37310  0.94151  Biso   1.000  C
  C154     1.0000 0.37500  0.37310  0.55849  Biso   1.000  C
  C155     1.0000 0.12500  0.87310  0.94151  Biso   1.000  C
  C156     1.0000 0.87500  0.87310  0.55849  Biso   1.000  C
  C157     1.0000 0.37500  0.62690  0.05849  Biso   1.000  C
  C158     1.0000 0.62500  0.62690  0.44151  Biso   1.000  C
  C159     1.0000 0.87500  0.12690  0.05849  Biso   1.000  C
  C160     1.0000 0.12500  0.12690  0.44151  Biso   1.000  C
  H97      1.0000 0.60780  0.33210  0.90630  Biso   1.000  H
  H98      1.0000 0.39220  0.33210  0.59370  Biso   1.000  H
  H99      1.0000 0.10780  0.83210  0.90630  Biso   1.000  H
  H100     1.0000 0.89220  0.83210  0.59370  Biso   1.000  H
  H101     1.0000 0.39220  0.66790  0.09370  Biso   1.000  H
  H102     1.0000 0.60780  0.66790  0.40630  Biso   1.000  H
  H103     1.0000 0.89220  0.16790  0.09370  Biso   1.000  H
  H104     1.0000 0.10780  0.16790  0.40630  Biso   1.000  H
  H105     1.0000 0.59890  0.33320  0.96910  Biso   1.000  H
  H106     1.0000 0.40110  0.33320  0.53090  Biso   1.000  H
  H107     1.0000 0.09890  0.83320  0.96910  Biso   1.000  H
  H108     1.0000 0.90110  0.83320  0.53090  Biso   1.000  H
  H109     1.0000 0.40110  0.66680  0.03090  Biso   1.000  H
  H110     1.0000 0.59890  0.66680  0.46910  Biso   1.000  H
  H111     1.0000 0.90110  0.16680  0.03090  Biso   1.000  H
  H112     1.0000 0.09890  0.16680  0.46910  Biso   1.000  H
