data_image0
_cell_length_a       22.015
_cell_length_b       7.647
_cell_length_c       16.031
_cell_angle_alpha    90
_cell_angle_beta     118.92
_cell_angle_gamma    90

_symmetry_space_group_name_H-M    "P 1"
_symmetry_int_tables_number       1

loop_
  _symmetry_equiv_pos_as_xyz
  'x, y, z'

loop_
  _atom_site_label
  _atom_site_occupancy
  _atom_site_fract_x
  _atom_site_fract_y
  _atom_site_fract_z
  _atom_site_thermal_displace_type
  _atom_site_B_iso_or_equiv
  _atom_site_type_symbol
  Cu1      1.0000 0.21310  0.86189  0.02993  Biso   1.000  Cu
  Cu2      1.0000 0.78690  0.86189  0.47007  Biso   1.000  Cu
  Cu3      1.0000 0.71310  0.36189  0.02993  Biso   1.000  Cu
  Cu4      1.0000 0.28690  0.36189  0.47007  Biso   1.000  Cu
  Cu5      1.0000 0.78690  0.13811  0.97007  Biso   1.000  Cu
  Cu6      1.0000 0.21310  0.13811  0.52993  Biso   1.000  Cu
  Cu7      1.0000 0.28690  0.63811  0.97007  Biso   1.000  Cu
  Cu8      1.0000 0.71310  0.63811  0.52993  Biso   1.000  Cu
  S1       1.0000 0.33671  0.78129  0.11766  Biso   1.000  S
  S2       1.0000 0.66329  0.78129  0.38234  Biso   1.000  S
  S3       1.0000 0.83671  0.28129  0.11766  Biso   1.000  S
  S4       1.0000 0.16329  0.28129  0.38234  Biso   1.000  S
  S5       1.0000 0.66329  0.21871  0.88234  Biso   1.000  S
  S6       1.0000 0.33671  0.21871  0.61766  Biso   1.000  S
  S7       1.0000 0.16329  0.71871  0.88234  Biso   1.000  S
  S8       1.0000 0.83671  0.71871  0.61766  Biso   1.000  S
  P1       1.0000 0.38197  0.96898  0.08108  Biso   1.000  P
  P2       1.0000 0.61803  0.96898  0.41892  Biso   1.000  P
  P3       1.0000 0.88197  0.46898  0.08108  Biso   1.000  P
  P4       1.0000 0.11803  0.46898  0.41892  Biso   1.000  P
  P5       1.0000 0.61803  0.03102  0.91892  Biso   1.000  P
  P6       1.0000 0.38197  0.03102  0.58108  Biso   1.000  P
  P7       1.0000 0.11803  0.53102  0.91892  Biso   1.000  P
  P8       1.0000 0.88197  0.53102  0.58108  Biso   1.000  P
  N1       1.0000 0.30814  0.39620  0.96590  Biso   1.000  N
  N2       1.0000 0.69186  0.39620  0.53410  Biso   1.000  N
  N3       1.0000 0.80814  0.89620  0.96590  Biso   1.000  N
  N4       1.0000 0.19186  0.89620  0.53410  Biso   1.000  N
  N5       1.0000 0.69186  0.60380  0.03410  Biso   1.000  N
  N6       1.0000 0.30814  0.60380  0.46590  Biso   1.000  N
  N7       1.0000 0.19186  0.10380  0.03410  Biso   1.000  N
  N8       1.0000 0.80814  0.10380  0.46590  Biso   1.000  N
  O1       1.0000 0.31444  0.80550  0.88909  Biso   1.000  O
  O2       1.0000 0.68556  0.80550  0.61091  Biso   1.000  O
  O3       1.0000 0.81444  0.30550  0.88909  Biso   1.000  O
  O4       1.0000 0.18556  0.30550  0.61091  Biso   1.000  O
  O5       1.0000 0.68556  0.19450  0.11091  Biso   1.000  O
  O6       1.0000 0.31444  0.19450  0.38909  Biso   1.000  O
  O7       1.0000 0.18556  0.69450  0.11091  Biso   1.000  O
  O8       1.0000 0.81444  0.69450  0.38909  Biso   1.000  O
  O9       1.0000 0.44956  0.90390  0.08090  Biso   1.000  O
  O10      1.0000 0.55044  0.90390  0.41910  Biso   1.000  O
  O11      1.0000 0.94956  0.40390  0.08090  Biso   1.000  O
  O12      1.0000 0.05044  0.40390  0.41910  Biso   1.000  O
  O13      1.0000 0.55044  0.09610  0.91910  Biso   1.000  O
  O14      1.0000 0.44956  0.09610  0.58090  Biso   1.000  O
  O15      1.0000 0.05044  0.59610  0.91910  Biso   1.000  O
  O16      1.0000 0.94956  0.59610  0.58090  Biso   1.000  O
  O17      1.0000 0.41098  0.12070  0.15513  Biso   1.000  O
  O18      1.0000 0.58902  0.12070  0.34487  Biso   1.000  O
  O19      1.0000 0.91098  0.62070  0.15513  Biso   1.000  O
  O20      1.0000 0.08902  0.62070  0.34487  Biso   1.000  O
  O21      1.0000 0.58902  0.87930  0.84487  Biso   1.000  O
  O22      1.0000 0.41098  0.87930  0.65513  Biso   1.000  O
  O23      1.0000 0.08902  0.37930  0.84487  Biso   1.000  O
  O24      1.0000 0.91098  0.37930  0.65513  Biso   1.000  O
  C1       1.0000 0.30430  0.96730  0.88680  Biso   1.000  C
  C2       1.0000 0.69570  0.96730  0.61320  Biso   1.000  C
  C3       1.0000 0.80430  0.46730  0.88680  Biso   1.000  C
  C4       1.0000 0.19570  0.46730  0.61320  Biso   1.000  C
  C5       1.0000 0.69570  0.03270  0.11320  Biso   1.000  C
  C6       1.0000 0.30430  0.03270  0.38680  Biso   1.000  C
  C7       1.0000 0.19570  0.53270  0.11320  Biso   1.000  C
  C8       1.0000 0.80430  0.53270  0.38680  Biso   1.000  C
  C9       1.0000 0.33105  0.06890  0.97090  Biso   1.000  C
  C10      1.0000 0.66895  0.06890  0.52910  Biso   1.000  C
  C11      1.0000 0.83105  0.56890  0.97090  Biso   1.000  C
  C12      1.0000 0.16895  0.56890  0.52910  Biso   1.000  C
  C13      1.0000 0.66895  0.93110  0.02910  Biso   1.000  C
  C14      1.0000 0.33105  0.93110  0.47090  Biso   1.000  C
  C15      1.0000 0.16895  0.43110  0.02910  Biso   1.000  C
  C16      1.0000 0.83105  0.43110  0.47090  Biso   1.000  C
  C17      1.0000 0.26210  0.05170  0.79160  Biso   1.000  C
  C18      1.0000 0.73790  0.05170  0.70840  Biso   1.000  C
  C19      1.0000 0.76210  0.55170  0.79160  Biso   1.000  C
  C20      1.0000 0.23790  0.55170  0.70840  Biso   1.000  C
  C21      1.0000 0.73790  0.94830  0.20840  Biso   1.000  C
  C22      1.0000 0.26210  0.94830  0.29160  Biso   1.000  C
  C23      1.0000 0.23790  0.44830  0.20840  Biso   1.000  C
  C24      1.0000 0.76210  0.44830  0.29160  Biso   1.000  C
  H1       1.0000 0.24820  0.96480  0.74240  Biso   1.000  H
  H2       1.0000 0.75180  0.96480  0.75760  Biso   1.000  H
  H3       1.0000 0.74820  0.46480  0.74240  Biso   1.000  H
  H4       1.0000 0.25180  0.46480  0.75760  Biso   1.000  H
  H5       1.0000 0.75180  0.03520  0.25760  Biso   1.000  H
  H6       1.0000 0.24820  0.03520  0.24240  Biso   1.000  H
  H7       1.0000 0.25180  0.53520  0.25760  Biso   1.000  H
  H8       1.0000 0.74820  0.53520  0.24240  Biso   1.000  H
  H9       1.0000 0.22170  0.10480  0.78880  Biso   1.000  H
  H10      1.0000 0.77830  0.10480  0.71120  Biso   1.000  H
  H11      1.0000 0.72170  0.60480  0.78880  Biso   1.000  H
  H12      1.0000 0.27830  0.60480  0.71120  Biso   1.000  H
  H13      1.0000 0.77830  0.89520  0.21120  Biso   1.000  H
  H14      1.0000 0.22170  0.89520  0.28880  Biso   1.000  H
  H15      1.0000 0.27830  0.39520  0.21120  Biso   1.000  H
  H16      1.0000 0.72170  0.39520  0.28880  Biso   1.000  H
  H17      1.0000 0.28950  0.13950  0.78230  Biso   1.000  H
  H18      1.0000 0.71050  0.13950  0.71770  Biso   1.000  H
  H19      1.0000 0.78950  0.63950  0.78230  Biso   1.000  H
  H20      1.0000 0.21050  0.63950  0.71770  Biso   1.000  H
  H21      1.0000 0.71050  0.86050  0.21770  Biso   1.000  H
  H22      1.0000 0.28950  0.86050  0.28230  Biso   1.000  H
  H23      1.0000 0.21050  0.36050  0.21770  Biso   1.000  H
  H24      1.0000 0.78950  0.36050  0.28230  Biso   1.000  H
  C25      1.0000 0.31826  0.24910  0.96820  Biso   1.000  C
  C26      1.0000 0.68174  0.24910  0.53180  Biso   1.000  C
  C27      1.0000 0.81826  0.74910  0.96820  Biso   1.000  C
  C28      1.0000 0.18174  0.74910  0.53180  Biso   1.000  C
  C29      1.0000 0.68174  0.75090  0.03180  Biso   1.000  C
  C30      1.0000 0.31826  0.75090  0.46820  Biso   1.000  C
  C31      1.0000 0.18174  0.25090  0.03180  Biso   1.000  C
  C32      1.0000 0.81826  0.25090  0.46820  Biso   1.000  C
  C33      1.0000 0.47140  0.72960  0.08280  Biso   1.000  C
  C34      1.0000 0.52860  0.72960  0.41720  Biso   1.000  C
  C35      1.0000 0.97140  0.22960  0.08280  Biso   1.000  C
  C36      1.0000 0.02860  0.22960  0.41720  Biso   1.000  C
  C37      1.0000 0.52860  0.27040  0.91720  Biso   1.000  C
  C38      1.0000 0.47140  0.27040  0.58280  Biso   1.000  C
  C39      1.0000 0.02860  0.77040  0.91720  Biso   1.000  C
  C40      1.0000 0.97140  0.77040  0.58280  Biso   1.000  C
  H25      1.0000 0.43770  0.66520  0.02750  Biso   1.000  H
  H26      1.0000 0.56230  0.66520  0.47250  Biso   1.000  H
  H27      1.0000 0.93770  0.16520  0.02750  Biso   1.000  H
  H28      1.0000 0.06230  0.16520  0.47250  Biso   1.000  H
  H29      1.0000 0.56230  0.33480  0.97250  Biso   1.000  H
  H30      1.0000 0.43770  0.33480  0.52750  Biso   1.000  H
  H31      1.0000 0.06230  0.83480  0.97250  Biso   1.000  H
  H32      1.0000 0.93770  0.83480  0.52750  Biso   1.000  H
  H33      1.0000 0.47800  0.67010  0.14000  Biso   1.000  H
  H34      1.0000 0.52200  0.67010  0.36000  Biso   1.000  H
  H35      1.0000 0.97800  0.17010  0.14000  Biso   1.000  H
  H36      1.0000 0.02200  0.17010  0.36000  Biso   1.000  H
  H37      1.0000 0.52200  0.32990  0.86000  Biso   1.000  H
  H38      1.0000 0.47800  0.32990  0.64000  Biso   1.000  H
  H39      1.0000 0.02200  0.82990  0.86000  Biso   1.000  H
  H40      1.0000 0.97800  0.82990  0.64000  Biso   1.000  H
  C41      1.0000 0.53650  0.74700  0.08200  Biso   1.000  C
  C42      1.0000 0.46350  0.74700  0.41800  Biso   1.000  C
  C43      1.0000 0.03650  0.24700  0.08200  Biso   1.000  C
  C44      1.0000 0.96350  0.24700  0.41800  Biso   1.000  C
  C45      1.0000 0.46350  0.25300  0.91800  Biso   1.000  C
  C46      1.0000 0.53650  0.25300  0.58200  Biso   1.000  C
  C47      1.0000 0.96350  0.75300  0.91800  Biso   1.000  C
  C48      1.0000 0.03650  0.75300  0.58200  Biso   1.000  C
  H41      1.0000 0.55690  0.63350  0.08760  Biso   1.000  H
  H42      1.0000 0.44310  0.63350  0.41240  Biso   1.000  H
  H43      1.0000 0.05690  0.13350  0.08760  Biso   1.000  H
  H44      1.0000 0.94310  0.13350  0.41240  Biso   1.000  H
  H45      1.0000 0.44310  0.36650  0.91240  Biso   1.000  H
  H46      1.0000 0.55690  0.36650  0.58760  Biso   1.000  H
  H47      1.0000 0.94310  0.86650  0.91240  Biso   1.000  H
  H48      1.0000 0.05690  0.86650  0.58760  Biso   1.000  H
  H49      1.0000 0.56750  0.81940  0.13380  Biso   1.000  H
  H50      1.0000 0.43250  0.81940  0.36620  Biso   1.000  H
  H51      1.0000 0.06750  0.31940  0.13380  Biso   1.000  H
  H52      1.0000 0.93250  0.31940  0.36620  Biso   1.000  H
  H53      1.0000 0.43250  0.18060  0.86620  Biso   1.000  H
  H54      1.0000 0.56750  0.18060  0.63380  Biso   1.000  H
  H55      1.0000 0.93250  0.68060  0.86620  Biso   1.000  H
  H56      1.0000 0.06750  0.68060  0.63380  Biso   1.000  H
  H57      1.0000 0.52820  0.79940  0.02260  Biso   1.000  H
  H58      1.0000 0.47180  0.79940  0.47740  Biso   1.000  H
  H59      1.0000 0.02820  0.29940  0.02260  Biso   1.000  H
  H60      1.0000 0.97180  0.29940  0.47740  Biso   1.000  H
  H61      1.0000 0.47180  0.20060  0.97740  Biso   1.000  H
  H62      1.0000 0.52820  0.20060  0.52260  Biso   1.000  H
  H63      1.0000 0.97180  0.70060  0.97740  Biso   1.000  H
  H64      1.0000 0.02820  0.70060  0.52260  Biso   1.000  H
  C49      1.0000 0.49080  0.76100  0.12350  Biso   1.000  C
  C50      1.0000 0.50920  0.76100  0.37650  Biso   1.000  C
  C51      1.0000 0.99080  0.26100  0.12350  Biso   1.000  C
  C52      1.0000 0.00920  0.26100  0.37650  Biso   1.000  C
  C53      1.0000 0.50920  0.23900  0.87650  Biso   1.000  C
  C54      1.0000 0.49080  0.23900  0.62350  Biso   1.000  C
  C55      1.0000 0.00920  0.73900  0.87650  Biso   1.000  C
  C56      1.0000 0.99080  0.73900  0.62350  Biso   1.000  C
  H65      1.0000 0.46150  0.66000  0.11340  Biso   1.000  H
  H66      1.0000 0.53850  0.66000  0.38660  Biso   1.000  H
  H67      1.0000 0.96150  0.16000  0.11340  Biso   1.000  H
  H68      1.0000 0.03850  0.16000  0.38660  Biso   1.000  H
  H69      1.0000 0.53850  0.34000  0.88660  Biso   1.000  H
  H70      1.0000 0.46150  0.34000  0.61340  Biso   1.000  H
  H71      1.0000 0.03850  0.84000  0.88660  Biso   1.000  H
  H72      1.0000 0.96150  0.84000  0.61340  Biso   1.000  H
  H73      1.0000 0.51720  0.78180  0.19170  Biso   1.000  H
  H74      1.0000 0.48280  0.78180  0.30830  Biso   1.000  H
  H75      1.0000 0.01720  0.28180  0.19170  Biso   1.000  H
  H76      1.0000 0.98280  0.28180  0.30830  Biso   1.000  H
  H77      1.0000 0.48280  0.21820  0.80830  Biso   1.000  H
  H78      1.0000 0.51720  0.21820  0.69170  Biso   1.000  H
  H79      1.0000 0.98280  0.71820  0.80830  Biso   1.000  H
  H80      1.0000 0.01720  0.71820  0.69170  Biso   1.000  H
  C57      1.0000 0.54190  0.72100  0.08480  Biso   1.000  C
  C58      1.0000 0.45810  0.72100  0.41520  Biso   1.000  C
  C59      1.0000 0.04190  0.22100  0.08480  Biso   1.000  C
  C60      1.0000 0.95810  0.22100  0.41520  Biso   1.000  C
  C61      1.0000 0.45810  0.27900  0.91520  Biso   1.000  C
  C62      1.0000 0.54190  0.27900  0.58480  Biso   1.000  C
  C63      1.0000 0.95810  0.77900  0.91520  Biso   1.000  C
  C64      1.0000 0.04190  0.77900  0.58480  Biso   1.000  C
  H81      1.0000 0.57210  0.62700  0.12060  Biso   1.000  H
  H82      1.0000 0.42790  0.62700  0.37940  Biso   1.000  H
  H83      1.0000 0.07210  0.12700  0.12060  Biso   1.000  H
  H84      1.0000 0.92790  0.12700  0.37940  Biso   1.000  H
  H85      1.0000 0.42790  0.37300  0.87940  Biso   1.000  H
  H86      1.0000 0.57210  0.37300  0.62060  Biso   1.000  H
  H87      1.0000 0.92790  0.87300  0.87940  Biso   1.000  H
  H88      1.0000 0.07210  0.87300  0.62060  Biso   1.000  H
  H89      1.0000 0.56910  0.82350  0.09100  Biso   1.000  H
  H90      1.0000 0.43090  0.82350  0.40900  Biso   1.000  H
  H91      1.0000 0.06910  0.32350  0.09100  Biso   1.000  H
  H92      1.0000 0.93090  0.32350  0.40900  Biso   1.000  H
  H93      1.0000 0.43090  0.17650  0.90900  Biso   1.000  H
  H94      1.0000 0.56910  0.17650  0.59100  Biso   1.000  H
  H95      1.0000 0.93090  0.67650  0.90900  Biso   1.000  H
  H96      1.0000 0.06910  0.67650  0.59100  Biso   1.000  H
  H97      1.0000 0.51610  0.68870  0.01880  Biso   1.000  H
  H98      1.0000 0.48390  0.68870  0.48120  Biso   1.000  H
  H99      1.0000 0.01610  0.18870  0.01880  Biso   1.000  H
  H100     1.0000 0.98390  0.18870  0.48120  Biso   1.000  H
  H101     1.0000 0.48390  0.31130  0.98120  Biso   1.000  H
  H102     1.0000 0.51610  0.31130  0.51880  Biso   1.000  H
  H103     1.0000 0.98390  0.81130  0.98120  Biso   1.000  H
  H104     1.0000 0.01610  0.81130  0.51880  Biso   1.000  H
  C65      1.0000 0.39330  0.15240  0.23050  Biso   1.000  C
  C66      1.0000 0.60670  0.15240  0.26950  Biso   1.000  C
  C67      1.0000 0.89330  0.65240  0.23050  Biso   1.000  C
  C68      1.0000 0.10670  0.65240  0.26950  Biso   1.000  C
  C69      1.0000 0.60670  0.84760  0.76950  Biso   1.000  C
  C70      1.0000 0.39330  0.84760  0.73050  Biso   1.000  C
  C71      1.0000 0.10670  0.34760  0.76950  Biso   1.000  C
  C72      1.0000 0.89330  0.34760  0.73050  Biso   1.000  C
  H105     1.0000 0.41220  0.05980  0.27760  Biso   1.000  H
  H106     1.0000 0.58780  0.05980  0.22240  Biso   1.000  H
  H107     1.0000 0.91220  0.55980  0.27760  Biso   1.000  H
  H108     1.0000 0.08780  0.55980  0.22240  Biso   1.000  H
  H109     1.0000 0.58780  0.94020  0.72240  Biso   1.000  H
  H110     1.0000 0.41220  0.94020  0.77760  Biso   1.000  H
  H111     1.0000 0.08780  0.44020  0.72240  Biso   1.000  H
  H112     1.0000 0.91220  0.44020  0.77760  Biso   1.000  H
  H113     1.0000 0.34330  0.15310  0.20400  Biso   1.000  H
  H114     1.0000 0.65670  0.15310  0.29600  Biso   1.000  H
  H115     1.0000 0.84330  0.65310  0.20400  Biso   1.000  H
  H116     1.0000 0.15670  0.65310  0.29600  Biso   1.000  H
  H117     1.0000 0.65670  0.84690  0.79600  Biso   1.000  H
  H118     1.0000 0.34330  0.84690  0.70400  Biso   1.000  H
  H119     1.0000 0.15670  0.34690  0.79600  Biso   1.000  H
  H120     1.0000 0.84330  0.34690  0.70400  Biso   1.000  H
  C73      1.0000 0.42250  0.32410  0.27650  Biso   1.000  C
  C74      1.0000 0.57750  0.32410  0.22350  Biso   1.000  C
  C75      1.0000 0.92250  0.82410  0.27650  Biso   1.000  C
  C76      1.0000 0.07750  0.82410  0.22350  Biso   1.000  C
  C77      1.0000 0.57750  0.67590  0.72350  Biso   1.000  C
  C78      1.0000 0.42250  0.67590  0.77650  Biso   1.000  C
  C79      1.0000 0.07750  0.17590  0.72350  Biso   1.000  C
  C80      1.0000 0.92250  0.17590  0.77650  Biso   1.000  C
  H121     1.0000 0.41040  0.34580  0.32570  Biso   1.000  H
  H122     1.0000 0.58960  0.34580  0.17430  Biso   1.000  H
  H123     1.0000 0.91040  0.84580  0.32570  Biso   1.000  H
  H124     1.0000 0.08960  0.84580  0.17430  Biso   1.000  H
  H125     1.0000 0.58960  0.65420  0.67430  Biso   1.000  H
  H126     1.0000 0.41040  0.65420  0.82570  Biso   1.000  H
  H127     1.0000 0.08960  0.15420  0.67430  Biso   1.000  H
  H128     1.0000 0.91040  0.15420  0.82570  Biso   1.000  H
  H129     1.0000 0.40380  0.41530  0.22960  Biso   1.000  H
  H130     1.0000 0.59620  0.41530  0.27040  Biso   1.000  H
  H131     1.0000 0.90380  0.91530  0.22960  Biso   1.000  H
  H132     1.0000 0.09620  0.91530  0.27040  Biso   1.000  H
  H133     1.0000 0.59620  0.58470  0.77040  Biso   1.000  H
  H134     1.0000 0.40380  0.58470  0.72960  Biso   1.000  H
  H135     1.0000 0.09620  0.08470  0.77040  Biso   1.000  H
  H136     1.0000 0.90380  0.08470  0.72960  Biso   1.000  H
  H137     1.0000 0.47210  0.32190  0.30390  Biso   1.000  H
  H138     1.0000 0.52790  0.32190  0.19610  Biso   1.000  H
  H139     1.0000 0.97210  0.82190  0.30390  Biso   1.000  H
  H140     1.0000 0.02790  0.82190  0.19610  Biso   1.000  H
  H141     1.0000 0.52790  0.67810  0.69610  Biso   1.000  H
  H142     1.0000 0.47210  0.67810  0.80390  Biso   1.000  H
  H143     1.0000 0.02790  0.17810  0.69610  Biso   1.000  H
  H144     1.0000 0.97210  0.17810  0.80390  Biso   1.000  H
  C81      1.0000 0.37560  0.20300  0.19360  Biso   1.000  C
  C82      1.0000 0.62440  0.20300  0.30640  Biso   1.000  C
  C83      1.0000 0.87560  0.70300  0.19360  Biso   1.000  C
  C84      1.0000 0.12440  0.70300  0.30640  Biso   1.000  C
  C85      1.0000 0.62440  0.79700  0.80640  Biso   1.000  C
  C86      1.0000 0.37560  0.79700  0.69360  Biso   1.000  C
  C87      1.0000 0.12440  0.29700  0.80640  Biso   1.000  C
  C88      1.0000 0.87560  0.29700  0.69360  Biso   1.000  C
  H145     1.0000 0.34280  0.12250  0.19690  Biso   1.000  H
  H146     1.0000 0.65720  0.12250  0.30310  Biso   1.000  H
  H147     1.0000 0.84280  0.62250  0.19690  Biso   1.000  H
  H148     1.0000 0.15720  0.62250  0.30310  Biso   1.000  H
  H149     1.0000 0.65720  0.87750  0.80310  Biso   1.000  H
  H150     1.0000 0.34280  0.87750  0.69690  Biso   1.000  H
  H151     1.0000 0.15720  0.37750  0.80310  Biso   1.000  H
  H152     1.0000 0.84280  0.37750  0.69690  Biso   1.000  H
  H153     1.0000 0.34950  0.30030  0.15300  Biso   1.000  H
  H154     1.0000 0.65050  0.30030  0.34700  Biso   1.000  H
  H155     1.0000 0.84950  0.80030  0.15300  Biso   1.000  H
  H156     1.0000 0.15050  0.80030  0.34700  Biso   1.000  H
  H157     1.0000 0.65050  0.69970  0.84700  Biso   1.000  H
  H158     1.0000 0.34950  0.69970  0.65300  Biso   1.000  H
  H159     1.0000 0.15050  0.19970  0.84700  Biso   1.000  H
  H160     1.0000 0.84950  0.19970  0.65300  Biso   1.000  H
  C89      1.0000 0.42270  0.26800  0.28800  Biso   1.000  C
  C90      1.0000 0.57730  0.26800  0.21200  Biso   1.000  C
  C91      1.0000 0.92270  0.76800  0.28800  Biso   1.000  C
  C92      1.0000 0.07730  0.76800  0.21200  Biso   1.000  C
  C93      1.0000 0.57730  0.73200  0.71200  Biso   1.000  C
  C94      1.0000 0.42270  0.73200  0.78800  Biso   1.000  C
  C95      1.0000 0.07730  0.23200  0.71200  Biso   1.000  C
  C96      1.0000 0.92270  0.23200  0.78800  Biso   1.000  C
  H161     1.0000 0.39690  0.33000  0.31300  Biso   1.000  H
  H162     1.0000 0.60310  0.33000  0.18700  Biso   1.000  H
  H163     1.0000 0.89690  0.83000  0.31300  Biso   1.000  H
  H164     1.0000 0.10310  0.83000  0.18700  Biso   1.000  H
  H165     1.0000 0.60310  0.67000  0.68700  Biso   1.000  H
  H166     1.0000 0.39690  0.67000  0.81300  Biso   1.000  H
  H167     1.0000 0.10310  0.17000  0.68700  Biso   1.000  H
  H168     1.0000 0.89690  0.17000  0.81300  Biso   1.000  H
  H169     1.0000 0.45600  0.34520  0.28550  Biso   1.000  H
  H170     1.0000 0.54400  0.34520  0.21450  Biso   1.000  H
  H171     1.0000 0.95600  0.84520  0.28550  Biso   1.000  H
  H172     1.0000 0.04400  0.84520  0.21450  Biso   1.000  H
  H173     1.0000 0.54400  0.65480  0.71450  Biso   1.000  H
  H174     1.0000 0.45600  0.65480  0.78550  Biso   1.000  H
  H175     1.0000 0.04400  0.15480  0.71450  Biso   1.000  H
  H176     1.0000 0.95600  0.15480  0.78550  Biso   1.000  H
  H177     1.0000 0.44650  0.17120  0.32960  Biso   1.000  H
  H178     1.0000 0.55350  0.17120  0.17040  Biso   1.000  H
  H179     1.0000 0.94650  0.67120  0.32960  Biso   1.000  H
  H180     1.0000 0.05350  0.67120  0.17040  Biso   1.000  H
  H181     1.0000 0.55350  0.82880  0.67040  Biso   1.000  H
  H182     1.0000 0.44650  0.82880  0.82960  Biso   1.000  H
  H183     1.0000 0.05350  0.32880  0.67040  Biso   1.000  H
  H184     1.0000 0.94650  0.32880  0.82960  Biso   1.000  H
