data_image0
_cell_length_a       8.731
_cell_length_b       8.965
_cell_length_c       16.319
_cell_angle_alpha    95.4
_cell_angle_beta     104.74
_cell_angle_gamma    109.74

_symmetry_space_group_name_H-M    "P 1"
_symmetry_int_tables_number       1

loop_
  _symmetry_equiv_pos_as_xyz
  'x, y, z'

loop_
  _atom_site_label
  _atom_site_occupancy
  _atom_site_fract_x
  _atom_site_fract_y
  _atom_site_fract_z
  _atom_site_thermal_displace_type
  _atom_site_B_iso_or_equiv
  _atom_site_type_symbol
  Cu1      1.0000 0.00000  0.00000  0.00000  Biso   1.000  Cu
  Cu2      1.0000 0.50000  0.50000  0.00000  Biso   1.000  Cu
  N1       1.0000 0.36250  0.49510  0.08010  Biso   1.000  N
  N2       1.0000 0.63750  0.50490  0.91990  Biso   1.000  N
  N3       1.0000 0.22710  0.39430  0.06970  Biso   1.000  N
  N4       1.0000 0.77290  0.60570  0.93030  Biso   1.000  N
  N5       1.0000 0.09420  0.30030  0.06190  Biso   1.000  N
  N6       1.0000 0.90580  0.69970  0.93810  Biso   1.000  N
  N7       1.0000 0.17270  0.03710  0.93720  Biso   1.000  N
  N8       1.0000 0.82730  0.96290  0.06280  Biso   1.000  N
  N9       1.0000 0.31690  0.12040  0.96890  Biso   1.000  N
  N10      1.0000 0.68310  0.87960  0.03110  Biso   1.000  N
  N11      1.0000 0.45890  0.20360  0.99670  Biso   1.000  N
  N12      1.0000 0.54110  0.79640  0.00330  Biso   1.000  N
  N13      1.0000 0.16320  0.97750  0.10510  Biso   1.000  N
  N14      1.0000 0.83680  0.02250  0.89490  Biso   1.000  N
  C1       1.0000 0.18490  0.05530  0.18400  Biso   1.000  C
  C2       1.0000 0.81510  0.94470  0.81600  Biso   1.000  C
  C3       1.0000 0.28440  0.03350  0.25820  Biso   1.000  C
  C4       1.0000 0.71560  0.96650  0.74180  Biso   1.000  C
  C5       1.0000 0.36550  0.92630  0.25060  Biso   1.000  C
  C6       1.0000 0.63450  0.07370  0.74940  Biso   1.000  C
  C7       1.0000 0.34730  0.85090  0.17030  Biso   1.000  C
  C8       1.0000 0.65270  0.14910  0.82970  Biso   1.000  C
  C9       1.0000 0.24610  0.87910  0.09890  Biso   1.000  C
  C10      1.0000 0.75390  0.12090  0.90110  Biso   1.000  C
  C11      1.0000 0.29700  0.11270  0.34540  Biso   1.000  C
  C12      1.0000 0.70300  0.88730  0.65460  Biso   1.000  C
  O1       1.0000 0.29750  0.03540  0.40320  Biso   1.000  O
  O2       1.0000 0.70250  0.96460  0.59680  Biso   1.000  O
  C13      1.0000 0.31310  0.28260  0.36110  Biso   1.000  C
  C14      1.0000 0.68690  0.71740  0.63890  Biso   1.000  C
  C15      1.0000 0.25870  0.33690  0.42670  Biso   1.000  C
  C16      1.0000 0.74130  0.66310  0.57330  Biso   1.000  C
  C17      1.0000 0.28240  0.49550  0.44750  Biso   1.000  C
  C18      1.0000 0.71760  0.50450  0.55250  Biso   1.000  C
  C19      1.0000 0.35720  0.60250  0.40270  Biso   1.000  C
  C20      1.0000 0.64280  0.39750  0.59730  Biso   1.000  C
  C21      1.0000 0.41220  0.55370  0.33710  Biso   1.000  C
  C22      1.0000 0.58780  0.44630  0.66290  Biso   1.000  C
  C23      1.0000 0.38780  0.39320  0.31520  Biso   1.000  C
  C24      1.0000 0.61220  0.60680  0.68480  Biso   1.000  C
  N15      1.0000 0.29140  0.43950  0.89360  Biso   1.000  N
  N16      1.0000 0.70860  0.56050  0.10640  Biso   1.000  N
  C25      1.0000 0.27630  0.34230  0.82270  Biso   1.000  C
  C26      1.0000 0.72370  0.65770  0.17730  Biso   1.000  C
  C27      1.0000 0.14710  0.30710  0.74640  Biso   1.000  C
  C28      1.0000 0.85290  0.69290  0.25360  Biso   1.000  C
  C29      1.0000 0.02670  0.37600  0.74420  Biso   1.000  C
  C30      1.0000 0.97330  0.62400  0.25580  Biso   1.000  C
  C31      1.0000 0.03880  0.47180  0.81700  Biso   1.000  C
  C32      1.0000 0.96120  0.52820  0.18300  Biso   1.000  C
  C33      1.0000 0.17290  0.50200  0.89040  Biso   1.000  C
  C34      1.0000 0.82710  0.49800  0.10960  Biso   1.000  C
  C35      1.0000 0.14020  0.21250  0.66380  Biso   1.000  C
  C36      1.0000 0.85980  0.78750  0.33620  Biso   1.000  C
  O3       1.0000 0.10620  0.26220  0.59770  Biso   1.000  O
  O4       1.0000 0.89380  0.73780  0.40230  Biso   1.000  O
  C37      1.0000 0.17470  0.06070  0.66390  Biso   1.000  C
  C38      1.0000 0.82530  0.93930  0.33610  Biso   1.000  C
  C39      1.0000 0.19730  0.99240  0.58980  Biso   1.000  C
  C40      1.0000 0.80270  0.00760  0.41020  Biso   1.000  C
  C41      1.0000 0.21950  0.84910  0.58590  Biso   1.000  C
  C42      1.0000 0.78050  0.15090  0.41410  Biso   1.000  C
  C43      1.0000 0.22030  0.77100  0.65420  Biso   1.000  C
  C44      1.0000 0.77970  0.22900  0.34580  Biso   1.000  C
  C45      1.0000 0.19940  0.83790  0.72770  Biso   1.000  C
  C46      1.0000 0.80060  0.16210  0.27230  Biso   1.000  C
  C47      1.0000 0.17630  0.98050  0.73240  Biso   1.000  C
  C48      1.0000 0.82370  0.01950  0.26760  Biso   1.000  C
  H1       1.0000 0.13010  0.12700  0.18870  Biso   1.000  H
  H2       1.0000 0.86990  0.87300  0.81130  Biso   1.000  H
  H3       1.0000 0.43130  0.90610  0.29960  Biso   1.000  H
  H4       1.0000 0.56870  0.09390  0.70040  Biso   1.000  H
  H5       1.0000 0.40310  0.78070  0.16380  Biso   1.000  H
  H6       1.0000 0.59690  0.21930  0.83620  Biso   1.000  H
  H7       1.0000 0.23530  0.82760  0.04440  Biso   1.000  H
  H8       1.0000 0.76470  0.17240  0.95560  Biso   1.000  H
  H9       1.0000 0.20500  0.26370  0.45690  Biso   1.000  H
  H10      1.0000 0.79500  0.73630  0.54310  Biso   1.000  H
  H11      1.0000 0.24730  0.53020  0.49250  Biso   1.000  H
  H12      1.0000 0.75270  0.46980  0.50750  Biso   1.000  H
  H13      1.0000 0.37140  0.71040  0.41650  Biso   1.000  H
  H14      1.0000 0.62860  0.28960  0.58350  Biso   1.000  H
  H15      1.0000 0.46570  0.62860  0.30760  Biso   1.000  H
  H16      1.0000 0.53430  0.37140  0.69240  Biso   1.000  H
  H17      1.0000 0.42140  0.35910  0.26950  Biso   1.000  H
  H18      1.0000 0.57860  0.64090  0.73050  Biso   1.000  H
  H19      1.0000 0.35730  0.29580  0.82480  Biso   1.000  H
  H20      1.0000 0.64270  0.70420  0.17520  Biso   1.000  H
  H21      1.0000 0.93860  0.35690  0.69360  Biso   1.000  H
  H22      1.0000 0.06140  0.64310  0.30640  Biso   1.000  H
  H23      1.0000 0.95710  0.51660  0.81720  Biso   1.000  H
  H24      1.0000 0.04290  0.48340  0.18280  Biso   1.000  H
  H25      1.0000 0.18080  0.56880  0.93980  Biso   1.000  H
  H26      1.0000 0.81920  0.43120  0.06020  Biso   1.000  H
  H27      1.0000 0.19720  0.04450  0.54320  Biso   1.000  H
  H28      1.0000 0.80280  0.95550  0.45680  Biso   1.000  H
  H29      1.0000 0.23420  0.80360  0.53630  Biso   1.000  H
  H30      1.0000 0.76580  0.19640  0.46370  Biso   1.000  H
  H31      1.0000 0.23510  0.67280  0.65080  Biso   1.000  H
  H32      1.0000 0.76490  0.32720  0.34920  Biso   1.000  H
  H33      1.0000 0.20100  0.78570  0.77440  Biso   1.000  H
  H34      1.0000 0.79900  0.21430  0.22560  Biso   1.000  H
  H35      1.0000 0.16120  0.02480  0.78220  Biso   1.000  H
  H36      1.0000 0.83880  0.97520  0.21780  Biso   1.000  H
