data_image0
_cell_length_a       8.295
_cell_length_b       10.833
_cell_length_c       12.417
_cell_angle_alpha    110.393
_cell_angle_beta     106.605
_cell_angle_gamma    97.084

_symmetry_space_group_name_H-M    "P 1"
_symmetry_int_tables_number       1

loop_
  _symmetry_equiv_pos_as_xyz
  'x, y, z'

loop_
  _atom_site_label
  _atom_site_occupancy
  _atom_site_fract_x
  _atom_site_fract_y
  _atom_site_fract_z
  _atom_site_thermal_displace_type
  _atom_site_B_iso_or_equiv
  _atom_site_type_symbol
  Cu1      1.0000 0.22500  0.88730  0.70720  Biso   1.000  Cu
  Cu2      1.0000 0.77500  0.11270  0.29280  Biso   1.000  Cu
  Mo1      1.0000 0.01130  0.55700  0.64700  Biso   1.000  Mo
  Mo2      1.0000 0.98870  0.44300  0.35300  Biso   1.000  Mo
  Mo3      1.0000 0.62440  0.57250  0.65190  Biso   1.000  Mo
  Mo4      1.0000 0.37560  0.42750  0.34810  Biso   1.000  Mo
  Mo5      1.0000 0.58860  0.25370  0.51320  Biso   1.000  Mo
  Mo6      1.0000 0.41140  0.74630  0.48680  Biso   1.000  Mo
  Mo7      1.0000 0.19510  0.26640  0.50500  Biso   1.000  Mo
  Mo8      1.0000 0.80490  0.73360  0.49500  Biso   1.000  Mo
  O1       1.0000 0.04810  0.51670  0.77070  Biso   1.000  O
  O2       1.0000 0.95190  0.48330  0.22930  Biso   1.000  O
  O3       1.0000 0.84360  0.67680  0.66390  Biso   1.000  O
  O4       1.0000 0.15640  0.32320  0.33610  Biso   1.000  O
  O5       1.0000 0.74940  0.42540  0.56810  Biso   1.000  O
  O6       1.0000 0.25060  0.57460  0.43190  Biso   1.000  O
  O7       1.0000 0.67390  0.56280  0.78940  Biso   1.000  O
  O8       1.0000 0.32610  0.43720  0.21060  Biso   1.000  O
  O9       1.0000 0.43610  0.41480  0.54650  Biso   1.000  O
  O10      1.0000 0.56390  0.58520  0.45350  Biso   1.000  O
  O11      1.0000 0.51190  0.69990  0.66380  Biso   1.000  O
  O12      1.0000 0.48810  0.30010  0.33620  Biso   1.000  O
  O13      1.0000 0.67200  0.13290  0.42990  Biso   1.000  O
  O14      1.0000 0.32800  0.86710  0.57010  Biso   1.000  O
  O15      1.0000 0.62850  0.23740  0.64860  Biso   1.000  O
  O16      1.0000 0.37150  0.76260  0.35140  Biso   1.000  O
  O17      1.0000 0.25040  0.27370  0.64970  Biso   1.000  O
  O18      1.0000 0.74960  0.72630  0.35030  Biso   1.000  O
  O19      1.0000 0.34230  0.16060  0.43990  Biso   1.000  O
  O20      1.0000 0.65770  0.83940  0.56010  Biso   1.000  O
  O21      1.0000 0.08460  0.42250  0.53530  Biso   1.000  O
  O22      1.0000 0.91540  0.57750  0.46470  Biso   1.000  O
  O23      1.0000 0.99300  0.86230  0.57990  Biso   1.000  O
  O24      1.0000 0.00700  0.13770  0.42010  Biso   1.000  O
  O25      1.0000 0.17670  0.70060  0.70040  Biso   1.000  O
  O26      1.0000 0.82330  0.29940  0.29960  Biso   1.000  O
  C1       1.0000 0.44010  0.14990  0.81220  Biso   1.000  C
  C2       1.0000 0.55990  0.85010  0.18780  Biso   1.000  C
  C3       1.0000 0.54490  0.27630  0.89740  Biso   1.000  C
  C4       1.0000 0.45510  0.72370  0.10260  Biso   1.000  C
  C5       1.0000 0.56030  0.31110  0.01930  Biso   1.000  C
  C6       1.0000 0.43970  0.68890  0.98070  Biso   1.000  C
  C7       1.0000 0.47240  0.22050  0.05030  Biso   1.000  C
  C8       1.0000 0.52760  0.77950  0.94970  Biso   1.000  C
  C9       1.0000 0.36500  0.09640  0.95990  Biso   1.000  C
  C10      1.0000 0.63500  0.90360  0.04010  Biso   1.000  C
  C11      1.0000 0.25950  0.99740  0.98490  Biso   1.000  C
  C12      1.0000 0.74050  0.00260  0.01510  Biso   1.000  C
  C13      1.0000 0.25280  0.01050  0.09530  Biso   1.000  C
  C14      1.0000 0.74720  0.98950  0.90470  Biso   1.000  C
  C15      1.0000 0.14580  0.91100  0.11490  Biso   1.000  C
  C16      1.0000 0.85420  0.08900  0.88510  Biso   1.000  C
  C17      1.0000 0.03760  0.78490  0.02330  Biso   1.000  C
  C18      1.0000 0.96240  0.21510  0.97670  Biso   1.000  C
  C19      1.0000 0.94090  0.69830  0.05290  Biso   1.000  C
  C20      1.0000 0.05910  0.30170  0.94710  Biso   1.000  C
  C21      1.0000 0.95050  0.73700  0.17560  Biso   1.000  C
  C22      1.0000 0.04950  0.26300  0.82440  Biso   1.000  C
  C23      1.0000 0.05850  0.85780  0.26250  Biso   1.000  C
  C24      1.0000 0.94150  0.14220  0.73750  Biso   1.000  C
  N1       1.0000 0.35180  0.06140  0.84090  Biso   1.000  N
  N2       1.0000 0.64820  0.93860  0.15910  Biso   1.000  N
  N3       1.0000 0.15200  0.93990  0.23090  Biso   1.000  N
  N4       1.0000 0.84800  0.06010  0.76910  Biso   1.000  N
  H1       1.0000 0.43050  0.12510  0.73060  Biso   1.000  H
  H2       1.0000 0.56950  0.87490  0.26940  Biso   1.000  H
  H3       1.0000 0.60270  0.33560  0.87380  Biso   1.000  H
  H4       1.0000 0.39730  0.66440  0.12620  Biso   1.000  H
  H5       1.0000 0.62950  0.39480  0.07940  Biso   1.000  H
  H6       1.0000 0.37050  0.60520  0.92060  Biso   1.000  H
  H7       1.0000 0.48450  0.24220  0.13210  Biso   1.000  H
  H8       1.0000 0.51550  0.75780  0.86790  Biso   1.000  H
  H9       1.0000 0.19070  0.91820  0.91790  Biso   1.000  H
  H10      1.0000 0.80930  0.08180  0.08210  Biso   1.000  H
  H11      1.0000 0.32170  0.08870  0.16340  Biso   1.000  H
  H12      1.0000 0.67830  0.91130  0.83660  Biso   1.000  H
  H13      1.0000 0.03190  0.76040  0.94250  Biso   1.000  H
  H14      1.0000 0.96810  0.23960  0.05750  Biso   1.000  H
  H15      1.0000 0.86990  0.61520  0.99270  Biso   1.000  H
  H16      1.0000 0.13010  0.38480  0.00730  Biso   1.000  H
  H17      1.0000 0.88380  0.68070  0.19720  Biso   1.000  H
  H18      1.0000 0.11620  0.31930  0.80280  Biso   1.000  H
  H19      1.0000 0.06730  0.88340  0.34400  Biso   1.000  H
  H20      1.0000 0.93270  0.11660  0.65600  Biso   1.000  H
  H21      1.0000 0.23300  0.02300  0.29500  Biso   1.000  H
  H22      1.0000 0.76700  0.97700  0.70500  Biso   1.000  H
