data_image0
_cell_length_a       10.6115
_cell_length_b       13.3836
_cell_length_c       13.48
_cell_angle_alpha    94.77
_cell_angle_beta     110.577
_cell_angle_gamma    103.443

_symmetry_space_group_name_H-M    "P 1"
_symmetry_int_tables_number       1

loop_
  _symmetry_equiv_pos_as_xyz
  'x, y, z'

loop_
  _atom_site_label
  _atom_site_occupancy
  _atom_site_fract_x
  _atom_site_fract_y
  _atom_site_fract_z
  _atom_site_thermal_displace_type
  _atom_site_B_iso_or_equiv
  _atom_site_type_symbol
  Cu1      1.0000 0.65620  0.04800  0.56430  Biso   1.000  Cu
  Cu2      1.0000 0.34380  0.95200  0.43570  Biso   1.000  Cu
  Cu3      1.0000 0.94010  0.36200  0.41930  Biso   1.000  Cu
  Cu4      1.0000 0.05990  0.63800  0.58070  Biso   1.000  Cu
  Mo1      1.0000 0.32850  0.50150  0.50130  Biso   1.000  Mo
  Mo2      1.0000 0.67150  0.49850  0.49870  Biso   1.000  Mo
  Mo3      1.0000 0.57310  0.40400  0.73300  Biso   1.000  Mo
  Mo4      1.0000 0.42690  0.59600  0.26700  Biso   1.000  Mo
  Mo5      1.0000 0.35300  0.33670  0.25710  Biso   1.000  Mo
  Mo6      1.0000 0.64700  0.66330  0.74290  Biso   1.000  Mo
  Mo7      1.0000 0.41660  0.24470  0.49050  Biso   1.000  Mo
  Mo8      1.0000 0.58340  0.75530  0.50950  Biso   1.000  Mo
  O1       1.0000 0.31410  0.37850  0.42930  Biso   1.000  O
  O2       1.0000 0.68590  0.62150  0.57070  Biso   1.000  O
  O3       1.0000 0.44950  0.51900  0.63780  Biso   1.000  O
  O4       1.0000 0.55050  0.48100  0.36220  Biso   1.000  O
  O5       1.0000 0.16750  0.50560  0.50070  Biso   1.000  O
  O6       1.0000 0.83250  0.49440  0.49930  Biso   1.000  O
  O7       1.0000 0.60970  0.39850  0.56420  Biso   1.000  O
  O8       1.0000 0.39030  0.60150  0.43580  Biso   1.000  O
  O9       1.0000 0.52210  0.16540  0.53330  Biso   1.000  O
  O10      1.0000 0.47790  0.83460  0.46670  Biso   1.000  O
  O11      1.0000 0.25360  0.16000  0.43610  Biso   1.000  O
  O12      1.0000 0.74640  0.84000  0.56390  Biso   1.000  O
  O13      1.0000 0.41400  0.30500  0.62240  Biso   1.000  O
  O14      1.0000 0.58600  0.69500  0.37760  Biso   1.000  O
  O15      1.0000 0.68690  0.33110  0.77610  Biso   1.000  O
  O16      1.0000 0.31310  0.66890  0.22390  Biso   1.000  O
  O17      1.0000 0.50840  0.41470  0.83190  Biso   1.000  O
  O18      1.0000 0.49160  0.58530  0.16810  Biso   1.000  O
  O19      1.0000 0.70340  0.53820  0.76030  Biso   1.000  O
  O20      1.0000 0.29660  0.46180  0.23970  Biso   1.000  O
  O21      1.0000 0.42300  0.32430  0.16280  Biso   1.000  O
  O22      1.0000 0.57700  0.67570  0.83720  Biso   1.000  O
  O23      1.0000 0.45570  0.27100  0.36610  Biso   1.000  O
  O24      1.0000 0.54430  0.72900  0.63390  Biso   1.000  O
  O25      1.0000 0.19250  0.24780  0.20600  Biso   1.000  O
  O26      1.0000 0.80750  0.75220  0.79400  Biso   1.000  O
  O27      1.0000 0.53010  0.74620  0.03170  Biso   1.000  O
  O28      1.0000 0.46990  0.25380  0.96830  Biso   1.000  O
  C1       1.0000 0.60250  0.09140  0.75440  Biso   1.000  C
  C2       1.0000 0.39750  0.90860  0.24560  Biso   1.000  C
  C3       1.0000 0.61260  0.09040  0.85960  Biso   1.000  C
  C4       1.0000 0.38740  0.90960  0.14040  Biso   1.000  C
  C5       1.0000 0.69160  0.03200  0.92290  Biso   1.000  C
  C6       1.0000 0.30840  0.96800  0.07710  Biso   1.000  C
  C7       1.0000 0.75170  0.97200  0.87160  Biso   1.000  C
  C8       1.0000 0.24830  0.02800  0.12840  Biso   1.000  C
  C9       1.0000 0.73110  0.97510  0.76370  Biso   1.000  C
  C10      1.0000 0.26890  0.02490  0.23630  Biso   1.000  C
  C11      1.0000 0.80610  0.01320  0.43390  Biso   1.000  C
  C12      1.0000 0.19390  0.98680  0.56610  Biso   1.000  C
  C13      1.0000 0.86550  0.03210  0.35880  Biso   1.000  C
  C14      1.0000 0.13450  0.96790  0.64120  Biso   1.000  C
  C15      1.0000 0.82960  0.09860  0.29010  Biso   1.000  C
  C16      1.0000 0.17040  0.90140  0.70990  Biso   1.000  C
  C17      1.0000 0.72260  0.13980  0.29430  Biso   1.000  C
  C18      1.0000 0.27740  0.86020  0.70570  Biso   1.000  C
  C19      1.0000 0.66460  0.11860  0.36940  Biso   1.000  C
  C20      1.0000 0.33540  0.88140  0.63060  Biso   1.000  C
  C21      1.0000 0.71720  0.03520  0.04190  Biso   1.000  C
  C22      1.0000 0.28280  0.96480  0.95810  Biso   1.000  C
  C23      1.0000 0.82830  0.13580  0.10660  Biso   1.000  C
  C24      1.0000 0.17170  0.86420  0.89340  Biso   1.000  C
  C25      1.0000 0.88460  0.28890  0.59610  Biso   1.000  C
  C26      1.0000 0.11540  0.71110  0.40390  Biso   1.000  C
  C27      1.0000 0.91440  0.26130  0.69550  Biso   1.000  C
  C28      1.0000 0.08560  0.73870  0.30450  Biso   1.000  C
  C29      1.0000 0.04210  0.24400  0.74800  Biso   1.000  C
  C30      1.0000 0.95790  0.75600  0.25200  Biso   1.000  C
  C31      1.0000 0.08090  0.21920  0.86090  Biso   1.000  C
  C32      1.0000 0.91910  0.78080  0.13910  Biso   1.000  C
  C33      1.0000 0.13240  0.24930  0.69730  Biso   1.000  C
  C34      1.0000 0.86760  0.75070  0.30270  Biso   1.000  C
  C35      1.0000 0.09760  0.27710  0.59330  Biso   1.000  C
  C36      1.0000 0.90240  0.72290  0.40670  Biso   1.000  C
  C37      1.0000 0.01300  0.56470  0.76260  Biso   1.000  C
  C38      1.0000 0.98700  0.43530  0.23740  Biso   1.000  C
  C39      1.0000 0.03040  0.50690  0.84320  Biso   1.000  C
  C40      1.0000 0.96960  0.49310  0.15680  Biso   1.000  C
  C41      1.0000 0.15330  0.47660  0.88440  Biso   1.000  C
  C42      1.0000 0.84670  0.52340  0.11560  Biso   1.000  C
  C43      1.0000 0.24960  0.50710  0.83830  Biso   1.000  C
  C44      1.0000 0.75040  0.49290  0.16170  Biso   1.000  C
  C45      1.0000 0.22620  0.56350  0.75660  Biso   1.000  C
  C46      1.0000 0.77380  0.43650  0.24340  Biso   1.000  C
  C47      1.0000 0.06760  0.30280  0.94170  Biso   1.000  C
  C48      1.0000 0.93240  0.69720  0.05830  Biso   1.000  C
  C49      1.0000 0.17430  0.40920  0.97040  Biso   1.000  C
  C50      1.0000 0.82570  0.59080  0.02960  Biso   1.000  C
  C51      1.0000 0.91000  0.13020  0.22120  Biso   1.000  C
  C52      1.0000 0.09000  0.86980  0.77880  Biso   1.000  C
  N1       1.0000 0.66070  0.03570  0.70530  Biso   1.000  N
  N2       1.0000 0.33930  0.96430  0.29470  Biso   1.000  N
  N3       1.0000 0.70420  0.05680  0.44060  Biso   1.000  N
  N4       1.0000 0.29580  0.94320  0.55940  Biso   1.000  N
  N5       1.0000 0.97500  0.29950  0.54500  Biso   1.000  N
  N6       1.0000 0.02500  0.70050  0.45500  Biso   1.000  N
  N7       1.0000 0.10600  0.58920  0.71460  Biso   1.000  N
  N8       1.0000 0.89400  0.41080  0.28540  Biso   1.000  N
  H1       1.0000 0.55220  0.13320  0.71540  Biso   1.000  H
  H2       1.0000 0.44780  0.86680  0.28460  Biso   1.000  H
  H3       1.0000 0.56670  0.12880  0.88820  Biso   1.000  H
  H4       1.0000 0.43330  0.87120  0.11180  Biso   1.000  H
  H5       1.0000 0.80440  0.93070  0.90910  Biso   1.000  H
  H6       1.0000 0.19560  0.06930  0.09090  Biso   1.000  H
  H7       1.0000 0.76830  0.93280  0.73040  Biso   1.000  H
  H8       1.0000 0.23170  0.06720  0.26960  Biso   1.000  H
  H9       1.0000 0.83630  0.96930  0.48150  Biso   1.000  H
  H10      1.0000 0.16370  0.03070  0.51850  Biso   1.000  H
  H11      1.0000 0.93180  0.99860  0.35520  Biso   1.000  H
  H12      1.0000 0.06820  0.00140  0.64480  Biso   1.000  H
  H13      1.0000 0.68990  0.18220  0.24570  Biso   1.000  H
  H14      1.0000 0.31010  0.81780  0.75430  Biso   1.000  H
  H15      1.0000 0.59440  0.14860  0.37080  Biso   1.000  H
  H16      1.0000 0.40560  0.85140  0.62920  Biso   1.000  H
  H17      1.0000 0.63090  0.03210  0.05280  Biso   1.000  H
  H18      1.0000 0.36910  0.96790  0.94720  Biso   1.000  H
  H19      1.0000 0.74860  0.97550  0.06560  Biso   1.000  H
  H20      1.0000 0.25140  0.02450  0.93440  Biso   1.000  H
  H21      1.0000 0.89330  0.15460  0.07100  Biso   1.000  H
  H22      1.0000 0.10670  0.84540  0.92900  Biso   1.000  H
  H23      1.0000 0.78310  0.19100  0.10640  Biso   1.000  H
  H24      1.0000 0.21690  0.80900  0.89360  Biso   1.000  H
  H25      1.0000 0.79810  0.30100  0.56200  Biso   1.000  H
  H26      1.0000 0.20190  0.69900  0.43800  Biso   1.000  H
  H27      1.0000 0.84870  0.25420  0.72730  Biso   1.000  H
  H28      1.0000 0.15130  0.74580  0.27270  Biso   1.000  H
  H29      1.0000 0.17660  0.21470  0.88700  Biso   1.000  H
  H30      1.0000 0.82340  0.78530  0.11300  Biso   1.000  H
  H31      1.0000 0.02030  0.15160  0.85820  Biso   1.000  H
  H32      1.0000 0.97970  0.84840  0.14180  Biso   1.000  H
  H33      1.0000 0.21740  0.23470  0.73040  Biso   1.000  H
  H34      1.0000 0.78260  0.76530  0.26960  Biso   1.000  H
  H35      1.0000 0.15960  0.27980  0.55840  Biso   1.000  H
  H36      1.0000 0.84040  0.72020  0.44160  Biso   1.000  H
  H37      1.0000 0.93340  0.58820  0.73970  Biso   1.000  H
  H38      1.0000 0.06660  0.41180  0.26030  Biso   1.000  H
  H39      1.0000 0.96070  0.48800  0.87040  Biso   1.000  H
  H40      1.0000 0.03930  0.51200  0.12960  Biso   1.000  H
  H41      1.0000 0.33320  0.48890  0.86330  Biso   1.000  H
  H42      1.0000 0.66680  0.51110  0.13670  Biso   1.000  H
  H43      1.0000 0.29570  0.58460  0.72970  Biso   1.000  H
  H44      1.0000 0.70430  0.41540  0.27030  Biso   1.000  H
  H45      1.0000 0.97450  0.31200  0.91130  Biso   1.000  H
  H46      1.0000 0.02550  0.68800  0.08870  Biso   1.000  H
  H47      1.0000 0.07590  0.27580  0.00760  Biso   1.000  H
  H48      1.0000 0.92410  0.72420  0.99240  Biso   1.000  H
  H49      1.0000 0.26670  0.39870  0.98890  Biso   1.000  H
  H50      1.0000 0.73330  0.60130  0.01110  Biso   1.000  H
  H51      1.0000 0.17340  0.44750  0.03440  Biso   1.000  H
  H52      1.0000 0.82660  0.55250  0.96560  Biso   1.000  H
  H53      1.0000 0.96460  0.08140  0.22030  Biso   1.000  H
  H54      1.0000 0.03540  0.91860  0.77970  Biso   1.000  H
  H55      1.0000 0.97580  0.19830  0.25560  Biso   1.000  H
  H56      1.0000 0.02420  0.80170  0.74440  Biso   1.000  H
