data_image0
_cell_length_a       13.52
_cell_length_b       21.177
_cell_length_c       10.1819
_cell_angle_alpha    90
_cell_angle_beta     115.853
_cell_angle_gamma    90

_symmetry_space_group_name_H-M    "P 1"
_symmetry_int_tables_number       1

loop_
  _symmetry_equiv_pos_as_xyz
  'x, y, z'

loop_
  _atom_site_label
  _atom_site_occupancy
  _atom_site_fract_x
  _atom_site_fract_y
  _atom_site_fract_z
  _atom_site_thermal_displace_type
  _atom_site_B_iso_or_equiv
  _atom_site_type_symbol
  Cu1      1.0000 0.15700  0.21220  0.55750  Biso   1.000  Cu
  Cu2      1.0000 0.84300  0.21220  0.44250  Biso   1.000  Cu
  Cu3      1.0000 0.65700  0.71220  0.55750  Biso   1.000  Cu
  Cu4      1.0000 0.34300  0.71220  0.44250  Biso   1.000  Cu
  Cu5      1.0000 0.84300  0.78780  0.44250  Biso   1.000  Cu
  Cu6      1.0000 0.15700  0.78780  0.55750  Biso   1.000  Cu
  Cu7      1.0000 0.34300  0.28780  0.44250  Biso   1.000  Cu
  Cu8      1.0000 0.65700  0.28780  0.55750  Biso   1.000  Cu
  Mo1      1.0000 0.01200  0.50000  0.33200  Biso   1.000  Mo
  Mo2      1.0000 0.98800  0.50000  0.66800  Biso   1.000  Mo
  Mo3      1.0000 0.51200  0.00000  0.33200  Biso   1.000  Mo
  Mo4      1.0000 0.48800  0.00000  0.66800  Biso   1.000  Mo
  Mo5      1.0000 0.72790  0.50000  0.20020  Biso   1.000  Mo
  Mo6      1.0000 0.27210  0.50000  0.79980  Biso   1.000  Mo
  Mo7      1.0000 0.22790  0.00000  0.20020  Biso   1.000  Mo
  Mo8      1.0000 0.77210  0.00000  0.79980  Biso   1.000  Mo
  Mo9      1.0000 0.13900  0.39140  0.56530  Biso   1.000  Mo
  Mo10     1.0000 0.86100  0.39140  0.43470  Biso   1.000  Mo
  Mo11     1.0000 0.63900  0.89140  0.56530  Biso   1.000  Mo
  Mo12     1.0000 0.36100  0.89140  0.43470  Biso   1.000  Mo
  Mo13     1.0000 0.86100  0.60860  0.43470  Biso   1.000  Mo
  Mo14     1.0000 0.13900  0.60860  0.56530  Biso   1.000  Mo
  Mo15     1.0000 0.36100  0.10860  0.43470  Biso   1.000  Mo
  Mo16     1.0000 0.63900  0.10860  0.56530  Biso   1.000  Mo
  O1       1.0000 0.65050  0.50000  0.01740  Biso   1.000  O
  O2       1.0000 0.34950  0.50000  0.98260  Biso   1.000  O
  O3       1.0000 0.15050  0.00000  0.01740  Biso   1.000  O
  O4       1.0000 0.84950  0.00000  0.98260  Biso   1.000  O
  O5       1.0000 0.63660  0.50000  0.27570  Biso   1.000  O
  O6       1.0000 0.36340  0.50000  0.72430  Biso   1.000  O
  O7       1.0000 0.13660  0.00000  0.27570  Biso   1.000  O
  O8       1.0000 0.86340  0.00000  0.72430  Biso   1.000  O
  O9       1.0000 0.77390  0.41310  0.23710  Biso   1.000  O
  O10      1.0000 0.22610  0.41310  0.76290  Biso   1.000  O
  O11      1.0000 0.27390  0.91310  0.23710  Biso   1.000  O
  O12      1.0000 0.72610  0.91310  0.76290  Biso   1.000  O
  O13      1.0000 0.22610  0.58690  0.76290  Biso   1.000  O
  O14      1.0000 0.77390  0.58690  0.23710  Biso   1.000  O
  O15      1.0000 0.72610  0.08690  0.76290  Biso   1.000  O
  O16      1.0000 0.27390  0.08690  0.23710  Biso   1.000  O
  O17      1.0000 0.00690  0.41080  0.37940  Biso   1.000  O
  O18      1.0000 0.99310  0.41080  0.62060  Biso   1.000  O
  O19      1.0000 0.50690  0.91080  0.37940  Biso   1.000  O
  O20      1.0000 0.49310  0.91080  0.62060  Biso   1.000  O
  O21      1.0000 0.99310  0.58920  0.62060  Biso   1.000  O
  O22      1.0000 0.00690  0.58920  0.37940  Biso   1.000  O
  O23      1.0000 0.49310  0.08920  0.62060  Biso   1.000  O
  O24      1.0000 0.50690  0.08920  0.37940  Biso   1.000  O
  O25      1.0000 0.12280  0.31160  0.57970  Biso   1.000  O
  O26      1.0000 0.87720  0.31160  0.42030  Biso   1.000  O
  O27      1.0000 0.62280  0.81160  0.57970  Biso   1.000  O
  O28      1.0000 0.37720  0.81160  0.42030  Biso   1.000  O
  O29      1.0000 0.87720  0.68840  0.42030  Biso   1.000  O
  O30      1.0000 0.12280  0.68840  0.57970  Biso   1.000  O
  O31      1.0000 0.37720  0.18840  0.42030  Biso   1.000  O
  O32      1.0000 0.62280  0.18840  0.57970  Biso   1.000  O
  O33      1.0000 0.11310  0.50000  0.56160  Biso   1.000  O
  O34      1.0000 0.88690  0.50000  0.43840  Biso   1.000  O
  O35      1.0000 0.61310  0.00000  0.56160  Biso   1.000  O
  O36      1.0000 0.38690  0.00000  0.43840  Biso   1.000  O
  O37      1.0000 0.10950  0.50000  0.27190  Biso   1.000  O
  O38      1.0000 0.89050  0.50000  0.72810  Biso   1.000  O
  O39      1.0000 0.60950  0.00000  0.27190  Biso   1.000  O
  O40      1.0000 0.39050  0.00000  0.72810  Biso   1.000  O
  O41      1.0000 0.88680  0.50000  0.17450  Biso   1.000  O
  O42      1.0000 0.11320  0.50000  0.82550  Biso   1.000  O
  O43      1.0000 0.38680  0.00000  0.17450  Biso   1.000  O
  O44      1.0000 0.61320  0.00000  0.82550  Biso   1.000  O
  O45      1.0000 0.23210  0.39780  0.49630  Biso   1.000  O
  O46      1.0000 0.76790  0.39780  0.50370  Biso   1.000  O
  O47      1.0000 0.73210  0.89780  0.49630  Biso   1.000  O
  O48      1.0000 0.26790  0.89780  0.50370  Biso   1.000  O
  O49      1.0000 0.76790  0.60220  0.50370  Biso   1.000  O
  O50      1.0000 0.23210  0.60220  0.49630  Biso   1.000  O
  O51      1.0000 0.26790  0.10220  0.50370  Biso   1.000  O
  O52      1.0000 0.73210  0.10220  0.49630  Biso   1.000  O
  O53      1.0000 0.38010  0.50000  0.43730  Biso   1.000  O
  O54      1.0000 0.61990  0.50000  0.56270  Biso   1.000  O
  O55      1.0000 0.88010  0.00000  0.43730  Biso   1.000  O
  O56      1.0000 0.11990  0.00000  0.56270  Biso   1.000  O
  C1       1.0000 0.03260  0.13530  0.31730  Biso   1.000  C
  C2       1.0000 0.96740  0.13530  0.68270  Biso   1.000  C
  C3       1.0000 0.53260  0.63530  0.31730  Biso   1.000  C
  C4       1.0000 0.46740  0.63530  0.68270  Biso   1.000  C
  C5       1.0000 0.96740  0.86470  0.68270  Biso   1.000  C
  C6       1.0000 0.03260  0.86470  0.31730  Biso   1.000  C
  C7       1.0000 0.46740  0.36470  0.68270  Biso   1.000  C
  C8       1.0000 0.53260  0.36470  0.31730  Biso   1.000  C
  C9       1.0000 0.96160  0.11590  0.17800  Biso   1.000  C
  C10      1.0000 0.03840  0.11590  0.82200  Biso   1.000  C
  C11      1.0000 0.46160  0.61590  0.17800  Biso   1.000  C
  C12      1.0000 0.53840  0.61590  0.82200  Biso   1.000  C
  C13      1.0000 0.03840  0.88410  0.82200  Biso   1.000  C
  C14      1.0000 0.96160  0.88410  0.17800  Biso   1.000  C
  C15      1.0000 0.53840  0.38410  0.82200  Biso   1.000  C
  C16      1.0000 0.46160  0.38410  0.17800  Biso   1.000  C
  C17      1.0000 0.90990  0.16320  0.07400  Biso   1.000  C
  C18      1.0000 0.09010  0.16320  0.92600  Biso   1.000  C
  C19      1.0000 0.40990  0.66320  0.07400  Biso   1.000  C
  C20      1.0000 0.59010  0.66320  0.92600  Biso   1.000  C
  C21      1.0000 0.09010  0.83680  0.92600  Biso   1.000  C
  C22      1.0000 0.90990  0.83680  0.07400  Biso   1.000  C
  C23      1.0000 0.59010  0.33680  0.92600  Biso   1.000  C
  C24      1.0000 0.40990  0.33680  0.07400  Biso   1.000  C
  C25      1.0000 0.92950  0.22620  0.11400  Biso   1.000  C
  C26      1.0000 0.07050  0.22620  0.88600  Biso   1.000  C
  C27      1.0000 0.42950  0.72620  0.11400  Biso   1.000  C
  C28      1.0000 0.57050  0.72620  0.88600  Biso   1.000  C
  C29      1.0000 0.07050  0.77380  0.88600  Biso   1.000  C
  C30      1.0000 0.92950  0.77380  0.11400  Biso   1.000  C
  C31      1.0000 0.57050  0.27380  0.88600  Biso   1.000  C
  C32      1.0000 0.42950  0.27380  0.11400  Biso   1.000  C
  C33      1.0000 0.00190  0.23960  0.25730  Biso   1.000  C
  C34      1.0000 0.99810  0.23960  0.74270  Biso   1.000  C
  C35      1.0000 0.50190  0.73960  0.25730  Biso   1.000  C
  C36      1.0000 0.49810  0.73960  0.74270  Biso   1.000  C
  C37      1.0000 0.99810  0.76040  0.74270  Biso   1.000  C
  C38      1.0000 0.00190  0.76040  0.25730  Biso   1.000  C
  C39      1.0000 0.49810  0.26040  0.74270  Biso   1.000  C
  C40      1.0000 0.50190  0.26040  0.25730  Biso   1.000  C
  C41      1.0000 0.77750  0.36880  0.79700  Biso   1.000  C
  C42      1.0000 0.22250  0.36880  0.20300  Biso   1.000  C
  C43      1.0000 0.27750  0.86880  0.79700  Biso   1.000  C
  C44      1.0000 0.72250  0.86880  0.20300  Biso   1.000  C
  C45      1.0000 0.22250  0.63120  0.20300  Biso   1.000  C
  C46      1.0000 0.77750  0.63120  0.79700  Biso   1.000  C
  C47      1.0000 0.72250  0.13120  0.20300  Biso   1.000  C
  C48      1.0000 0.27750  0.13120  0.79700  Biso   1.000  C
  C49      1.0000 0.84010  0.38790  0.93860  Biso   1.000  C
  C50      1.0000 0.15990  0.38790  0.06140  Biso   1.000  C
  C51      1.0000 0.34010  0.88790  0.93860  Biso   1.000  C
  C52      1.0000 0.65990  0.88790  0.06140  Biso   1.000  C
  C53      1.0000 0.15990  0.61210  0.06140  Biso   1.000  C
  C54      1.0000 0.84010  0.61210  0.93860  Biso   1.000  C
  C55      1.0000 0.65990  0.11210  0.06140  Biso   1.000  C
  C56      1.0000 0.34010  0.11210  0.93860  Biso   1.000  C
  C57      1.0000 0.88920  0.34010  0.04330  Biso   1.000  C
  C58      1.0000 0.11080  0.34010  0.95670  Biso   1.000  C
  C59      1.0000 0.38920  0.84010  0.04330  Biso   1.000  C
  C60      1.0000 0.61080  0.84010  0.95670  Biso   1.000  C
  C61      1.0000 0.11080  0.65990  0.95670  Biso   1.000  C
  C62      1.0000 0.88920  0.65990  0.04330  Biso   1.000  C
  C63      1.0000 0.61080  0.15990  0.95670  Biso   1.000  C
  C64      1.0000 0.38920  0.15990  0.04330  Biso   1.000  C
  C65      1.0000 0.87570  0.27780  0.00470  Biso   1.000  C
  C66      1.0000 0.12430  0.27780  0.99530  Biso   1.000  C
  C67      1.0000 0.37570  0.77780  0.00470  Biso   1.000  C
  C68      1.0000 0.62430  0.77780  0.99530  Biso   1.000  C
  C69      1.0000 0.12430  0.72220  0.99530  Biso   1.000  C
  C70      1.0000 0.87570  0.72220  0.00470  Biso   1.000  C
  C71      1.0000 0.62430  0.22220  0.99530  Biso   1.000  C
  C72      1.0000 0.37570  0.22220  0.00470  Biso   1.000  C
  C73      1.0000 0.80870  0.26350  0.85890  Biso   1.000  C
  C74      1.0000 0.19130  0.26350  0.14110  Biso   1.000  C
  C75      1.0000 0.30870  0.76350  0.85890  Biso   1.000  C
  C76      1.0000 0.69130  0.76350  0.14110  Biso   1.000  C
  C77      1.0000 0.19130  0.73650  0.14110  Biso   1.000  C
  C78      1.0000 0.80870  0.73650  0.85890  Biso   1.000  C
  C79      1.0000 0.69130  0.23650  0.14110  Biso   1.000  C
  C80      1.0000 0.30870  0.23650  0.85890  Biso   1.000  C
  N1       1.0000 0.05340  0.19510  0.35900  Biso   1.000  N
  N2       1.0000 0.94660  0.19510  0.64100  Biso   1.000  N
  N3       1.0000 0.55340  0.69510  0.35900  Biso   1.000  N
  N4       1.0000 0.44660  0.69510  0.64100  Biso   1.000  N
  N5       1.0000 0.94660  0.80490  0.64100  Biso   1.000  N
  N6       1.0000 0.05340  0.80490  0.35900  Biso   1.000  N
  N7       1.0000 0.44660  0.30490  0.64100  Biso   1.000  N
  N8       1.0000 0.55340  0.30490  0.35900  Biso   1.000  N
  N9       1.0000 0.76070  0.30810  0.75530  Biso   1.000  N
  N10      1.0000 0.23930  0.30810  0.24470  Biso   1.000  N
  N11      1.0000 0.26070  0.80810  0.75530  Biso   1.000  N
  N12      1.0000 0.73930  0.80810  0.24470  Biso   1.000  N
  N13      1.0000 0.23930  0.69190  0.24470  Biso   1.000  N
  N14      1.0000 0.76070  0.69190  0.75530  Biso   1.000  N
  N15      1.0000 0.73930  0.19190  0.24470  Biso   1.000  N
  N16      1.0000 0.26070  0.19190  0.75530  Biso   1.000  N
  H1       1.0000 0.06820  0.10420  0.38650  Biso   1.000  H
  H2       1.0000 0.93180  0.10420  0.61350  Biso   1.000  H
  H3       1.0000 0.56820  0.60420  0.38650  Biso   1.000  H
  H4       1.0000 0.43180  0.60420  0.61350  Biso   1.000  H
  H5       1.0000 0.93180  0.89580  0.61350  Biso   1.000  H
  H6       1.0000 0.06820  0.89580  0.38650  Biso   1.000  H
  H7       1.0000 0.43180  0.39580  0.61350  Biso   1.000  H
  H8       1.0000 0.56820  0.39580  0.38650  Biso   1.000  H
  H9       1.0000 0.94880  0.07340  0.15420  Biso   1.000  H
  H10      1.0000 0.05120  0.07340  0.84580  Biso   1.000  H
  H11      1.0000 0.44880  0.57340  0.15420  Biso   1.000  H
  H12      1.0000 0.55120  0.57340  0.84580  Biso   1.000  H
  H13      1.0000 0.05120  0.92660  0.84580  Biso   1.000  H
  H14      1.0000 0.94880  0.92660  0.15420  Biso   1.000  H
  H15      1.0000 0.55120  0.42660  0.84580  Biso   1.000  H
  H16      1.0000 0.44880  0.42660  0.15420  Biso   1.000  H
  H17      1.0000 0.86250  0.15230  0.97850  Biso   1.000  H
  H18      1.0000 0.13750  0.15230  0.02150  Biso   1.000  H
  H19      1.0000 0.36250  0.65230  0.97850  Biso   1.000  H
  H20      1.0000 0.63750  0.65230  0.02150  Biso   1.000  H
  H21      1.0000 0.13750  0.84770  0.02150  Biso   1.000  H
  H22      1.0000 0.86250  0.84770  0.97850  Biso   1.000  H
  H23      1.0000 0.63750  0.34770  0.02150  Biso   1.000  H
  H24      1.0000 0.36250  0.34770  0.97850  Biso   1.000  H
  H25      1.0000 0.01570  0.28170  0.28490  Biso   1.000  H
  H26      1.0000 0.98430  0.28170  0.71510  Biso   1.000  H
  H27      1.0000 0.51570  0.78170  0.28490  Biso   1.000  H
  H28      1.0000 0.48430  0.78170  0.71510  Biso   1.000  H
  H29      1.0000 0.98430  0.71830  0.71510  Biso   1.000  H
  H30      1.0000 0.01570  0.71830  0.28490  Biso   1.000  H
  H31      1.0000 0.48430  0.21830  0.71510  Biso   1.000  H
  H32      1.0000 0.51570  0.21830  0.28490  Biso   1.000  H
  H33      1.0000 0.74510  0.39980  0.72630  Biso   1.000  H
  H34      1.0000 0.25490  0.39980  0.27370  Biso   1.000  H
  H35      1.0000 0.24510  0.89980  0.72630  Biso   1.000  H
  H36      1.0000 0.75490  0.89980  0.27370  Biso   1.000  H
  H37      1.0000 0.25490  0.60020  0.27370  Biso   1.000  H
  H38      1.0000 0.74510  0.60020  0.72630  Biso   1.000  H
  H39      1.0000 0.75490  0.10020  0.27370  Biso   1.000  H
  H40      1.0000 0.24510  0.10020  0.72630  Biso   1.000  H
  H41      1.0000 0.84960  0.43040  0.96400  Biso   1.000  H
  H42      1.0000 0.15040  0.43040  0.03600  Biso   1.000  H
  H43      1.0000 0.34960  0.93040  0.96400  Biso   1.000  H
  H44      1.0000 0.65040  0.93040  0.03600  Biso   1.000  H
  H45      1.0000 0.15040  0.56960  0.03600  Biso   1.000  H
  H46      1.0000 0.84960  0.56960  0.96400  Biso   1.000  H
  H47      1.0000 0.65040  0.06960  0.03600  Biso   1.000  H
  H48      1.0000 0.34960  0.06960  0.96400  Biso   1.000  H
  H49      1.0000 0.93160  0.35110  0.14030  Biso   1.000  H
  H50      1.0000 0.06840  0.35110  0.85970  Biso   1.000  H
  H51      1.0000 0.43160  0.85110  0.14030  Biso   1.000  H
  H52      1.0000 0.56840  0.85110  0.85970  Biso   1.000  H
  H53      1.0000 0.06840  0.64890  0.85970  Biso   1.000  H
  H54      1.0000 0.93160  0.64890  0.14030  Biso   1.000  H
  H55      1.0000 0.56840  0.14890  0.85970  Biso   1.000  H
  H56      1.0000 0.43160  0.14890  0.14030  Biso   1.000  H
  H57      1.0000 0.79640  0.22130  0.83150  Biso   1.000  H
  H58      1.0000 0.20360  0.22130  0.16850  Biso   1.000  H
  H59      1.0000 0.29640  0.72130  0.83150  Biso   1.000  H
  H60      1.0000 0.70360  0.72130  0.16850  Biso   1.000  H
  H61      1.0000 0.20360  0.77870  0.16850  Biso   1.000  H
  H62      1.0000 0.79640  0.77870  0.83150  Biso   1.000  H
  H63      1.0000 0.70360  0.27870  0.16850  Biso   1.000  H
  H64      1.0000 0.29640  0.27870  0.83150  Biso   1.000  H
