data_image0
_cell_length_a       8.4321
_cell_length_b       11.6068
_cell_length_c       16.2351
_cell_angle_alpha    90
_cell_angle_beta     94.863
_cell_angle_gamma    90

_symmetry_space_group_name_H-M    "P 1"
_symmetry_int_tables_number       1

loop_
  _symmetry_equiv_pos_as_xyz
  'x, y, z'

loop_
  _atom_site_label
  _atom_site_occupancy
  _atom_site_fract_x
  _atom_site_fract_y
  _atom_site_fract_z
  _atom_site_thermal_displace_type
  _atom_site_B_iso_or_equiv
  _atom_site_type_symbol
  I1       1.0000 0.72936  0.57931  0.06957  Biso   1.000  I
  I2       1.0000 0.27064  0.07931  0.43043  Biso   1.000  I
  I3       1.0000 0.27064  0.42069  0.93043  Biso   1.000  I
  I4       1.0000 0.72936  0.92069  0.56957  Biso   1.000  I
  Cu1      1.0000 0.87384  0.71572  0.17027  Biso   1.000  Cu
  Cu2      1.0000 0.12616  0.21572  0.32973  Biso   1.000  Cu
  Cu3      1.0000 0.12616  0.28428  0.82973  Biso   1.000  Cu
  Cu4      1.0000 0.87384  0.78428  0.67027  Biso   1.000  Cu
  P1       1.0000 0.04422  0.63047  0.26493  Biso   1.000  P
  P2       1.0000 0.95578  0.13047  0.23507  Biso   1.000  P
  P3       1.0000 0.95578  0.36953  0.73507  Biso   1.000  P
  P4       1.0000 0.04422  0.86953  0.76493  Biso   1.000  P
  P5       1.0000 0.18719  0.62129  0.43828  Biso   1.000  P
  P6       1.0000 0.81281  0.12129  0.06172  Biso   1.000  P
  P7       1.0000 0.81281  0.37871  0.56172  Biso   1.000  P
  P8       1.0000 0.18719  0.87871  0.93828  Biso   1.000  P
  P9       1.0000 0.39471  0.58751  0.29620  Biso   1.000  P
  P10      1.0000 0.60529  0.08751  0.20380  Biso   1.000  P
  P11      1.0000 0.60529  0.41249  0.70380  Biso   1.000  P
  P12      1.0000 0.39471  0.91249  0.79620  Biso   1.000  P
  P13      1.0000 0.16248  0.40671  0.33530  Biso   1.000  P
  P14      1.0000 0.83752  0.90671  0.16470  Biso   1.000  P
  P15      1.0000 0.83752  0.59329  0.66470  Biso   1.000  P
  P16      1.0000 0.16248  0.09329  0.83530  Biso   1.000  P
  N1       1.0000 0.04920  0.67457  0.36375  Biso   1.000  N
  N2       1.0000 0.95080  0.17457  0.13625  Biso   1.000  N
  N3       1.0000 0.95080  0.32543  0.63625  Biso   1.000  N
  N4       1.0000 0.04920  0.82543  0.86375  Biso   1.000  N
  N5       1.0000 0.36360  0.63634  0.39244  Biso   1.000  N
  N6       1.0000 0.63640  0.13634  0.10756  Biso   1.000  N
  N7       1.0000 0.63640  0.36366  0.60756  Biso   1.000  N
  N8       1.0000 0.36360  0.86366  0.89244  Biso   1.000  N
  N9       1.0000 0.23220  0.64358  0.23728  Biso   1.000  N
  N10      1.0000 0.76780  0.14358  0.26272  Biso   1.000  N
  N11      1.0000 0.76780  0.35642  0.76272  Biso   1.000  N
  N12      1.0000 0.23220  0.85642  0.73728  Biso   1.000  N
  N13      1.0000 0.33760  0.44569  0.30059  Biso   1.000  N
  N14      1.0000 0.66240  0.94569  0.19941  Biso   1.000  N
  N15      1.0000 0.66240  0.55431  0.69941  Biso   1.000  N
  N16      1.0000 0.33760  0.05431  0.80059  Biso   1.000  N
  N17      1.0000 0.15780  0.47475  0.42786  Biso   1.000  N
  N18      1.0000 0.84220  0.97475  0.07214  Biso   1.000  N
  N19      1.0000 0.84220  0.52525  0.57214  Biso   1.000  N
  N20      1.0000 0.15780  0.02525  0.92786  Biso   1.000  N
  N21      1.0000 0.02620  0.48477  0.27578  Biso   1.000  N
  N22      1.0000 0.97380  0.98477  0.22422  Biso   1.000  N
  N23      1.0000 0.97380  0.51523  0.72422  Biso   1.000  N
  N24      1.0000 0.02620  0.01523  0.77578  Biso   1.000  N
  C1       1.0000 0.97700  0.78660  0.38322  Biso   1.000  C
  C2       1.0000 0.02300  0.28660  0.11678  Biso   1.000  C
  C3       1.0000 0.02300  0.21340  0.61678  Biso   1.000  C
  C4       1.0000 0.97700  0.71340  0.88322  Biso   1.000  C
  H1       1.0000 0.04610  0.84940  0.36750  Biso   1.000  H
  H2       1.0000 0.95390  0.34940  0.13250  Biso   1.000  H
  H3       1.0000 0.95390  0.15060  0.63250  Biso   1.000  H
  H4       1.0000 0.04610  0.65060  0.86750  Biso   1.000  H
  H5       1.0000 0.96490  0.79090  0.44260  Biso   1.000  H
  H6       1.0000 0.03510  0.29090  0.05740  Biso   1.000  H
  H7       1.0000 0.03510  0.20910  0.55740  Biso   1.000  H
  H8       1.0000 0.96490  0.70910  0.94260  Biso   1.000  H
  H9       1.0000 0.87240  0.79380  0.35240  Biso   1.000  H
  H10      1.0000 0.12760  0.29380  0.14760  Biso   1.000  H
  H11      1.0000 0.12760  0.20620  0.64760  Biso   1.000  H
  H12      1.0000 0.87240  0.70620  0.85240  Biso   1.000  H
  C5       1.0000 0.44230  0.74850  0.41310  Biso   1.000  C
  C6       1.0000 0.55770  0.24850  0.08690  Biso   1.000  C
  C7       1.0000 0.55770  0.25150  0.58690  Biso   1.000  C
  C8       1.0000 0.44230  0.75150  0.91310  Biso   1.000  C
  H13      1.0000 0.55020  0.74790  0.39500  Biso   1.000  H
  H14      1.0000 0.44980  0.24790  0.10500  Biso   1.000  H
  H15      1.0000 0.44980  0.25210  0.60500  Biso   1.000  H
  H16      1.0000 0.55020  0.75210  0.89500  Biso   1.000  H
  H17      1.0000 0.44770  0.76080  0.47300  Biso   1.000  H
  H18      1.0000 0.55230  0.26080  0.02700  Biso   1.000  H
  H19      1.0000 0.55230  0.23920  0.52700  Biso   1.000  H
  H20      1.0000 0.44770  0.73920  0.97300  Biso   1.000  H
  H21      1.0000 0.38090  0.81090  0.38500  Biso   1.000  H
  H22      1.0000 0.61910  0.31090  0.11500  Biso   1.000  H
  H23      1.0000 0.61910  0.18910  0.61500  Biso   1.000  H
  H24      1.0000 0.38090  0.68910  0.88500  Biso   1.000  H
  C9       1.0000 0.24450  0.62930  0.14700  Biso   1.000  C
  C10      1.0000 0.75550  0.12930  0.35300  Biso   1.000  C
  C11      1.0000 0.75550  0.37070  0.85300  Biso   1.000  C
  C12      1.0000 0.24450  0.87070  0.64700  Biso   1.000  C
  H25      1.0000 0.20280  0.55350  0.12950  Biso   1.000  H
  H26      1.0000 0.79720  0.05350  0.37050  Biso   1.000  H
  H27      1.0000 0.79720  0.44650  0.87050  Biso   1.000  H
  H28      1.0000 0.20280  0.94650  0.62950  Biso   1.000  H
  H29      1.0000 0.35620  0.63520  0.13520  Biso   1.000  H
  H30      1.0000 0.64380  0.13520  0.36480  Biso   1.000  H
  H31      1.0000 0.64380  0.36480  0.86480  Biso   1.000  H
  H32      1.0000 0.35620  0.86480  0.63520  Biso   1.000  H
  H33      1.0000 0.18240  0.68960  0.11690  Biso   1.000  H
  H34      1.0000 0.81760  0.18960  0.38310  Biso   1.000  H
  H35      1.0000 0.81760  0.31040  0.88310  Biso   1.000  H
  H36      1.0000 0.18240  0.81040  0.61690  Biso   1.000  H
  C13      1.0000 0.46470  0.36040  0.30210  Biso   1.000  C
  C14      1.0000 0.53530  0.86040  0.19790  Biso   1.000  C
  C15      1.0000 0.53530  0.63960  0.69790  Biso   1.000  C
  C16      1.0000 0.46470  0.13960  0.80210  Biso   1.000  C
  H37      1.0000 0.52760  0.36340  0.35570  Biso   1.000  H
  H38      1.0000 0.47240  0.86340  0.14430  Biso   1.000  H
  H39      1.0000 0.47240  0.63660  0.64430  Biso   1.000  H
  H40      1.0000 0.52760  0.13660  0.85570  Biso   1.000  H
  H41      1.0000 0.53340  0.37700  0.25790  Biso   1.000  H
  H42      1.0000 0.46660  0.87700  0.24210  Biso   1.000  H
  H43      1.0000 0.46660  0.62300  0.74210  Biso   1.000  H
  H44      1.0000 0.53340  0.12300  0.75790  Biso   1.000  H
  H45      1.0000 0.41830  0.28340  0.29390  Biso   1.000  H
  H46      1.0000 0.58170  0.78340  0.20610  Biso   1.000  H
  H47      1.0000 0.58170  0.71660  0.70610  Biso   1.000  H
  H48      1.0000 0.41830  0.21660  0.79390  Biso   1.000  H
  C17      1.0000 0.24480  0.41270  0.49809  Biso   1.000  C
  C18      1.0000 0.75520  0.91270  0.00191  Biso   1.000  C
  C19      1.0000 0.75520  0.58730  0.50191  Biso   1.000  C
  C20      1.0000 0.24480  0.08730  0.99809  Biso   1.000  C
  H49      1.0000 0.23400  0.32940  0.48940  Biso   1.000  H
  H50      1.0000 0.76600  0.82940  0.01060  Biso   1.000  H
  H51      1.0000 0.76600  0.67060  0.51060  Biso   1.000  H
  H52      1.0000 0.23400  0.17060  0.98940  Biso   1.000  H
  H53      1.0000 0.19990  0.43390  0.54970  Biso   1.000  H
  H54      1.0000 0.80010  0.93390  0.95030  Biso   1.000  H
  H55      1.0000 0.80010  0.56610  0.45030  Biso   1.000  H
  H56      1.0000 0.19990  0.06610  0.04970  Biso   1.000  H
  H57      1.0000 0.35760  0.43400  0.50140  Biso   1.000  H
  H58      1.0000 0.64240  0.93400  0.99860  Biso   1.000  H
  H59      1.0000 0.64240  0.56600  0.49860  Biso   1.000  H
  H60      1.0000 0.35760  0.06600  0.00140  Biso   1.000  H
  C21      1.0000 0.86050  0.44780  0.28647  Biso   1.000  C
  C22      1.0000 0.13950  0.94780  0.21353  Biso   1.000  C
  C23      1.0000 0.13950  0.55220  0.71353  Biso   1.000  C
  C24      1.0000 0.86050  0.05220  0.78647  Biso   1.000  C
  H61      1.0000 0.84450  0.36890  0.26590  Biso   1.000  H
  H62      1.0000 0.15550  0.86890  0.23410  Biso   1.000  H
  H63      1.0000 0.15550  0.63110  0.73410  Biso   1.000  H
  H64      1.0000 0.84450  0.13110  0.76590  Biso   1.000  H
  H65      1.0000 0.78570  0.49960  0.25530  Biso   1.000  H
  H66      1.0000 0.21430  0.99960  0.24470  Biso   1.000  H
  H67      1.0000 0.21430  0.50040  0.74470  Biso   1.000  H
  H68      1.0000 0.78570  0.00040  0.75530  Biso   1.000  H
  H69      1.0000 0.84190  0.45060  0.34520  Biso   1.000  H
  H70      1.0000 0.15810  0.95060  0.15480  Biso   1.000  H
  H71      1.0000 0.15810  0.54940  0.65480  Biso   1.000  H
  H72      1.0000 0.84190  0.04940  0.84520  Biso   1.000  H
