data_image0
_cell_length_a       8.0022
_cell_length_b       8.0076
_cell_length_c       8.7146
_cell_angle_alpha    102.122
_cell_angle_beta     105.511
_cell_angle_gamma    96.888

_symmetry_space_group_name_H-M    "P 1"
_symmetry_int_tables_number       1

loop_
  _symmetry_equiv_pos_as_xyz
  'x, y, z'

loop_
  _atom_site_label
  _atom_site_occupancy
  _atom_site_fract_x
  _atom_site_fract_y
  _atom_site_fract_z
  _atom_site_thermal_displace_type
  _atom_site_B_iso_or_equiv
  _atom_site_type_symbol
  Cu1      1.0000 0.02311  0.20057  0.13724  Biso   1.000  Cu
  Cu2      1.0000 0.97689  0.79943  0.86276  Biso   1.000  Cu
  O1       1.0000 0.00960  0.34260  0.85950  Biso   1.000  O
  O2       1.0000 0.99040  0.65740  0.14050  Biso   1.000  O
  O3       1.0000 0.93790  0.08530  0.88960  Biso   1.000  O
  O4       1.0000 0.06210  0.91470  0.11040  Biso   1.000  O
  O5       1.0000 0.96040  0.11870  0.65550  Biso   1.000  O
  O6       1.0000 0.03960  0.88130  0.34450  Biso   1.000  O
  N1       1.0000 0.27550  0.30220  0.17870  Biso   1.000  N
  N2       1.0000 0.72450  0.69780  0.82130  Biso   1.000  N
  N3       1.0000 0.37120  0.22150  0.09700  Biso   1.000  N
  N4       1.0000 0.62880  0.77850  0.90300  Biso   1.000  N
  N5       1.0000 0.52520  0.33100  0.12900  Biso   1.000  N
  N6       1.0000 0.47480  0.66900  0.87100  Biso   1.000  N
  N7       1.0000 0.96970  0.18420  0.79910  Biso   1.000  N
  N8       1.0000 0.03030  0.81580  0.20090  Biso   1.000  N
  C1       1.0000 0.36870  0.46650  0.26650  Biso   1.000  C
  C2       1.0000 0.63130  0.53350  0.73350  Biso   1.000  C
  C3       1.0000 0.32880  0.60010  0.37340  Biso   1.000  C
  C4       1.0000 0.67120  0.39990  0.62660  Biso   1.000  C
  H1       1.0000 0.22170  0.58920  0.39650  Biso   1.000  H
  H2       1.0000 0.77830  0.41080  0.60350  Biso   1.000  H
  C5       1.0000 0.45490  0.74900  0.44320  Biso   1.000  C
  C6       1.0000 0.54510  0.25100  0.55680  Biso   1.000  C
  H3       1.0000 0.43270  0.84100  0.51510  Biso   1.000  H
  H4       1.0000 0.56730  0.15900  0.48490  Biso   1.000  H
  C7       1.0000 0.61640  0.76500  0.40830  Biso   1.000  C
  C8       1.0000 0.38360  0.23500  0.59170  Biso   1.000  C
  H5       1.0000 0.69810  0.86790  0.45850  Biso   1.000  H
  H6       1.0000 0.30190  0.13210  0.54150  Biso   1.000  H
  C9       1.0000 0.65880  0.63640  0.30400  Biso   1.000  C
  C10      1.0000 0.34120  0.36360  0.69600  Biso   1.000  C
  H7       1.0000 0.76600  0.64890  0.28110  Biso   1.000  H
  H8       1.0000 0.23400  0.35110  0.71890  Biso   1.000  H
  C11      1.0000 0.53090  0.48440  0.23370  Biso   1.000  C
  C12      1.0000 0.46910  0.51560  0.76630  Biso   1.000  C
  C13      1.0000 0.66650  0.27170  0.06620  Biso   1.000  C
  C14      1.0000 0.33350  0.72830  0.93380  Biso   1.000  C
  H9       1.0000 0.73440  0.36900  0.04580  Biso   1.000  H
  H10      1.0000 0.26560  0.63100  0.95420  Biso   1.000  H
  H11      1.0000 0.61470  0.18460  0.96240  Biso   1.000  H
  H12      1.0000 0.38530  0.81540  0.03760  Biso   1.000  H
  C15      1.0000 0.78760  0.19570  0.18600  Biso   1.000  C
  C16      1.0000 0.21240  0.80430  0.81400  Biso   1.000  C
  H13      1.0000 0.77080  0.07550  0.16840  Biso   1.000  H
  H14      1.0000 0.22920  0.92450  0.83160  Biso   1.000  H
  C17      1.0000 0.92010  0.29420  0.31830  Biso   1.000  C
  C18      1.0000 0.07990  0.70580  0.68170  Biso   1.000  C
  H15      1.0000 0.93950  0.41470  0.33840  Biso   1.000  H
  H16      1.0000 0.06050  0.58530  0.66160  Biso   1.000  H
  H17      1.0000 0.99150  0.24120  0.38890  Biso   1.000  H
  H18      1.0000 0.00850  0.75880  0.61110  Biso   1.000  H
