data_image0
_cell_length_a       6.3188
_cell_length_b       22.669
_cell_length_c       12.4931
_cell_angle_alpha    90
_cell_angle_beta     90.947
_cell_angle_gamma    90

_symmetry_space_group_name_H-M    "P 1"
_symmetry_int_tables_number       1

loop_
  _symmetry_equiv_pos_as_xyz
  'x, y, z'

loop_
  _atom_site_label
  _atom_site_occupancy
  _atom_site_fract_x
  _atom_site_fract_y
  _atom_site_fract_z
  _atom_site_thermal_displace_type
  _atom_site_B_iso_or_equiv
  _atom_site_type_symbol
  Cu1      1.0000 0.19171  0.64980  0.75335  Biso   1.000  Cu
  Cu2      1.0000 0.80829  0.14980  0.74665  Biso   1.000  Cu
  Cu3      1.0000 0.80829  0.35020  0.24665  Biso   1.000  Cu
  Cu4      1.0000 0.19171  0.85021  0.25335  Biso   1.000  Cu
  N1       1.0000 0.47280  0.61015  0.65190  Biso   1.000  N
  N2       1.0000 0.52720  0.11015  0.84810  Biso   1.000  N
  N3       1.0000 0.52720  0.38985  0.34810  Biso   1.000  N
  N4       1.0000 0.47280  0.88985  0.15190  Biso   1.000  N
  N5       1.0000 0.93310  0.59735  0.72653  Biso   1.000  N
  N6       1.0000 0.06690  0.09735  0.77347  Biso   1.000  N
  N7       1.0000 0.06690  0.40265  0.27347  Biso   1.000  N
  N8       1.0000 0.93310  0.90265  0.22653  Biso   1.000  N
  H1       1.0000 0.86970  0.60850  0.66280  Biso   1.000  H
  H2       1.0000 0.13030  0.10850  0.83720  Biso   1.000  H
  H3       1.0000 0.13030  0.39150  0.33720  Biso   1.000  H
  H4       1.0000 0.86970  0.89150  0.16280  Biso   1.000  H
  H5       1.0000 0.97820  0.55900  0.71900  Biso   1.000  H
  H6       1.0000 0.02180  0.05900  0.78100  Biso   1.000  H
  H7       1.0000 0.02180  0.44100  0.28100  Biso   1.000  H
  H8       1.0000 0.97820  0.94100  0.21900  Biso   1.000  H
  N9       1.0000 0.34090  0.62150  0.89532  Biso   1.000  N
  N10      1.0000 0.65910  0.12150  0.60468  Biso   1.000  N
  N11      1.0000 0.65910  0.37850  0.10468  Biso   1.000  N
  N12      1.0000 0.34090  0.87850  0.39532  Biso   1.000  N
  H9       1.0000 0.44280  0.64890  0.91340  Biso   1.000  H
  H10      1.0000 0.55720  0.14890  0.58660  Biso   1.000  H
  H11      1.0000 0.55720  0.35110  0.08660  Biso   1.000  H
  H12      1.0000 0.44280  0.85110  0.41340  Biso   1.000  H
  H13      1.0000 0.24190  0.62210  0.94850  Biso   1.000  H
  H14      1.0000 0.75810  0.12210  0.55150  Biso   1.000  H
  H15      1.0000 0.75810  0.37790  0.05150  Biso   1.000  H
  H16      1.0000 0.24190  0.87790  0.44850  Biso   1.000  H
  N13      1.0000 0.28260  0.72785  0.69550  Biso   1.000  N
  N14      1.0000 0.71740  0.22785  0.80450  Biso   1.000  N
  N15      1.0000 0.71740  0.27215  0.30450  Biso   1.000  N
  N16      1.0000 0.28260  0.77215  0.19550  Biso   1.000  N
  H17      1.0000 0.16370  0.74800  0.67280  Biso   1.000  H
  H18      1.0000 0.83630  0.24800  0.82720  Biso   1.000  H
  H19      1.0000 0.83630  0.25200  0.32720  Biso   1.000  H
  H20      1.0000 0.16370  0.75200  0.17280  Biso   1.000  H
  H21      1.0000 0.34310  0.74920  0.75070  Biso   1.000  H
  H22      1.0000 0.65690  0.24920  0.74930  Biso   1.000  H
  H23      1.0000 0.65690  0.25080  0.24930  Biso   1.000  H
  H24      1.0000 0.34310  0.75080  0.25070  Biso   1.000  H
  N17      1.0000 0.60030  0.73793  0.38800  Biso   1.000  N
  N18      1.0000 0.39970  0.23793  0.11200  Biso   1.000  N
  N19      1.0000 0.39970  0.26207  0.61200  Biso   1.000  N
  N20      1.0000 0.60030  0.76207  0.88800  Biso   1.000  N
  H25      1.0000 0.70890  0.73500  0.33790  Biso   1.000  H
  H26      1.0000 0.29110  0.23500  0.16210  Biso   1.000  H
  H27      1.0000 0.29110  0.26500  0.66210  Biso   1.000  H
  H28      1.0000 0.70890  0.76500  0.83790  Biso   1.000  H
  H29      1.0000 0.66650  0.76390  0.43820  Biso   1.000  H
  H30      1.0000 0.33350  0.26390  0.06180  Biso   1.000  H
  H31      1.0000 0.33350  0.23610  0.56180  Biso   1.000  H
  H32      1.0000 0.66650  0.73610  0.93820  Biso   1.000  H
  C1       1.0000 0.47780  0.55617  0.69710  Biso   1.000  C
  C2       1.0000 0.52220  0.05617  0.80290  Biso   1.000  C
  C3       1.0000 0.52220  0.44383  0.30290  Biso   1.000  C
  C4       1.0000 0.47780  0.94383  0.19710  Biso   1.000  C
  C5       1.0000 0.36960  0.50860  0.65060  Biso   1.000  C
  C6       1.0000 0.63040  0.00860  0.84940  Biso   1.000  C
  C7       1.0000 0.63040  0.49140  0.34940  Biso   1.000  C
  C8       1.0000 0.36960  0.99140  0.15060  Biso   1.000  C
  H33      1.0000 0.37200  0.47080  0.68350  Biso   1.000  H
  H34      1.0000 0.62800  0.97080  0.81650  Biso   1.000  H
  H35      1.0000 0.62800  0.52920  0.31650  Biso   1.000  H
  H36      1.0000 0.37200  0.02920  0.18350  Biso   1.000  H
  C9       1.0000 0.25940  0.51786  0.55630  Biso   1.000  C
  C10      1.0000 0.74060  0.01786  0.94370  Biso   1.000  C
  C11      1.0000 0.74060  0.48214  0.44370  Biso   1.000  C
  C12      1.0000 0.25940  0.98214  0.05630  Biso   1.000  C
  H37      1.0000 0.18940  0.48580  0.52190  Biso   1.000  H
  H38      1.0000 0.81060  0.98580  0.97810  Biso   1.000  H
  H39      1.0000 0.81060  0.51420  0.47810  Biso   1.000  H
  H40      1.0000 0.18940  0.01420  0.02190  Biso   1.000  H
  C13      1.0000 0.24980  0.57375  0.51080  Biso   1.000  C
  C14      1.0000 0.75020  0.07375  0.98920  Biso   1.000  C
  C15      1.0000 0.75020  0.42625  0.48920  Biso   1.000  C
  C16      1.0000 0.24980  0.92625  0.01080  Biso   1.000  C
  H41      1.0000 0.17120  0.58050  0.44650  Biso   1.000  H
  H42      1.0000 0.82880  0.08050  0.05350  Biso   1.000  H
  H43      1.0000 0.82880  0.41950  0.55350  Biso   1.000  H
  H44      1.0000 0.17120  0.91950  0.94650  Biso   1.000  H
  C17      1.0000 0.35810  0.61978  0.56160  Biso   1.000  C
  C18      1.0000 0.64190  0.11978  0.93840  Biso   1.000  C
  C19      1.0000 0.64190  0.38022  0.43840  Biso   1.000  C
  C20      1.0000 0.35810  0.88022  0.06160  Biso   1.000  C
  C21      1.0000 0.59760  0.55235  0.80390  Biso   1.000  C
  C22      1.0000 0.40240  0.05235  0.69610  Biso   1.000  C
  C23      1.0000 0.40240  0.44765  0.19610  Biso   1.000  C
  C24      1.0000 0.59760  0.94765  0.30390  Biso   1.000  C
  C25      1.0000 0.77280  0.59926  0.81130  Biso   1.000  C
  C26      1.0000 0.22720  0.09926  0.68870  Biso   1.000  C
  C27      1.0000 0.22720  0.40074  0.18870  Biso   1.000  C
  C28      1.0000 0.77280  0.90074  0.31130  Biso   1.000  C
  H45      1.0000 0.70530  0.63870  0.80990  Biso   1.000  H
  H46      1.0000 0.29470  0.13870  0.69010  Biso   1.000  H
  H47      1.0000 0.29470  0.36130  0.19010  Biso   1.000  H
  H48      1.0000 0.70530  0.86130  0.30990  Biso   1.000  H
  H49      1.0000 0.84640  0.59500  0.88150  Biso   1.000  H
  H50      1.0000 0.15360  0.09500  0.61850  Biso   1.000  H
  H51      1.0000 0.15360  0.40500  0.11850  Biso   1.000  H
  H52      1.0000 0.84640  0.90500  0.38150  Biso   1.000  H
  C29      1.0000 0.44220  0.56259  0.89650  Biso   1.000  C
  C30      1.0000 0.55780  0.06259  0.60350  Biso   1.000  C
  C31      1.0000 0.55780  0.43741  0.10350  Biso   1.000  C
  C32      1.0000 0.44220  0.93741  0.39650  Biso   1.000  C
  H53      1.0000 0.33020  0.53210  0.89270  Biso   1.000  H
  H54      1.0000 0.66980  0.03210  0.60730  Biso   1.000  H
  H55      1.0000 0.66980  0.46790  0.10730  Biso   1.000  H
  H56      1.0000 0.33020  0.96790  0.39270  Biso   1.000  H
  H57      1.0000 0.51970  0.55750  0.96540  Biso   1.000  H
  H58      1.0000 0.48030  0.05750  0.53460  Biso   1.000  H
  H59      1.0000 0.48030  0.44250  0.03460  Biso   1.000  H
  H60      1.0000 0.51970  0.94250  0.46540  Biso   1.000  H
  C33      1.0000 0.69530  0.49082  0.82080  Biso   1.000  C
  C34      1.0000 0.30470  0.99082  0.67920  Biso   1.000  C
  C35      1.0000 0.30470  0.50918  0.17920  Biso   1.000  C
  C36      1.0000 0.69530  0.00918  0.32080  Biso   1.000  C
  H61      1.0000 0.78340  0.49090  0.88610  Biso   1.000  H
  H62      1.0000 0.21660  0.99090  0.61390  Biso   1.000  H
  H63      1.0000 0.21660  0.50910  0.11390  Biso   1.000  H
  H64      1.0000 0.78340  0.00910  0.38610  Biso   1.000  H
  H65      1.0000 0.78270  0.48080  0.75940  Biso   1.000  H
  H66      1.0000 0.21730  0.98080  0.74060  Biso   1.000  H
  H67      1.0000 0.21730  0.51920  0.24060  Biso   1.000  H
  H68      1.0000 0.78270  0.01920  0.25940  Biso   1.000  H
  H69      1.0000 0.58210  0.46160  0.82780  Biso   1.000  H
  H70      1.0000 0.41790  0.96160  0.67220  Biso   1.000  H
  H71      1.0000 0.41790  0.53840  0.17220  Biso   1.000  H
  H72      1.0000 0.58210  0.03840  0.32780  Biso   1.000  H
  C37      1.0000 0.37140  0.68226  0.51720  Biso   1.000  C
  C38      1.0000 0.62860  0.18226  0.98280  Biso   1.000  C
  C39      1.0000 0.62860  0.31774  0.48280  Biso   1.000  C
  C40      1.0000 0.37140  0.81774  0.01720  Biso   1.000  C
  C41      1.0000 0.43380  0.72639  0.60600  Biso   1.000  C
  C42      1.0000 0.56620  0.22639  0.89400  Biso   1.000  C
  C43      1.0000 0.56620  0.27361  0.39400  Biso   1.000  C
  C44      1.0000 0.43380  0.77361  0.10600  Biso   1.000  C
  H73      1.0000 0.57580  0.71580  0.63470  Biso   1.000  H
  H74      1.0000 0.42420  0.21580  0.86530  Biso   1.000  H
  H75      1.0000 0.42420  0.28420  0.36530  Biso   1.000  H
  H76      1.0000 0.57580  0.78420  0.13470  Biso   1.000  H
  H77      1.0000 0.44330  0.76630  0.57450  Biso   1.000  H
  H78      1.0000 0.55670  0.26630  0.92550  Biso   1.000  H
  H79      1.0000 0.55670  0.23370  0.42550  Biso   1.000  H
  H80      1.0000 0.44330  0.73370  0.07450  Biso   1.000  H
  C45      1.0000 0.55170  0.68028  0.43480  Biso   1.000  C
  C46      1.0000 0.44830  0.18028  0.06520  Biso   1.000  C
  C47      1.0000 0.44830  0.31972  0.56520  Biso   1.000  C
  C48      1.0000 0.55170  0.81972  0.93480  Biso   1.000  C
  H81      1.0000 0.68110  0.66460  0.47050  Biso   1.000  H
  H82      1.0000 0.31890  0.16460  0.02950  Biso   1.000  H
  H83      1.0000 0.31890  0.33540  0.52950  Biso   1.000  H
  H84      1.0000 0.68110  0.83540  0.97050  Biso   1.000  H
  H85      1.0000 0.51130  0.65270  0.37660  Biso   1.000  H
  H86      1.0000 0.48870  0.15270  0.12340  Biso   1.000  H
  H87      1.0000 0.48870  0.34730  0.62340  Biso   1.000  H
  H88      1.0000 0.51130  0.84730  0.87660  Biso   1.000  H
  C49      1.0000 0.16270  0.70184  0.46410  Biso   1.000  C
  C50      1.0000 0.83730  0.20184  0.03590  Biso   1.000  C
  C51      1.0000 0.83730  0.29816  0.53590  Biso   1.000  C
  C52      1.0000 0.16270  0.79816  0.96410  Biso   1.000  C
  H89      1.0000 0.12710  0.67510  0.40490  Biso   1.000  H
  H90      1.0000 0.87290  0.17510  0.09510  Biso   1.000  H
  H91      1.0000 0.87290  0.32490  0.59510  Biso   1.000  H
  H92      1.0000 0.12710  0.82490  0.90490  Biso   1.000  H
  H93      1.0000 0.17770  0.74210  0.43670  Biso   1.000  H
  H94      1.0000 0.82230  0.24210  0.06330  Biso   1.000  H
  H95      1.0000 0.82230  0.25790  0.56330  Biso   1.000  H
  H96      1.0000 0.17770  0.75790  0.93670  Biso   1.000  H
  H97      1.0000 0.04980  0.70080  0.51690  Biso   1.000  H
  H98      1.0000 0.95020  0.20080  0.98310  Biso   1.000  H
  H99      1.0000 0.95020  0.29920  0.48310  Biso   1.000  H
  H100     1.0000 0.04980  0.79920  0.01690  Biso   1.000  H
  P1       1.0000 0.86766  0.63670  0.14655  Biso   1.000  P
  P2       1.0000 0.13234  0.13670  0.35345  Biso   1.000  P
  P3       1.0000 0.13234  0.36330  0.85345  Biso   1.000  P
  P4       1.0000 0.86766  0.86330  0.64655  Biso   1.000  P
  F1       1.0000 0.87670  0.70180  0.19720  Biso   1.000  F
  F2       1.0000 0.12330  0.20180  0.30280  Biso   1.000  F
  F3       1.0000 0.12330  0.29820  0.80280  Biso   1.000  F
  F4       1.0000 0.87670  0.79820  0.69720  Biso   1.000  F
  F5       1.0000 0.85730  0.57237  0.09467  Biso   1.000  F
  F6       1.0000 0.14270  0.07237  0.40533  Biso   1.000  F
  F7       1.0000 0.14270  0.42763  0.90533  Biso   1.000  F
  F8       1.0000 0.85730  0.92763  0.59467  Biso   1.000  F
  F9       1.0000 0.10960  0.64010  0.11750  Biso   1.000  F
  F10      1.0000 0.89040  0.14010  0.38250  Biso   1.000  F
  F11      1.0000 0.89040  0.35990  0.88250  Biso   1.000  F
  F12      1.0000 0.10960  0.85990  0.61750  Biso   1.000  F
  F13      1.0000 0.92530  0.60880  0.26210  Biso   1.000  F
  F14      1.0000 0.07470  0.10880  0.23790  Biso   1.000  F
  F15      1.0000 0.07470  0.39120  0.73790  Biso   1.000  F
  F16      1.0000 0.92530  0.89120  0.76210  Biso   1.000  F
  F17      1.0000 0.62110  0.63409  0.17680  Biso   1.000  F
  F18      1.0000 0.37890  0.13409  0.32320  Biso   1.000  F
  F19      1.0000 0.37890  0.36591  0.82320  Biso   1.000  F
  F20      1.0000 0.62110  0.86591  0.67680  Biso   1.000  F
  F21      1.0000 0.80120  0.66464  0.03330  Biso   1.000  F
  F22      1.0000 0.19880  0.16464  0.46670  Biso   1.000  F
  F23      1.0000 0.19880  0.33536  0.96670  Biso   1.000  F
  F24      1.0000 0.80120  0.83536  0.53330  Biso   1.000  F
  F25      1.0000 0.12500  0.63970  0.16100  Biso   1.000  F
  F26      1.0000 0.87500  0.13970  0.33900  Biso   1.000  F
  F27      1.0000 0.87500  0.36030  0.83900  Biso   1.000  F
  F28      1.0000 0.12500  0.86030  0.66100  Biso   1.000  F
  F29      1.0000 0.86200  0.60600  0.24000  Biso   1.000  F
  F30      1.0000 0.13800  0.10600  0.26000  Biso   1.000  F
  F31      1.0000 0.13800  0.39400  0.76000  Biso   1.000  F
  F32      1.0000 0.86200  0.89400  0.74000  Biso   1.000  F
  F33      1.0000 0.64200  0.63600  0.11800  Biso   1.000  F
  F34      1.0000 0.35800  0.13600  0.38200  Biso   1.000  F
  F35      1.0000 0.35800  0.36400  0.88200  Biso   1.000  F
  F36      1.0000 0.64200  0.86400  0.61800  Biso   1.000  F
  F37      1.0000 0.91400  0.67060  0.03400  Biso   1.000  F
  F38      1.0000 0.08600  0.17060  0.46600  Biso   1.000  F
  F39      1.0000 0.08600  0.32940  0.96600  Biso   1.000  F
  F40      1.0000 0.91400  0.82940  0.53400  Biso   1.000  F
