data_image0
_cell_length_a       27.962
_cell_length_b       21.174
_cell_length_c       11.802
_cell_angle_alpha    90
_cell_angle_beta     90
_cell_angle_gamma    90

_symmetry_space_group_name_H-M    "P 1"
_symmetry_int_tables_number       1

loop_
  _symmetry_equiv_pos_as_xyz
  'x, y, z'

loop_
  _atom_site_label
  _atom_site_occupancy
  _atom_site_fract_x
  _atom_site_fract_y
  _atom_site_fract_z
  _atom_site_thermal_displace_type
  _atom_site_B_iso_or_equiv
  _atom_site_type_symbol
  Mo1      1.0000 0.35925  0.24110  0.13417  Biso   1.000  Mo
  Mo2      1.0000 0.14075  0.75890  0.63417  Biso   1.000  Mo
  Mo3      1.0000 0.64075  0.74110  0.86583  Biso   1.000  Mo
  Mo4      1.0000 0.85925  0.25890  0.36583  Biso   1.000  Mo
  Mo5      1.0000 0.64075  0.75890  0.86583  Biso   1.000  Mo
  Mo6      1.0000 0.85925  0.24110  0.36583  Biso   1.000  Mo
  Mo7      1.0000 0.35925  0.25890  0.13417  Biso   1.000  Mo
  Mo8      1.0000 0.14075  0.74110  0.63417  Biso   1.000  Mo
  Mo9      1.0000 0.21277  0.25000  0.33886  Biso   1.000  Mo
  Mo10     1.0000 0.28723  0.75000  0.83886  Biso   1.000  Mo
  Mo11     1.0000 0.78723  0.75000  0.66114  Biso   1.000  Mo
  Mo12     1.0000 0.71277  0.25000  0.16114  Biso   1.000  Mo
  Mo13     1.0000 0.28405  0.12710  0.22869  Biso   1.000  Mo
  Mo14     1.0000 0.21595  0.87290  0.72869  Biso   1.000  Mo
  Mo15     1.0000 0.71595  0.62710  0.77131  Biso   1.000  Mo
  Mo16     1.0000 0.78405  0.37290  0.27131  Biso   1.000  Mo
  Mo17     1.0000 0.71595  0.87290  0.77131  Biso   1.000  Mo
  Mo18     1.0000 0.78405  0.12710  0.27131  Biso   1.000  Mo
  Mo19     1.0000 0.28405  0.37290  0.22869  Biso   1.000  Mo
  Mo20     1.0000 0.21595  0.62710  0.72869  Biso   1.000  Mo
  Mo21     1.0000 0.31332  0.12494  0.94086  Biso   1.000  Mo
  Mo22     1.0000 0.18668  0.87506  0.44086  Biso   1.000  Mo
  Mo23     1.0000 0.68668  0.62494  0.05914  Biso   1.000  Mo
  Mo24     1.0000 0.81332  0.37506  0.55914  Biso   1.000  Mo
  Mo25     1.0000 0.68668  0.87506  0.05914  Biso   1.000  Mo
  Mo26     1.0000 0.81332  0.12494  0.55914  Biso   1.000  Mo
  Mo27     1.0000 0.31332  0.37506  0.94086  Biso   1.000  Mo
  Mo28     1.0000 0.18668  0.62494  0.44086  Biso   1.000  Mo
  Mo29     1.0000 0.26462  0.25000  0.74894  Biso   1.000  Mo
  Mo30     1.0000 0.23538  0.75000  0.24894  Biso   1.000  Mo
  Mo31     1.0000 0.73538  0.75000  0.25106  Biso   1.000  Mo
  Mo32     1.0000 0.76462  0.25000  0.75106  Biso   1.000  Mo
  Mo33     1.0000 0.19318  0.12732  0.85970  Biso   1.000  Mo
  Mo34     1.0000 0.30682  0.87268  0.35970  Biso   1.000  Mo
  Mo35     1.0000 0.80682  0.62732  0.14030  Biso   1.000  Mo
  Mo36     1.0000 0.69318  0.37268  0.64030  Biso   1.000  Mo
  Mo37     1.0000 0.80682  0.87268  0.14030  Biso   1.000  Mo
  Mo38     1.0000 0.69318  0.12732  0.64030  Biso   1.000  Mo
  Mo39     1.0000 0.19318  0.37268  0.85970  Biso   1.000  Mo
  Mo40     1.0000 0.30682  0.62732  0.35970  Biso   1.000  Mo
  Mo41     1.0000 0.11772  0.25000  0.95386  Biso   1.000  Mo
  Mo42     1.0000 0.38228  0.75000  0.45386  Biso   1.000  Mo
  Mo43     1.0000 0.88228  0.75000  0.04614  Biso   1.000  Mo
  Mo44     1.0000 0.61772  0.25000  0.54614  Biso   1.000  Mo
  Mo45     1.0000 0.16381  0.12449  0.14792  Biso   1.000  Mo
  Mo46     1.0000 0.33619  0.87551  0.64792  Biso   1.000  Mo
  Mo47     1.0000 0.83619  0.62449  0.85208  Biso   1.000  Mo
  Mo48     1.0000 0.66381  0.37551  0.35208  Biso   1.000  Mo
  Mo49     1.0000 0.83619  0.87551  0.85208  Biso   1.000  Mo
  Mo50     1.0000 0.66381  0.12449  0.35208  Biso   1.000  Mo
  Mo51     1.0000 0.16381  0.37551  0.14792  Biso   1.000  Mo
  Mo52     1.0000 0.33619  0.62449  0.64792  Biso   1.000  Mo
  P1       1.0000 0.23870  0.25000  0.04400  Biso   1.000  P
  P2       1.0000 0.26130  0.75000  0.54400  Biso   1.000  P
  P3       1.0000 0.76130  0.75000  0.95600  Biso   1.000  P
  P4       1.0000 0.73870  0.25000  0.45600  Biso   1.000  P
  V1       1.0000 0.36198  0.25000  0.87230  Biso   1.000  V
  V2       1.0000 0.13802  0.75000  0.37230  Biso   1.000  V
  V3       1.0000 0.63802  0.75000  0.12770  Biso   1.000  V
  V4       1.0000 0.86198  0.25000  0.62770  Biso   1.000  V
  V5       1.0000 0.11529  0.25000  0.21380  Biso   1.000  V
  V6       1.0000 0.38471  0.75000  0.71380  Biso   1.000  V
  V7       1.0000 0.88471  0.75000  0.78620  Biso   1.000  V
  V8       1.0000 0.61529  0.25000  0.28620  Biso   1.000  V
  Cu1      1.0000 0.48791  0.25000  0.76070  Biso   1.000  Cu
  Cu2      1.0000 0.01209  0.75000  0.26070  Biso   1.000  Cu
  Cu3      1.0000 0.51209  0.75000  0.23930  Biso   1.000  Cu
  Cu4      1.0000 0.98791  0.25000  0.73930  Biso   1.000  Cu
  Cu5      1.0000 0.01106  0.25000  0.40470  Biso   1.000  Cu
  Cu6      1.0000 0.48894  0.75000  0.90470  Biso   1.000  Cu
  Cu7      1.0000 0.98894  0.75000  0.59530  Biso   1.000  Cu
  Cu8      1.0000 0.51106  0.25000  0.09530  Biso   1.000  Cu
  Cu9      1.0000 0.54651  0.75000  0.59950  Biso   1.000  Cu
  Cu10     1.0000 0.95349  0.25000  0.09950  Biso   1.000  Cu
  Cu11     1.0000 0.45349  0.25000  0.40050  Biso   1.000  Cu
  Cu12     1.0000 0.04651  0.75000  0.90050  Biso   1.000  Cu
  O1       1.0000 0.41080  0.25000  0.80450  Biso   1.000  O
  O2       1.0000 0.08920  0.75000  0.30450  Biso   1.000  O
  O3       1.0000 0.58920  0.75000  0.19550  Biso   1.000  O
  O4       1.0000 0.91080  0.25000  0.69550  Biso   1.000  O
  O5       1.0000 0.63790  0.75000  0.55060  Biso   1.000  O
  O6       1.0000 0.86210  0.25000  0.05060  Biso   1.000  O
  O7       1.0000 0.36210  0.25000  0.44940  Biso   1.000  O
  O8       1.0000 0.13790  0.75000  0.94940  Biso   1.000  O
  O9       1.0000 0.41730  0.25000  0.16790  Biso   1.000  O
  O10      1.0000 0.08270  0.75000  0.66790  Biso   1.000  O
  O11      1.0000 0.58270  0.75000  0.83210  Biso   1.000  O
  O12      1.0000 0.91730  0.25000  0.33210  Biso   1.000  O
  O13      1.0000 0.61550  0.25000  0.87080  Biso   1.000  O
  O14      1.0000 0.88450  0.75000  0.37080  Biso   1.000  O
  O15      1.0000 0.38450  0.75000  0.12920  Biso   1.000  O
  O16      1.0000 0.11550  0.25000  0.62920  Biso   1.000  O
  O17      1.0000 0.35990  0.19040  0.99790  Biso   1.000  O
  O18      1.0000 0.14010  0.80960  0.49790  Biso   1.000  O
  O19      1.0000 0.64010  0.69040  0.00210  Biso   1.000  O
  O20      1.0000 0.85990  0.30960  0.50210  Biso   1.000  O
  O21      1.0000 0.64010  0.80960  0.00210  Biso   1.000  O
  O22      1.0000 0.85990  0.19040  0.50210  Biso   1.000  O
  O23      1.0000 0.35990  0.30960  0.99790  Biso   1.000  O
  O24      1.0000 0.14010  0.69040  0.49790  Biso   1.000  O
  O25      1.0000 0.17480  0.07750  0.48900  Biso   1.000  O
  O26      1.0000 0.32520  0.92250  0.98900  Biso   1.000  O
  O27      1.0000 0.82520  0.57750  0.51100  Biso   1.000  O
  O28      1.0000 0.67480  0.42250  0.01100  Biso   1.000  O
  O29      1.0000 0.82520  0.92250  0.51100  Biso   1.000  O
  O30      1.0000 0.67480  0.07750  0.01100  Biso   1.000  O
  O31      1.0000 0.17480  0.42250  0.48900  Biso   1.000  O
  O32      1.0000 0.32520  0.57750  0.98900  Biso   1.000  O
  O33      1.0000 0.31440  0.19190  0.81650  Biso   1.000  O
  O34      1.0000 0.18560  0.80810  0.31650  Biso   1.000  O
  O35      1.0000 0.68560  0.69190  0.18350  Biso   1.000  O
  O36      1.0000 0.81440  0.30810  0.68350  Biso   1.000  O
  O37      1.0000 0.68560  0.80810  0.18350  Biso   1.000  O
  O38      1.0000 0.81440  0.19190  0.68350  Biso   1.000  O
  O39      1.0000 0.31440  0.30810  0.81650  Biso   1.000  O
  O40      1.0000 0.18560  0.69190  0.31650  Biso   1.000  O
  O41      1.0000 0.32000  0.07320  0.58800  Biso   1.000  O
  O42      1.0000 0.18000  0.92680  0.08800  Biso   1.000  O
  O43      1.0000 0.68000  0.57320  0.41200  Biso   1.000  O
  O44      1.0000 0.82000  0.42680  0.91200  Biso   1.000  O
  O45      1.0000 0.68000  0.92680  0.41200  Biso   1.000  O
  O46      1.0000 0.82000  0.07320  0.91200  Biso   1.000  O
  O47      1.0000 0.32000  0.42680  0.58800  Biso   1.000  O
  O48      1.0000 0.18000  0.57320  0.08800  Biso   1.000  O
  O49      1.0000 0.22250  0.18590  0.75280  Biso   1.000  O
  O50      1.0000 0.27750  0.81410  0.25280  Biso   1.000  O
  O51      1.0000 0.77750  0.68590  0.24720  Biso   1.000  O
  O52      1.0000 0.72250  0.31410  0.74720  Biso   1.000  O
  O53      1.0000 0.77750  0.81410  0.24720  Biso   1.000  O
  O54      1.0000 0.72250  0.18590  0.74720  Biso   1.000  O
  O55      1.0000 0.22250  0.31410  0.75280  Biso   1.000  O
  O56      1.0000 0.27750  0.68590  0.25280  Biso   1.000  O
  O57      1.0000 0.24620  0.09190  0.54800  Biso   1.000  O
  O58      1.0000 0.25380  0.90810  0.04800  Biso   1.000  O
  O59      1.0000 0.75380  0.59190  0.45200  Biso   1.000  O
  O60      1.0000 0.74620  0.40810  0.95200  Biso   1.000  O
  O61      1.0000 0.75380  0.90810  0.45200  Biso   1.000  O
  O62      1.0000 0.74620  0.09190  0.95200  Biso   1.000  O
  O63      1.0000 0.24620  0.40810  0.54800  Biso   1.000  O
  O64      1.0000 0.25380  0.59190  0.04800  Biso   1.000  O
  O65      1.0000 0.23100  0.04360  0.54100  Biso   1.000  O
  O66      1.0000 0.26900  0.95640  0.04100  Biso   1.000  O
  O67      1.0000 0.76900  0.54360  0.45900  Biso   1.000  O
  O68      1.0000 0.73100  0.45640  0.95900  Biso   1.000  O
  O69      1.0000 0.76900  0.95640  0.45900  Biso   1.000  O
  O70      1.0000 0.73100  0.04360  0.95900  Biso   1.000  O
  O71      1.0000 0.23100  0.45640  0.54100  Biso   1.000  O
  O72      1.0000 0.26900  0.54360  0.04100  Biso   1.000  O
  O73      1.0000 0.35200  0.07170  0.88660  Biso   1.000  O
  O74      1.0000 0.14800  0.92830  0.38660  Biso   1.000  O
  O75      1.0000 0.64800  0.57170  0.11340  Biso   1.000  O
  O76      1.0000 0.85200  0.42830  0.61340  Biso   1.000  O
  O77      1.0000 0.64800  0.92830  0.11340  Biso   1.000  O
  O78      1.0000 0.85200  0.07170  0.61340  Biso   1.000  O
  O79      1.0000 0.35200  0.42830  0.88660  Biso   1.000  O
  O80      1.0000 0.14800  0.57170  0.38660  Biso   1.000  O
  O81      1.0000 0.25600  0.09790  0.88430  Biso   1.000  O
  O82      1.0000 0.24400  0.90210  0.38430  Biso   1.000  O
  O83      1.0000 0.74400  0.59790  0.11570  Biso   1.000  O
  O84      1.0000 0.75600  0.40210  0.61570  Biso   1.000  O
  O85      1.0000 0.74400  0.90210  0.11570  Biso   1.000  O
  O86      1.0000 0.75600  0.09790  0.61570  Biso   1.000  O
  O87      1.0000 0.25600  0.40210  0.88430  Biso   1.000  O
  O88      1.0000 0.24400  0.59790  0.38430  Biso   1.000  O
  O89      1.0000 0.17220  0.07290  0.77790  Biso   1.000  O
  O90      1.0000 0.32780  0.92710  0.27790  Biso   1.000  O
  O91      1.0000 0.82780  0.57290  0.22210  Biso   1.000  O
  O92      1.0000 0.67220  0.42710  0.72210  Biso   1.000  O
  O93      1.0000 0.82780  0.92710  0.22210  Biso   1.000  O
  O94      1.0000 0.67220  0.07290  0.72210  Biso   1.000  O
  O95      1.0000 0.17220  0.42710  0.77790  Biso   1.000  O
  O96      1.0000 0.32780  0.57290  0.27790  Biso   1.000  O
  O97      1.0000 0.14010  0.18660  0.86750  Biso   1.000  O
  O98      1.0000 0.35990  0.81340  0.36750  Biso   1.000  O
  O99      1.0000 0.85990  0.68660  0.13250  Biso   1.000  O
  O100     1.0000 0.64010  0.31340  0.63250  Biso   1.000  O
  O101     1.0000 0.85990  0.81340  0.13250  Biso   1.000  O
  O102     1.0000 0.64010  0.18660  0.63250  Biso   1.000  O
  O103     1.0000 0.14010  0.31340  0.86750  Biso   1.000  O
  O104     1.0000 0.35990  0.68660  0.36750  Biso   1.000  O
  O105     1.0000 0.05920  0.25000  0.92740  Biso   1.000  O
  O106     1.0000 0.44080  0.75000  0.42740  Biso   1.000  O
  O107     1.0000 0.94080  0.75000  0.07260  Biso   1.000  O
  O108     1.0000 0.55920  0.25000  0.57260  Biso   1.000  O
  O109     1.0000 0.11730  0.19000  0.08940  Biso   1.000  O
  O110     1.0000 0.38270  0.81000  0.58940  Biso   1.000  O
  O111     1.0000 0.88270  0.69000  0.91060  Biso   1.000  O
  O112     1.0000 0.61730  0.31000  0.41060  Biso   1.000  O
  O113     1.0000 0.88270  0.81000  0.91060  Biso   1.000  O
  O114     1.0000 0.61730  0.19000  0.41060  Biso   1.000  O
  O115     1.0000 0.11730  0.31000  0.08940  Biso   1.000  O
  O116     1.0000 0.38270  0.69000  0.58940  Biso   1.000  O
  O117     1.0000 0.16230  0.19050  0.27210  Biso   1.000  O
  O118     1.0000 0.33770  0.80950  0.77210  Biso   1.000  O
  O119     1.0000 0.83770  0.69050  0.72790  Biso   1.000  O
  O120     1.0000 0.66230  0.30950  0.22790  Biso   1.000  O
  O121     1.0000 0.83770  0.80950  0.72790  Biso   1.000  O
  O122     1.0000 0.66230  0.19050  0.22790  Biso   1.000  O
  O123     1.0000 0.16230  0.30950  0.27210  Biso   1.000  O
  O124     1.0000 0.33770  0.69050  0.77210  Biso   1.000  O
  O125     1.0000 0.19360  0.25000  0.47250  Biso   1.000  O
  O126     1.0000 0.30640  0.75000  0.97250  Biso   1.000  O
  O127     1.0000 0.80640  0.75000  0.52750  Biso   1.000  O
  O128     1.0000 0.69360  0.25000  0.02750  Biso   1.000  O
  O129     1.0000 0.25570  0.18650  0.33220  Biso   1.000  O
  O130     1.0000 0.24430  0.81350  0.83220  Biso   1.000  O
  O131     1.0000 0.74430  0.68650  0.66780  Biso   1.000  O
  O132     1.0000 0.75570  0.31350  0.16780  Biso   1.000  O
  O133     1.0000 0.74430  0.81350  0.66780  Biso   1.000  O
  O134     1.0000 0.75570  0.18650  0.16780  Biso   1.000  O
  O135     1.0000 0.25570  0.31350  0.33220  Biso   1.000  O
  O136     1.0000 0.24430  0.68650  0.83220  Biso   1.000  O
  O137     1.0000 0.30300  0.09980  0.08330  Biso   1.000  O
  O138     1.0000 0.19700  0.90020  0.58330  Biso   1.000  O
  O139     1.0000 0.69700  0.59980  0.91670  Biso   1.000  O
  O140     1.0000 0.80300  0.40020  0.41670  Biso   1.000  O
  O141     1.0000 0.69700  0.90020  0.91670  Biso   1.000  O
  O142     1.0000 0.80300  0.09980  0.41670  Biso   1.000  O
  O143     1.0000 0.30300  0.40020  0.08330  Biso   1.000  O
  O144     1.0000 0.19700  0.59980  0.58330  Biso   1.000  O
  O145     1.0000 0.06380  0.25000  0.27780  Biso   1.000  O
  O146     1.0000 0.43620  0.75000  0.77780  Biso   1.000  O
  O147     1.0000 0.93620  0.75000  0.72220  Biso   1.000  O
  O148     1.0000 0.56380  0.25000  0.22220  Biso   1.000  O
  O149     1.0000 0.16180  0.08970  0.00650  Biso   1.000  O
  O150     1.0000 0.33820  0.91030  0.50650  Biso   1.000  O
  O151     1.0000 0.83820  0.58970  0.99350  Biso   1.000  O
  O152     1.0000 0.66180  0.41030  0.49350  Biso   1.000  O
  O153     1.0000 0.83820  0.91030  0.99350  Biso   1.000  O
  O154     1.0000 0.66180  0.08970  0.49350  Biso   1.000  O
  O155     1.0000 0.16180  0.41030  0.00650  Biso   1.000  O
  O156     1.0000 0.33820  0.58970  0.50650  Biso   1.000  O
  O157     1.0000 0.18410  0.10610  0.00800  Biso   1.000  O
  O158     1.0000 0.31590  0.89390  0.50800  Biso   1.000  O
  O159     1.0000 0.81590  0.60610  0.99200  Biso   1.000  O
  O160     1.0000 0.68410  0.39390  0.49200  Biso   1.000  O
  O161     1.0000 0.81590  0.89390  0.99200  Biso   1.000  O
  O162     1.0000 0.68410  0.10610  0.49200  Biso   1.000  O
  O163     1.0000 0.18410  0.39390  0.00800  Biso   1.000  O
  O164     1.0000 0.31590  0.60610  0.50800  Biso   1.000  O
  O165     1.0000 0.30510  0.07470  0.30930  Biso   1.000  O
  O166     1.0000 0.19490  0.92530  0.80930  Biso   1.000  O
  O167     1.0000 0.69490  0.57470  0.69070  Biso   1.000  O
  O168     1.0000 0.80510  0.42530  0.19070  Biso   1.000  O
  O169     1.0000 0.69490  0.92530  0.69070  Biso   1.000  O
  O170     1.0000 0.80510  0.07470  0.19070  Biso   1.000  O
  O171     1.0000 0.30510  0.42530  0.30930  Biso   1.000  O
  O172     1.0000 0.19490  0.57470  0.80930  Biso   1.000  O
  O173     1.0000 0.33670  0.18610  0.22160  Biso   1.000  O
  O174     1.0000 0.16330  0.81390  0.72160  Biso   1.000  O
  O175     1.0000 0.66330  0.68610  0.77840  Biso   1.000  O
  O176     1.0000 0.83670  0.31390  0.27840  Biso   1.000  O
  O177     1.0000 0.66330  0.81390  0.77840  Biso   1.000  O
  O178     1.0000 0.83670  0.18610  0.27840  Biso   1.000  O
  O179     1.0000 0.33670  0.31390  0.22160  Biso   1.000  O
  O180     1.0000 0.16330  0.68610  0.72160  Biso   1.000  O
  O181     1.0000 0.22100  0.09690  0.19920  Biso   1.000  O
  O182     1.0000 0.27900  0.90310  0.69920  Biso   1.000  O
  O183     1.0000 0.77900  0.59690  0.80080  Biso   1.000  O
  O184     1.0000 0.72100  0.40310  0.30080  Biso   1.000  O
  O185     1.0000 0.77900  0.90310  0.80080  Biso   1.000  O
  O186     1.0000 0.72100  0.09690  0.30080  Biso   1.000  O
  O187     1.0000 0.22100  0.40310  0.19920  Biso   1.000  O
  O188     1.0000 0.27900  0.59690  0.69920  Biso   1.000  O
  O189     1.0000 0.12620  0.07180  0.20040  Biso   1.000  O
  O190     1.0000 0.37380  0.92820  0.70040  Biso   1.000  O
  O191     1.0000 0.87380  0.57180  0.79960  Biso   1.000  O
  O192     1.0000 0.62620  0.42820  0.29960  Biso   1.000  O
  O193     1.0000 0.87380  0.92820  0.79960  Biso   1.000  O
  O194     1.0000 0.62620  0.07180  0.29960  Biso   1.000  O
  O195     1.0000 0.12620  0.42820  0.20040  Biso   1.000  O
  O196     1.0000 0.37380  0.57180  0.70040  Biso   1.000  O
  O197     1.0000 0.28430  0.25000  0.62130  Biso   1.000  O
  O198     1.0000 0.21570  0.75000  0.12130  Biso   1.000  O
  O199     1.0000 0.71570  0.75000  0.37870  Biso   1.000  O
  O200     1.0000 0.78430  0.25000  0.87870  Biso   1.000  O
  O201     1.0000 0.25030  0.20940  0.94110  Biso   1.000  O
  O202     1.0000 0.24970  0.79060  0.44110  Biso   1.000  O
  O203     1.0000 0.74970  0.70940  0.05890  Biso   1.000  O
  O204     1.0000 0.75030  0.29060  0.55890  Biso   1.000  O
  O205     1.0000 0.74970  0.79060  0.05890  Biso   1.000  O
  O206     1.0000 0.75030  0.20940  0.55890  Biso   1.000  O
  O207     1.0000 0.25030  0.29060  0.94110  Biso   1.000  O
  O208     1.0000 0.24970  0.70940  0.44110  Biso   1.000  O
  O209     1.0000 0.19500  0.20690  0.01890  Biso   1.000  O
  O210     1.0000 0.30500  0.79310  0.51890  Biso   1.000  O
  O211     1.0000 0.80500  0.70690  0.98110  Biso   1.000  O
  O212     1.0000 0.69500  0.29310  0.48110  Biso   1.000  O
  O213     1.0000 0.80500  0.79310  0.98110  Biso   1.000  O
  O214     1.0000 0.69500  0.20690  0.48110  Biso   1.000  O
  O215     1.0000 0.19500  0.29310  0.01890  Biso   1.000  O
  O216     1.0000 0.30500  0.70690  0.51890  Biso   1.000  O
  O217     1.0000 0.22900  0.20910  0.14440  Biso   1.000  O
  O218     1.0000 0.27100  0.79090  0.64440  Biso   1.000  O
  O219     1.0000 0.77100  0.70910  0.85560  Biso   1.000  O
  O220     1.0000 0.72900  0.29090  0.35560  Biso   1.000  O
  O221     1.0000 0.77100  0.79090  0.85560  Biso   1.000  O
  O222     1.0000 0.72900  0.20910  0.35560  Biso   1.000  O
  O223     1.0000 0.22900  0.29090  0.14440  Biso   1.000  O
  O224     1.0000 0.27100  0.70910  0.64440  Biso   1.000  O
  O225     1.0000 0.28150  0.20610  0.06880  Biso   1.000  O
  O226     1.0000 0.21850  0.79390  0.56880  Biso   1.000  O
  O227     1.0000 0.71850  0.70610  0.93120  Biso   1.000  O
  O228     1.0000 0.78150  0.29390  0.43120  Biso   1.000  O
  O229     1.0000 0.71850  0.79390  0.93120  Biso   1.000  O
  O230     1.0000 0.78150  0.20610  0.43120  Biso   1.000  O
  O231     1.0000 0.28150  0.29390  0.06880  Biso   1.000  O
  O232     1.0000 0.21850  0.70610  0.56880  Biso   1.000  O
  N1       1.0000 0.49840  0.16040  0.74340  Biso   1.000  N
  N2       1.0000 0.00160  0.83960  0.24340  Biso   1.000  N
  N3       1.0000 0.50160  0.66040  0.25660  Biso   1.000  N
  N4       1.0000 0.99840  0.33960  0.75660  Biso   1.000  N
  N5       1.0000 0.50160  0.83960  0.25660  Biso   1.000  N
  N6       1.0000 0.99840  0.16040  0.75660  Biso   1.000  N
  N7       1.0000 0.49840  0.33960  0.74340  Biso   1.000  N
  N8       1.0000 0.00160  0.66040  0.24340  Biso   1.000  N
  N9       1.0000 0.53930  0.83800  0.60920  Biso   1.000  N
  N10      1.0000 0.96070  0.16200  0.10920  Biso   1.000  N
  N11      1.0000 0.46070  0.33800  0.39080  Biso   1.000  N
  N12      1.0000 0.03930  0.66200  0.89080  Biso   1.000  N
  N13      1.0000 0.46070  0.16200  0.39080  Biso   1.000  N
  N14      1.0000 0.03930  0.83800  0.89080  Biso   1.000  N
  N15      1.0000 0.53930  0.66200  0.60920  Biso   1.000  N
  N16      1.0000 0.96070  0.33800  0.10920  Biso   1.000  N
  N17      1.0000 0.00700  0.16070  0.43200  Biso   1.000  N
  N18      1.0000 0.49300  0.83930  0.93200  Biso   1.000  N
  N19      1.0000 0.99300  0.66070  0.56800  Biso   1.000  N
  N20      1.0000 0.50700  0.33930  0.06800  Biso   1.000  N
  N21      1.0000 0.99300  0.83930  0.56800  Biso   1.000  N
  N22      1.0000 0.50700  0.16070  0.06800  Biso   1.000  N
  N23      1.0000 0.00700  0.33930  0.43200  Biso   1.000  N
  N24      1.0000 0.49300  0.66070  0.93200  Biso   1.000  N
  C1       1.0000 0.46250  0.12290  0.71350  Biso   1.000  C
  C2       1.0000 0.03750  0.87710  0.21350  Biso   1.000  C
  C3       1.0000 0.53750  0.62290  0.28650  Biso   1.000  C
  C4       1.0000 0.96250  0.37710  0.78650  Biso   1.000  C
  C5       1.0000 0.53750  0.87710  0.28650  Biso   1.000  C
  C6       1.0000 0.96250  0.12290  0.78650  Biso   1.000  C
  C7       1.0000 0.46250  0.37710  0.71350  Biso   1.000  C
  C8       1.0000 0.03750  0.62290  0.21350  Biso   1.000  C
  H1       1.0000 0.43180  0.13980  0.70910  Biso   1.000  H
  H2       1.0000 0.06820  0.86020  0.20910  Biso   1.000  H
  H3       1.0000 0.56820  0.63980  0.29090  Biso   1.000  H
  H4       1.0000 0.93180  0.36020  0.79090  Biso   1.000  H
  H5       1.0000 0.56820  0.86020  0.29090  Biso   1.000  H
  H6       1.0000 0.93180  0.13980  0.79090  Biso   1.000  H
  H7       1.0000 0.43180  0.36020  0.70910  Biso   1.000  H
  H8       1.0000 0.06820  0.63980  0.20910  Biso   1.000  H
  C9       1.0000 0.54060  0.13700  0.74770  Biso   1.000  C
  C10      1.0000 0.95940  0.86300  0.24770  Biso   1.000  C
  C11      1.0000 0.45940  0.63700  0.25230  Biso   1.000  C
  C12      1.0000 0.04060  0.36300  0.75230  Biso   1.000  C
  C13      1.0000 0.45940  0.86300  0.25230  Biso   1.000  C
  C14      1.0000 0.04060  0.13700  0.75230  Biso   1.000  C
  C15      1.0000 0.54060  0.36300  0.74770  Biso   1.000  C
  C16      1.0000 0.95940  0.63700  0.24770  Biso   1.000  C
  H9       1.0000 0.56590  0.16310  0.76830  Biso   1.000  H
  H10      1.0000 0.93410  0.83690  0.26830  Biso   1.000  H
  H11      1.0000 0.43410  0.66310  0.23170  Biso   1.000  H
  H12      1.0000 0.06590  0.33690  0.73170  Biso   1.000  H
  H13      1.0000 0.43410  0.83690  0.23170  Biso   1.000  H
  H14      1.0000 0.06590  0.16310  0.73170  Biso   1.000  H
  H15      1.0000 0.56590  0.33690  0.76830  Biso   1.000  H
  H16      1.0000 0.93410  0.66310  0.26830  Biso   1.000  H
  C17      1.0000 0.55000  0.07410  0.72280  Biso   1.000  C
  C18      1.0000 0.95000  0.92590  0.22280  Biso   1.000  C
  C19      1.0000 0.45000  0.57410  0.27720  Biso   1.000  C
  C20      1.0000 0.05000  0.42590  0.77720  Biso   1.000  C
  C21      1.0000 0.45000  0.92590  0.27720  Biso   1.000  C
  C22      1.0000 0.05000  0.07410  0.77720  Biso   1.000  C
  C23      1.0000 0.55000  0.42590  0.72280  Biso   1.000  C
  C24      1.0000 0.95000  0.57410  0.22280  Biso   1.000  C
  H17      1.0000 0.58110  0.05880  0.72920  Biso   1.000  H
  H18      1.0000 0.91890  0.94120  0.22920  Biso   1.000  H
  H19      1.0000 0.41890  0.55880  0.27080  Biso   1.000  H
  H20      1.0000 0.08110  0.44120  0.77080  Biso   1.000  H
  H21      1.0000 0.41890  0.94120  0.27080  Biso   1.000  H
  H22      1.0000 0.08110  0.05880  0.77080  Biso   1.000  H
  H23      1.0000 0.58110  0.44120  0.72920  Biso   1.000  H
  H24      1.0000 0.91890  0.55880  0.22920  Biso   1.000  H
  C25      1.0000 0.51400  0.03410  0.68890  Biso   1.000  C
  C26      1.0000 0.98600  0.96590  0.18890  Biso   1.000  C
  C27      1.0000 0.48600  0.53410  0.31110  Biso   1.000  C
  C28      1.0000 0.01400  0.46590  0.81110  Biso   1.000  C
  C29      1.0000 0.48600  0.96590  0.31110  Biso   1.000  C
  C30      1.0000 0.01400  0.03410  0.81110  Biso   1.000  C
  C31      1.0000 0.51400  0.46590  0.68890  Biso   1.000  C
  C32      1.0000 0.98600  0.53410  0.18890  Biso   1.000  C
  C33      1.0000 0.52330  0.96670  0.65860  Biso   1.000  C
  C34      1.0000 0.97670  0.03330  0.15860  Biso   1.000  C
  C35      1.0000 0.47670  0.46670  0.34140  Biso   1.000  C
  C36      1.0000 0.02330  0.53330  0.84140  Biso   1.000  C
  C37      1.0000 0.47670  0.03330  0.34140  Biso   1.000  C
  C38      1.0000 0.02330  0.96670  0.84140  Biso   1.000  C
  C39      1.0000 0.52330  0.53330  0.65860  Biso   1.000  C
  C40      1.0000 0.97670  0.46670  0.15860  Biso   1.000  C
  C41      1.0000 0.96740  0.13670  0.47630  Biso   1.000  C
  C42      1.0000 0.53260  0.86330  0.97630  Biso   1.000  C
  C43      1.0000 0.03260  0.63670  0.52370  Biso   1.000  C
  C44      1.0000 0.46740  0.36330  0.02370  Biso   1.000  C
  C45      1.0000 0.03260  0.86330  0.52370  Biso   1.000  C
  C46      1.0000 0.46740  0.13670  0.02370  Biso   1.000  C
  C47      1.0000 0.96740  0.36330  0.47630  Biso   1.000  C
  C48      1.0000 0.53260  0.63670  0.97630  Biso   1.000  C
  H25      1.0000 0.94150  0.16320  0.48980  Biso   1.000  H
  H26      1.0000 0.55850  0.83680  0.98980  Biso   1.000  H
  H27      1.0000 0.05850  0.66320  0.51020  Biso   1.000  H
  H28      1.0000 0.44150  0.33680  0.01020  Biso   1.000  H
  H29      1.0000 0.05850  0.83680  0.51020  Biso   1.000  H
  H30      1.0000 0.44150  0.16320  0.01020  Biso   1.000  H
  H31      1.0000 0.94150  0.33680  0.48980  Biso   1.000  H
  H32      1.0000 0.55850  0.66320  0.98980  Biso   1.000  H
  C49      1.0000 0.56690  0.94200  0.66700  Biso   1.000  C
  C50      1.0000 0.93310  0.05800  0.16700  Biso   1.000  C
  C51      1.0000 0.43310  0.44200  0.33300  Biso   1.000  C
  C52      1.0000 0.06690  0.55800  0.83300  Biso   1.000  C
  C53      1.0000 0.43310  0.05800  0.33300  Biso   1.000  C
  C54      1.0000 0.06690  0.94200  0.83300  Biso   1.000  C
  C55      1.0000 0.56690  0.55800  0.66700  Biso   1.000  C
  C56      1.0000 0.93310  0.44200  0.16700  Biso   1.000  C
  H33      1.0000 0.59250  0.96690  0.68970  Biso   1.000  H
  H34      1.0000 0.90750  0.03310  0.18970  Biso   1.000  H
  H35      1.0000 0.40750  0.46690  0.31030  Biso   1.000  H
  H36      1.0000 0.09250  0.53310  0.81030  Biso   1.000  H
  H37      1.0000 0.40750  0.03310  0.31030  Biso   1.000  H
  H38      1.0000 0.09250  0.96690  0.81030  Biso   1.000  H
  H39      1.0000 0.59250  0.53310  0.68970  Biso   1.000  H
  H40      1.0000 0.90750  0.46690  0.18970  Biso   1.000  H
  C57      1.0000 0.48740  0.92790  0.62090  Biso   1.000  C
  C58      1.0000 0.01260  0.07210  0.12090  Biso   1.000  C
  C59      1.0000 0.51260  0.42790  0.37910  Biso   1.000  C
  C60      1.0000 0.98740  0.57210  0.87910  Biso   1.000  C
  C61      1.0000 0.51260  0.07210  0.37910  Biso   1.000  C
  C62      1.0000 0.98740  0.92790  0.87910  Biso   1.000  C
  C63      1.0000 0.48740  0.57210  0.62090  Biso   1.000  C
  C64      1.0000 0.01260  0.42790  0.12090  Biso   1.000  C
  H41      1.0000 0.45680  0.94410  0.61080  Biso   1.000  H
  H42      1.0000 0.04320  0.05590  0.11080  Biso   1.000  H
  H43      1.0000 0.54320  0.44410  0.38920  Biso   1.000  H
  H44      1.0000 0.95680  0.55590  0.88920  Biso   1.000  H
  H45      1.0000 0.54320  0.05590  0.38920  Biso   1.000  H
  H46      1.0000 0.95680  0.94410  0.88920  Biso   1.000  H
  H47      1.0000 0.45680  0.55590  0.61080  Biso   1.000  H
  H48      1.0000 0.04320  0.44410  0.11080  Biso   1.000  H
  C65      1.0000 0.49660  0.86360  0.59720  Biso   1.000  C
  C66      1.0000 0.00340  0.13640  0.09720  Biso   1.000  C
  C67      1.0000 0.50340  0.36360  0.40280  Biso   1.000  C
  C68      1.0000 0.99660  0.63640  0.90280  Biso   1.000  C
  C69      1.0000 0.50340  0.13640  0.40280  Biso   1.000  C
  C70      1.0000 0.99660  0.86360  0.90280  Biso   1.000  C
  C71      1.0000 0.49660  0.63640  0.59720  Biso   1.000  C
  C72      1.0000 0.00340  0.36360  0.09720  Biso   1.000  C
  H49      1.0000 0.47150  0.83840  0.57220  Biso   1.000  H
  H50      1.0000 0.02850  0.16160  0.07220  Biso   1.000  H
  H51      1.0000 0.52850  0.33840  0.42780  Biso   1.000  H
  H52      1.0000 0.97150  0.66160  0.92780  Biso   1.000  H
  H53      1.0000 0.52850  0.16160  0.42780  Biso   1.000  H
  H54      1.0000 0.97150  0.83840  0.92780  Biso   1.000  H
  H55      1.0000 0.47150  0.66160  0.57220  Biso   1.000  H
  H56      1.0000 0.02850  0.33840  0.07220  Biso   1.000  H
  C73      1.0000 0.04120  0.05980  0.43810  Biso   1.000  C
  C74      1.0000 0.45880  0.94020  0.93810  Biso   1.000  C
  C75      1.0000 0.95880  0.55980  0.56190  Biso   1.000  C
  C76      1.0000 0.54120  0.44020  0.06190  Biso   1.000  C
  C77      1.0000 0.95880  0.94020  0.56190  Biso   1.000  C
  C78      1.0000 0.54120  0.05980  0.06190  Biso   1.000  C
  C79      1.0000 0.04120  0.44020  0.43810  Biso   1.000  C
  C80      1.0000 0.45880  0.55980  0.93810  Biso   1.000  C
  H57      1.0000 0.06790  0.03470  0.42420  Biso   1.000  H
  H58      1.0000 0.43210  0.96530  0.92420  Biso   1.000  H
  H59      1.0000 0.93210  0.53470  0.57580  Biso   1.000  H
  H60      1.0000 0.56790  0.46530  0.07580  Biso   1.000  H
  H61      1.0000 0.93210  0.96530  0.57580  Biso   1.000  H
  H62      1.0000 0.56790  0.03470  0.07580  Biso   1.000  H
  H63      1.0000 0.06790  0.46530  0.42420  Biso   1.000  H
  H64      1.0000 0.43210  0.53470  0.92420  Biso   1.000  H
  C81      1.0000 0.04250  0.12290  0.41140  Biso   1.000  C
  C82      1.0000 0.45750  0.87710  0.91140  Biso   1.000  C
  C83      1.0000 0.95750  0.62290  0.58860  Biso   1.000  C
  C84      1.0000 0.54250  0.37710  0.08860  Biso   1.000  C
  C85      1.0000 0.95750  0.87710  0.58860  Biso   1.000  C
  C86      1.0000 0.54250  0.12290  0.08860  Biso   1.000  C
  C87      1.0000 0.04250  0.37710  0.41140  Biso   1.000  C
  C88      1.0000 0.45750  0.62290  0.91140  Biso   1.000  C
  H65      1.0000 0.06980  0.13920  0.37730  Biso   1.000  H
  H66      1.0000 0.43020  0.86080  0.87730  Biso   1.000  H
  H67      1.0000 0.93020  0.63920  0.62270  Biso   1.000  H
  H68      1.0000 0.56980  0.36080  0.12270  Biso   1.000  H
  H69      1.0000 0.93020  0.86080  0.62270  Biso   1.000  H
  H70      1.0000 0.56980  0.13920  0.12270  Biso   1.000  H
  H71      1.0000 0.06980  0.36080  0.37730  Biso   1.000  H
  H72      1.0000 0.43020  0.63920  0.87730  Biso   1.000  H
  C89      1.0000 0.46920  0.05850  0.68840  Biso   1.000  C
  C90      1.0000 0.03080  0.94150  0.18840  Biso   1.000  C
  C91      1.0000 0.53080  0.55850  0.31160  Biso   1.000  C
  C92      1.0000 0.96920  0.44150  0.81160  Biso   1.000  C
  C93      1.0000 0.53080  0.94150  0.31160  Biso   1.000  C
  C94      1.0000 0.96920  0.05850  0.81160  Biso   1.000  C
  C95      1.0000 0.46920  0.44150  0.68840  Biso   1.000  C
  C96      1.0000 0.03080  0.55850  0.18840  Biso   1.000  C
  H73      1.0000 0.44310  0.03290  0.67150  Biso   1.000  H
  H74      1.0000 0.05690  0.96710  0.17150  Biso   1.000  H
  H75      1.0000 0.55690  0.53290  0.32850  Biso   1.000  H
  H76      1.0000 0.94310  0.46710  0.82850  Biso   1.000  H
  H77      1.0000 0.55690  0.96710  0.32850  Biso   1.000  H
  H78      1.0000 0.94310  0.03290  0.82850  Biso   1.000  H
  H79      1.0000 0.44310  0.46710  0.67150  Biso   1.000  H
  H80      1.0000 0.05690  0.53290  0.17150  Biso   1.000  H
  C97      1.0000 0.96360  0.07320  0.50310  Biso   1.000  C
  C98      1.0000 0.53640  0.92680  0.00310  Biso   1.000  C
  C99      1.0000 0.03640  0.57320  0.49690  Biso   1.000  C
  C100     1.0000 0.46360  0.42680  0.99690  Biso   1.000  C
  C101     1.0000 0.03640  0.92680  0.49690  Biso   1.000  C
  C102     1.0000 0.46360  0.07320  0.99690  Biso   1.000  C
  C103     1.0000 0.96360  0.42680  0.50310  Biso   1.000  C
  C104     1.0000 0.53640  0.57320  0.00310  Biso   1.000  C
  H81      1.0000 0.93520  0.05780  0.53350  Biso   1.000  H
  H82      1.0000 0.56480  0.94220  0.03350  Biso   1.000  H
  H83      1.0000 0.06480  0.55780  0.46650  Biso   1.000  H
  H84      1.0000 0.43520  0.44220  0.96650  Biso   1.000  H
  H85      1.0000 0.06480  0.94220  0.46650  Biso   1.000  H
  H86      1.0000 0.43520  0.05780  0.96650  Biso   1.000  H
  H87      1.0000 0.93520  0.44220  0.53350  Biso   1.000  H
  H88      1.0000 0.56480  0.55780  0.03350  Biso   1.000  H
  C105     1.0000 0.57400  0.87570  0.63900  Biso   1.000  C
  C106     1.0000 0.92600  0.12430  0.13900  Biso   1.000  C
  C107     1.0000 0.42600  0.37570  0.36100  Biso   1.000  C
  C108     1.0000 0.07400  0.62430  0.86100  Biso   1.000  C
  C109     1.0000 0.42600  0.12430  0.36100  Biso   1.000  C
  C110     1.0000 0.07400  0.87570  0.86100  Biso   1.000  C
  C111     1.0000 0.57400  0.62430  0.63900  Biso   1.000  C
  C112     1.0000 0.92600  0.37570  0.13900  Biso   1.000  C
  H89      1.0000 0.60480  0.85930  0.64370  Biso   1.000  H
  H90      1.0000 0.89520  0.14070  0.14370  Biso   1.000  H
  H91      1.0000 0.39520  0.35930  0.35630  Biso   1.000  H
  H92      1.0000 0.10480  0.64070  0.85630  Biso   1.000  H
  H93      1.0000 0.39520  0.14070  0.35630  Biso   1.000  H
  H94      1.0000 0.10480  0.85930  0.85630  Biso   1.000  H
  H95      1.0000 0.60480  0.64070  0.64370  Biso   1.000  H
  H96      1.0000 0.89520  0.35930  0.14370  Biso   1.000  H
  C113     1.0000 0.00070  0.03350  0.48530  Biso   1.000  C
  C114     1.0000 0.49930  0.96650  0.98530  Biso   1.000  C
  C115     1.0000 0.99930  0.53350  0.51470  Biso   1.000  C
  C116     1.0000 0.50070  0.46650  0.01470  Biso   1.000  C
  C117     1.0000 0.99930  0.96650  0.51470  Biso   1.000  C
  C118     1.0000 0.50070  0.03350  0.01470  Biso   1.000  C
  C119     1.0000 0.00070  0.46650  0.48530  Biso   1.000  C
  C120     1.0000 0.49930  0.53350  0.98530  Biso   1.000  C
