data_image0
_cell_length_a       16.9285
_cell_length_b       14.9877
_cell_length_c       19.0063
_cell_angle_alpha    90
_cell_angle_beta     93.066
_cell_angle_gamma    90

_symmetry_space_group_name_H-M    "P 1"
_symmetry_int_tables_number       1

loop_
  _symmetry_equiv_pos_as_xyz
  'x, y, z'

loop_
  _atom_site_label
  _atom_site_occupancy
  _atom_site_fract_x
  _atom_site_fract_y
  _atom_site_fract_z
  _atom_site_thermal_displace_type
  _atom_site_B_iso_or_equiv
  _atom_site_type_symbol
  P1       1.0000 0.77586  0.24914  0.45344  Biso   1.000  P
  P2       1.0000 0.72414  0.74914  0.04656  Biso   1.000  P
  P3       1.0000 0.22414  0.75086  0.54656  Biso   1.000  P
  P4       1.0000 0.27586  0.25086  0.95344  Biso   1.000  P
  W1       1.0000 0.87296  0.38938  0.58074  Biso   1.000  W
  W2       1.0000 0.62704  0.88938  0.91926  Biso   1.000  W
  W3       1.0000 0.12704  0.61062  0.41926  Biso   1.000  W
  W4       1.0000 0.37296  0.11062  0.08074  Biso   1.000  W
  W5       1.0000 0.76157  0.19028  0.63288  Biso   1.000  W
  W6       1.0000 0.73843  0.69028  0.86712  Biso   1.000  W
  W7       1.0000 0.23843  0.80972  0.36712  Biso   1.000  W
  W8       1.0000 0.26157  0.30972  0.13288  Biso   1.000  W
  W9       1.0000 0.65439  0.38649  0.55693  Biso   1.000  W
  W10      1.0000 0.84561  0.88649  0.94307  Biso   1.000  W
  W11      1.0000 0.34561  0.61351  0.44307  Biso   1.000  W
  W12      1.0000 0.15439  0.11351  0.05693  Biso   1.000  W
  W13      1.0000 0.87210  0.05797  0.52796  Biso   1.000  W
  W14      1.0000 0.62790  0.55797  0.97204  Biso   1.000  W
  W15      1.0000 0.12790  0.94203  0.47204  Biso   1.000  W
  W16      1.0000 0.37210  0.44203  0.02796  Biso   1.000  W
  W17      1.0000 0.66982  0.05560  0.50799  Biso   1.000  W
  W18      1.0000 0.83018  0.55560  0.99201  Biso   1.000  W
  W19      1.0000 0.33018  0.94440  0.49201  Biso   1.000  W
  W20      1.0000 0.16982  0.44440  0.00799  Biso   1.000  W
  W21      1.0000 0.56690  0.25232  0.42928  Biso   1.000  W
  W22      1.0000 0.93310  0.75232  0.07072  Biso   1.000  W
  W23      1.0000 0.43310  0.74768  0.57072  Biso   1.000  W
  W24      1.0000 0.06690  0.24768  0.92928  Biso   1.000  W
  W25      1.0000 0.66966  0.43814  0.38307  Biso   1.000  W
  W26      1.0000 0.83034  0.93814  0.11693  Biso   1.000  W
  W27      1.0000 0.33034  0.56186  0.61693  Biso   1.000  W
  W28      1.0000 0.16966  0.06186  0.88307  Biso   1.000  W
  W29      1.0000 0.88956  0.43814  0.40612  Biso   1.000  W
  W30      1.0000 0.61044  0.93814  0.09388  Biso   1.000  W
  W31      1.0000 0.11044  0.56186  0.59388  Biso   1.000  W
  W32      1.0000 0.38956  0.06186  0.90612  Biso   1.000  W
  W33      1.0000 0.98487  0.25750  0.47976  Biso   1.000  W
  W34      1.0000 0.51513  0.75750  0.02024  Biso   1.000  W
  W35      1.0000 0.01513  0.74250  0.52024  Biso   1.000  W
  W36      1.0000 0.48487  0.24250  0.97976  Biso   1.000  W
  W37      1.0000 0.89032  0.11649  0.34016  Biso   1.000  W
  W38      1.0000 0.60968  0.61649  0.15984  Biso   1.000  W
  W39      1.0000 0.10968  0.88351  0.65984  Biso   1.000  W
  W40      1.0000 0.39032  0.38351  0.84016  Biso   1.000  W
  W41      1.0000 0.78894  0.29691  0.27019  Biso   1.000  W
  W42      1.0000 0.71106  0.79691  0.22981  Biso   1.000  W
  W43      1.0000 0.21106  0.70309  0.72981  Biso   1.000  W
  W44      1.0000 0.28894  0.20309  0.77019  Biso   1.000  W
  W45      1.0000 0.68959  0.10928  0.31946  Biso   1.000  W
  W46      1.0000 0.81041  0.60928  0.18054  Biso   1.000  W
  W47      1.0000 0.31041  0.89072  0.68054  Biso   1.000  W
  W48      1.0000 0.18959  0.39072  0.81946  Biso   1.000  W
  Cu1      1.0000 0.93787  0.41533  0.77271  Biso   1.000  Cu
  Cu2      1.0000 0.56213  0.91533  0.72729  Biso   1.000  Cu
  Cu3      1.0000 0.06213  0.58467  0.22729  Biso   1.000  Cu
  Cu4      1.0000 0.43787  0.08467  0.27271  Biso   1.000  Cu
  Cu5      1.0000 0.86510  0.20330  0.82754  Biso   1.000  Cu
  Cu6      1.0000 0.63490  0.70330  0.67246  Biso   1.000  Cu
  Cu7      1.0000 0.13490  0.79670  0.17246  Biso   1.000  Cu
  Cu8      1.0000 0.36510  0.29670  0.32754  Biso   1.000  Cu
  Cu9      1.0000 0.82085  0.58484  0.70637  Biso   1.000  Cu
  Cu10     1.0000 0.67915  0.08484  0.79363  Biso   1.000  Cu
  Cu11     1.0000 0.17915  0.41516  0.29363  Biso   1.000  Cu
  Cu12     1.0000 0.32085  0.91516  0.20637  Biso   1.000  Cu
  O1       1.0000 0.90230  0.45430  0.65130  Biso   1.000  O
  O2       1.0000 0.59770  0.95430  0.84870  Biso   1.000  O
  O3       1.0000 0.09770  0.54570  0.34870  Biso   1.000  O
  O4       1.0000 0.40230  0.04570  0.15130  Biso   1.000  O
  O5       1.0000 0.75440  0.18440  0.72280  Biso   1.000  O
  O6       1.0000 0.74560  0.68440  0.77720  Biso   1.000  O
  O7       1.0000 0.24560  0.81560  0.27720  Biso   1.000  O
  O8       1.0000 0.25440  0.31560  0.22280  Biso   1.000  O
  O9       1.0000 0.61350  0.44560  0.62010  Biso   1.000  O
  O10      1.0000 0.88650  0.94560  0.87990  Biso   1.000  O
  O11      1.0000 0.38650  0.55440  0.37990  Biso   1.000  O
  O12      1.0000 0.11350  0.05440  0.12010  Biso   1.000  O
  O13      1.0000 0.93220  0.97300  0.55430  Biso   1.000  O
  O14      1.0000 0.56780  0.47300  0.94570  Biso   1.000  O
  O15      1.0000 0.06780  0.02700  0.44570  Biso   1.000  O
  O16      1.0000 0.43220  0.52700  0.05430  Biso   1.000  O
  O17      1.0000 0.60700  0.96860  0.51850  Biso   1.000  O
  O18      1.0000 0.89300  0.46860  0.98150  Biso   1.000  O
  O19      1.0000 0.39300  0.03140  0.48150  Biso   1.000  O
  O20      1.0000 0.10700  0.53140  0.01850  Biso   1.000  O
  O21      1.0000 0.46910  0.22920  0.41260  Biso   1.000  O
  O22      1.0000 0.03090  0.72920  0.08740  Biso   1.000  O
  O23      1.0000 0.53090  0.77080  0.58740  Biso   1.000  O
  O24      1.0000 0.96910  0.27080  0.91260  Biso   1.000  O
  O25      1.0000 0.63580  0.53210  0.34230  Biso   1.000  O
  O26      1.0000 0.86420  0.03210  0.15770  Biso   1.000  O
  O27      1.0000 0.36420  0.46790  0.65770  Biso   1.000  O
  O28      1.0000 0.13580  0.96790  0.84230  Biso   1.000  O
  O29      1.0000 0.92590  0.53340  0.37410  Biso   1.000  O
  O30      1.0000 0.57410  0.03340  0.12590  Biso   1.000  O
  O31      1.0000 0.07410  0.46660  0.62590  Biso   1.000  O
  O32      1.0000 0.42590  0.96660  0.87410  Biso   1.000  O
  O33      1.0000 0.08480  0.23840  0.48940  Biso   1.000  O
  O34      1.0000 0.41520  0.73840  0.01060  Biso   1.000  O
  O35      1.0000 0.91520  0.76160  0.51060  Biso   1.000  O
  O36      1.0000 0.58480  0.26160  0.98940  Biso   1.000  O
  O37      1.0000 0.95780  0.05160  0.30150  Biso   1.000  O
  O38      1.0000 0.54220  0.55160  0.19850  Biso   1.000  O
  O39      1.0000 0.04220  0.94840  0.69850  Biso   1.000  O
  O40      1.0000 0.45780  0.44840  0.80150  Biso   1.000  O
  O41      1.0000 0.79740  0.34140  0.18720  Biso   1.000  O
  O42      1.0000 0.70260  0.84140  0.31280  Biso   1.000  O
  O43      1.0000 0.20260  0.65860  0.81280  Biso   1.000  O
  O44      1.0000 0.29740  0.15860  0.68720  Biso   1.000  O
  O45      1.0000 0.63100  0.04280  0.26690  Biso   1.000  O
  O46      1.0000 0.86900  0.54280  0.23310  Biso   1.000  O
  O47      1.0000 0.36900  0.95720  0.73310  Biso   1.000  O
  O48      1.0000 0.13100  0.45720  0.76690  Biso   1.000  O
  O49      1.0000 0.83820  0.28090  0.62220  Biso   1.000  O
  O50      1.0000 0.66180  0.78090  0.87780  Biso   1.000  O
  O51      1.0000 0.16180  0.71910  0.37780  Biso   1.000  O
  O52      1.0000 0.33820  0.21910  0.12220  Biso   1.000  O
  O53      1.0000 0.76460  0.41680  0.57010  Biso   1.000  O
  O54      1.0000 0.73540  0.91680  0.92990  Biso   1.000  O
  O55      1.0000 0.23540  0.58320  0.42990  Biso   1.000  O
  O56      1.0000 0.26460  0.08320  0.07010  Biso   1.000  O
  O57      1.0000 0.68630  0.27830  0.60540  Biso   1.000  O
  O58      1.0000 0.81370  0.77830  0.89460  Biso   1.000  O
  O59      1.0000 0.31370  0.72170  0.39460  Biso   1.000  O
  O60      1.0000 0.18630  0.22170  0.10540  Biso   1.000  O
  O61      1.0000 0.89440  0.46690  0.50560  Biso   1.000  O
  O62      1.0000 0.60560  0.96690  0.99440  Biso   1.000  O
  O63      1.0000 0.10560  0.53310  0.49440  Biso   1.000  O
  O64      1.0000 0.39440  0.03310  0.00560  Biso   1.000  O
  O65      1.0000 0.64790  0.46650  0.47850  Biso   1.000  O
  O66      1.0000 0.85210  0.96650  0.02150  Biso   1.000  O
  O67      1.0000 0.35210  0.53350  0.52150  Biso   1.000  O
  O68      1.0000 0.14790  0.03350  0.97850  Biso   1.000  O
  O69      1.0000 0.56720  0.32420  0.51490  Biso   1.000  O
  O70      1.0000 0.93280  0.82420  0.98510  Biso   1.000  O
  O71      1.0000 0.43280  0.67580  0.48510  Biso   1.000  O
  O72      1.0000 0.06720  0.17580  0.01490  Biso   1.000  O
  O73      1.0000 0.68460  0.10120  0.60110  Biso   1.000  O
  O74      1.0000 0.81540  0.60120  0.89890  Biso   1.000  O
  O75      1.0000 0.31540  0.89880  0.39890  Biso   1.000  O
  O76      1.0000 0.18460  0.39880  0.10110  Biso   1.000  O
  O77      1.0000 0.84200  0.10290  0.61710  Biso   1.000  O
  O78      1.0000 0.65800  0.60290  0.88290  Biso   1.000  O
  O79      1.0000 0.15800  0.89710  0.38290  Biso   1.000  O
  O80      1.0000 0.34200  0.39710  0.11710  Biso   1.000  O
  O81      1.0000 0.96830  0.32760  0.56170  Biso   1.000  O
  O82      1.0000 0.53170  0.82760  0.93830  Biso   1.000  O
  O83      1.0000 0.03170  0.67240  0.43830  Biso   1.000  O
  O84      1.0000 0.46830  0.17240  0.06170  Biso   1.000  O
  O85      1.0000 0.94330  0.15850  0.52630  Biso   1.000  O
  O86      1.0000 0.55670  0.65850  0.97370  Biso   1.000  O
  O87      1.0000 0.05670  0.84150  0.47370  Biso   1.000  O
  O88      1.0000 0.44330  0.34150  0.02630  Biso   1.000  O
  O89      1.0000 0.98230  0.36730  0.42760  Biso   1.000  O
  O90      1.0000 0.51770  0.86730  0.07240  Biso   1.000  O
  O91      1.0000 0.01770  0.63270  0.57240  Biso   1.000  O
  O92      1.0000 0.48230  0.13270  0.92760  Biso   1.000  O
  O93      1.0000 0.77890  0.46600  0.40550  Biso   1.000  O
  O94      1.0000 0.72110  0.96600  0.09450  Biso   1.000  O
  O95      1.0000 0.22110  0.53400  0.59450  Biso   1.000  O
  O96      1.0000 0.27890  0.03400  0.90550  Biso   1.000  O
  O97      1.0000 0.57840  0.36320  0.37980  Biso   1.000  O
  O98      1.0000 0.92160  0.86320  0.12020  Biso   1.000  O
  O99      1.0000 0.42160  0.63680  0.62020  Biso   1.000  O
  O100     1.0000 0.07840  0.13680  0.87980  Biso   1.000  O
  O101     1.0000 0.59940  0.15420  0.48560  Biso   1.000  O
  O102     1.0000 0.90060  0.65420  0.01440  Biso   1.000  O
  O103     1.0000 0.40060  0.84580  0.51440  Biso   1.000  O
  O104     1.0000 0.09940  0.34580  0.98560  Biso   1.000  O
  O105     1.0000 0.77180  0.99960  0.52100  Biso   1.000  O
  O106     1.0000 0.72820  0.49960  0.97900  Biso   1.000  O
  O107     1.0000 0.22820  0.00040  0.47900  Biso   1.000  O
  O108     1.0000 0.27180  0.50040  0.02100  Biso   1.000  O
  O109     1.0000 0.95470  0.19770  0.39450  Biso   1.000  O
  O110     1.0000 0.54530  0.69770  0.10550  Biso   1.000  O
  O111     1.0000 0.04530  0.80230  0.60550  Biso   1.000  O
  O112     1.0000 0.45470  0.30230  0.89450  Biso   1.000  O
  O113     1.0000 0.86320  0.36730  0.32610  Biso   1.000  O
  O114     1.0000 0.63680  0.86730  0.17390  Biso   1.000  O
  O115     1.0000 0.13680  0.63270  0.67390  Biso   1.000  O
  O116     1.0000 0.36320  0.13270  0.82610  Biso   1.000  O
  O117     1.0000 0.70910  0.36870  0.30870  Biso   1.000  O
  O118     1.0000 0.79090  0.86870  0.19130  Biso   1.000  O
  O119     1.0000 0.29090  0.63130  0.69130  Biso   1.000  O
  O120     1.0000 0.20910  0.13130  0.80870  Biso   1.000  O
  O121     1.0000 0.61370  0.19350  0.35500  Biso   1.000  O
  O122     1.0000 0.88630  0.69350  0.14500  Biso   1.000  O
  O123     1.0000 0.38630  0.80650  0.64500  Biso   1.000  O
  O124     1.0000 0.11370  0.30650  0.85500  Biso   1.000  O
  O125     1.0000 0.68420  0.05280  0.40890  Biso   1.000  O
  O126     1.0000 0.81580  0.55280  0.09110  Biso   1.000  O
  O127     1.0000 0.31580  0.94720  0.59110  Biso   1.000  O
  O128     1.0000 0.18420  0.44720  0.90890  Biso   1.000  O
  O129     1.0000 0.87520  0.05760  0.42810  Biso   1.000  O
  O130     1.0000 0.62480  0.55760  0.07190  Biso   1.000  O
  O131     1.0000 0.12480  0.94240  0.57190  Biso   1.000  O
  O132     1.0000 0.37520  0.44240  0.92810  Biso   1.000  O
  O133     1.0000 0.86940  0.20630  0.26950  Biso   1.000  O
  O134     1.0000 0.63060  0.70630  0.23050  Biso   1.000  O
  O135     1.0000 0.13060  0.79370  0.73050  Biso   1.000  O
  O136     1.0000 0.36940  0.29370  0.76950  Biso   1.000  O
  O137     1.0000 0.71480  0.20170  0.25280  Biso   1.000  O
  O138     1.0000 0.78520  0.70170  0.24720  Biso   1.000  O
  O139     1.0000 0.28520  0.79830  0.74720  Biso   1.000  O
  O140     1.0000 0.21480  0.29830  0.75280  Biso   1.000  O
  O141     1.0000 0.79090  0.06180  0.30800  Biso   1.000  O
  O142     1.0000 0.70910  0.56180  0.19200  Biso   1.000  O
  O143     1.0000 0.20910  0.93820  0.69200  Biso   1.000  O
  O144     1.0000 0.29090  0.43820  0.80800  Biso   1.000  O
  O145     1.0000 0.84880  0.30660  0.47140  Biso   1.000  O
  O146     1.0000 0.65120  0.80660  0.02860  Biso   1.000  O
  O147     1.0000 0.15120  0.69340  0.52860  Biso   1.000  O
  O148     1.0000 0.34880  0.19340  0.97140  Biso   1.000  O
  O149     1.0000 0.70040  0.30510  0.45450  Biso   1.000  O
  O150     1.0000 0.79960  0.80510  0.04550  Biso   1.000  O
  O151     1.0000 0.29960  0.69490  0.54550  Biso   1.000  O
  O152     1.0000 0.20040  0.19490  0.95450  Biso   1.000  O
  O153     1.0000 0.77160  0.17360  0.50670  Biso   1.000  O
  O154     1.0000 0.72840  0.67360  0.99330  Biso   1.000  O
  O155     1.0000 0.22840  0.82640  0.49330  Biso   1.000  O
  O156     1.0000 0.27160  0.32640  0.00670  Biso   1.000  O
  O157     1.0000 0.78350  0.21030  0.38000  Biso   1.000  O
  O158     1.0000 0.71650  0.71030  0.12000  Biso   1.000  O
  O159     1.0000 0.21650  0.78970  0.62000  Biso   1.000  O
  O160     1.0000 0.28350  0.28970  0.88000  Biso   1.000  O
  N1       1.0000 0.97600  0.29920  0.74580  Biso   1.000  N
  N2       1.0000 0.52400  0.79920  0.75420  Biso   1.000  N
  N3       1.0000 0.02400  0.70080  0.25420  Biso   1.000  N
  N4       1.0000 0.47600  0.20080  0.24580  Biso   1.000  N
  N5       1.0000 0.94310  0.21870  0.76140  Biso   1.000  N
  N6       1.0000 0.55690  0.71870  0.73860  Biso   1.000  N
  N7       1.0000 0.05690  0.78130  0.23860  Biso   1.000  N
  N8       1.0000 0.44310  0.28130  0.26140  Biso   1.000  N
  N9       1.0000 0.97890  0.15370  0.73130  Biso   1.000  N
  N10      1.0000 0.52110  0.65370  0.76870  Biso   1.000  N
  N11      1.0000 0.02110  0.84630  0.26870  Biso   1.000  N
  N12      1.0000 0.47890  0.34630  0.23130  Biso   1.000  N
  N13      1.0000 0.03490  0.19370  0.69340  Biso   1.000  N
  N14      1.0000 0.46510  0.69370  0.80660  Biso   1.000  N
  N15      1.0000 0.96510  0.80630  0.30660  Biso   1.000  N
  N16      1.0000 0.53490  0.30630  0.19340  Biso   1.000  N
  N17      1.0000 0.81370  0.41350  0.78600  Biso   1.000  N
  N18      1.0000 0.68630  0.91350  0.71400  Biso   1.000  N
  N19      1.0000 0.18630  0.58650  0.21400  Biso   1.000  N
  N20      1.0000 0.31370  0.08650  0.28600  Biso   1.000  N
  N21      1.0000 0.76840  0.47900  0.75480  Biso   1.000  N
  N22      1.0000 0.73160  0.97900  0.74520  Biso   1.000  N
  N23      1.0000 0.23160  0.52100  0.24520  Biso   1.000  N
  N24      1.0000 0.26840  0.02100  0.25480  Biso   1.000  N
  N25      1.0000 0.69450  0.45870  0.76810  Biso   1.000  N
  N26      1.0000 0.80550  0.95870  0.73190  Biso   1.000  N
  N27      1.0000 0.30550  0.54130  0.23190  Biso   1.000  N
  N28      1.0000 0.19450  0.04130  0.26810  Biso   1.000  N
  N29      1.0000 0.69570  0.38440  0.80490  Biso   1.000  N
  N30      1.0000 0.80430  0.88440  0.69510  Biso   1.000  N
  N31      1.0000 0.30430  0.61560  0.19510  Biso   1.000  N
  N32      1.0000 0.19570  0.11560  0.30490  Biso   1.000  N
  N33      1.0000 0.70460  0.66660  0.60380  Biso   1.000  N
  N34      1.0000 0.79540  0.16660  0.89620  Biso   1.000  N
  N35      1.0000 0.29540  0.33340  0.39620  Biso   1.000  N
  N36      1.0000 0.20460  0.83340  0.10380  Biso   1.000  N
  N37      1.0000 0.77930  0.62960  0.61520  Biso   1.000  N
  N38      1.0000 0.72070  0.12960  0.88480  Biso   1.000  N
  N39      1.0000 0.22070  0.37040  0.38480  Biso   1.000  N
  N40      1.0000 0.27930  0.87040  0.11520  Biso   1.000  N
  N41      1.0000 0.80850  0.62840  0.55090  Biso   1.000  N
  N42      1.0000 0.69150  0.12840  0.94910  Biso   1.000  N
  N43      1.0000 0.19150  0.37160  0.44910  Biso   1.000  N
  N44      1.0000 0.30850  0.87160  0.05090  Biso   1.000  N
  N45      1.0000 0.75660  0.66450  0.50440  Biso   1.000  N
  N46      1.0000 0.74340  0.16450  0.99560  Biso   1.000  N
  N47      1.0000 0.24340  0.33550  0.49560  Biso   1.000  N
  N48      1.0000 0.25660  0.83550  0.00440  Biso   1.000  N
  N49      1.0000 0.92230  0.60400  0.76720  Biso   1.000  N
  N50      1.0000 0.57770  0.10400  0.73280  Biso   1.000  N
  N51      1.0000 0.07770  0.39600  0.23280  Biso   1.000  N
  N52      1.0000 0.42230  0.89600  0.26720  Biso   1.000  N
  N53      1.0000 0.96380  0.53780  0.79700  Biso   1.000  N
  N54      1.0000 0.53620  0.03780  0.70300  Biso   1.000  N
  N55      1.0000 0.03620  0.46220  0.20300  Biso   1.000  N
  N56      1.0000 0.46380  0.96220  0.29700  Biso   1.000  N
  N57      1.0000 0.01510  0.57690  0.84500  Biso   1.000  N
  N58      1.0000 0.48490  0.07690  0.65500  Biso   1.000  N
  N59      1.0000 0.98490  0.42310  0.15500  Biso   1.000  N
  N60      1.0000 0.51510  0.92310  0.34500  Biso   1.000  N
  N61      1.0000 0.00320  0.66630  0.83860  Biso   1.000  N
  N62      1.0000 0.49680  0.16630  0.66140  Biso   1.000  N
  N63      1.0000 0.99680  0.33370  0.16140  Biso   1.000  N
  N64      1.0000 0.50320  0.83370  0.33860  Biso   1.000  N
  C1       1.0000 0.03440  0.28070  0.70420  Biso   1.000  C
  C2       1.0000 0.46560  0.78070  0.79580  Biso   1.000  C
  C3       1.0000 0.96560  0.71930  0.29580  Biso   1.000  C
  C4       1.0000 0.53440  0.21930  0.20420  Biso   1.000  C
  H1       1.0000 0.06900  0.32180  0.68600  Biso   1.000  H
  H2       1.0000 0.43100  0.82180  0.81400  Biso   1.000  H
  H3       1.0000 0.93100  0.67820  0.31400  Biso   1.000  H
  H4       1.0000 0.56900  0.17820  0.18600  Biso   1.000  H
  C5       1.0000 0.08880  0.14250  0.65250  Biso   1.000  C
  C6       1.0000 0.41120  0.64250  0.84750  Biso   1.000  C
  C7       1.0000 0.91120  0.85750  0.34750  Biso   1.000  C
  C8       1.0000 0.58880  0.35750  0.15250  Biso   1.000  C
  H5       1.0000 0.12370  0.18240  0.62960  Biso   1.000  H
  H6       1.0000 0.37630  0.68240  0.87040  Biso   1.000  H
  H7       1.0000 0.87630  0.81760  0.37040  Biso   1.000  H
  H8       1.0000 0.62370  0.31760  0.12960  Biso   1.000  H
  H9       1.0000 0.05920  0.10810  0.61760  Biso   1.000  H
  H10      1.0000 0.44080  0.60810  0.88240  Biso   1.000  H
  H11      1.0000 0.94080  0.89190  0.38240  Biso   1.000  H
  H12      1.0000 0.55920  0.39190  0.11760  Biso   1.000  H
  H13      1.0000 0.11940  0.10320  0.68310  Biso   1.000  H
  H14      1.0000 0.38060  0.60320  0.81690  Biso   1.000  H
  H15      1.0000 0.88060  0.89680  0.31690  Biso   1.000  H
  H16      1.0000 0.61940  0.39680  0.18310  Biso   1.000  H
  C9       1.0000 0.77230  0.35750  0.81450  Biso   1.000  C
  C10      1.0000 0.72770  0.85750  0.68550  Biso   1.000  C
  C11      1.0000 0.22770  0.64250  0.18550  Biso   1.000  C
  C12      1.0000 0.27230  0.14250  0.31450  Biso   1.000  C
  H17      1.0000 0.79020  0.30640  0.83820  Biso   1.000  H
  H18      1.0000 0.70980  0.80640  0.66180  Biso   1.000  H
  H19      1.0000 0.20980  0.69360  0.16180  Biso   1.000  H
  H20      1.0000 0.29020  0.19360  0.33820  Biso   1.000  H
  C13      1.0000 0.63220  0.33550  0.83450  Biso   1.000  C
  C14      1.0000 0.86780  0.83550  0.66550  Biso   1.000  C
  C15      1.0000 0.36780  0.66450  0.16550  Biso   1.000  C
  C16      1.0000 0.13220  0.16450  0.33450  Biso   1.000  C
  H21      1.0000 0.58280  0.36450  0.82220  Biso   1.000  H
  H22      1.0000 0.91720  0.86450  0.67780  Biso   1.000  H
  H23      1.0000 0.41720  0.63550  0.17780  Biso   1.000  H
  H24      1.0000 0.08280  0.13550  0.32220  Biso   1.000  H
  H25      1.0000 0.64030  0.33360  0.88480  Biso   1.000  H
  H26      1.0000 0.85970  0.83360  0.61520  Biso   1.000  H
  H27      1.0000 0.35970  0.66640  0.11520  Biso   1.000  H
  H28      1.0000 0.14030  0.16640  0.38480  Biso   1.000  H
  H29      1.0000 0.63100  0.27580  0.81610  Biso   1.000  H
  H30      1.0000 0.86900  0.77580  0.68390  Biso   1.000  H
  H31      1.0000 0.36900  0.72420  0.18390  Biso   1.000  H
  H32      1.0000 0.13100  0.22420  0.31610  Biso   1.000  H
  C17      1.0000 0.69280  0.68840  0.53730  Biso   1.000  C
  C18      1.0000 0.80720  0.18840  0.96270  Biso   1.000  C
  C19      1.0000 0.30720  0.31160  0.46270  Biso   1.000  C
  C20      1.0000 0.19280  0.81160  0.03730  Biso   1.000  C
  H33      1.0000 0.64780  0.71560  0.51680  Biso   1.000  H
  H34      1.0000 0.85220  0.21560  0.98320  Biso   1.000  H
  H35      1.0000 0.35220  0.28440  0.48320  Biso   1.000  H
  H36      1.0000 0.14780  0.78440  0.01680  Biso   1.000  H
  C21      1.0000 0.76390  0.67910  0.43000  Biso   1.000  C
  C22      1.0000 0.73610  0.17910  0.07000  Biso   1.000  C
  C23      1.0000 0.23610  0.32090  0.57000  Biso   1.000  C
  C24      1.0000 0.26390  0.82090  0.93000  Biso   1.000  C
  H37      1.0000 0.71640  0.70640  0.41030  Biso   1.000  H
  H38      1.0000 0.78360  0.20640  0.08970  Biso   1.000  H
  H39      1.0000 0.28360  0.29360  0.58970  Biso   1.000  H
  H40      1.0000 0.21640  0.79360  0.91030  Biso   1.000  H
  H41      1.0000 0.77190  0.62290  0.40710  Biso   1.000  H
  H42      1.0000 0.72810  0.12290  0.09290  Biso   1.000  H
  H43      1.0000 0.22810  0.37710  0.59290  Biso   1.000  H
  H44      1.0000 0.27190  0.87710  0.90710  Biso   1.000  H
  H45      1.0000 0.80810  0.71750  0.42310  Biso   1.000  H
  H46      1.0000 0.69190  0.21750  0.07690  Biso   1.000  H
  H47      1.0000 0.19190  0.28250  0.57690  Biso   1.000  H
  H48      1.0000 0.30810  0.78250  0.92310  Biso   1.000  H
  C25      1.0000 0.94560  0.68360  0.79060  Biso   1.000  C
  C26      1.0000 0.55440  0.18360  0.70940  Biso   1.000  C
  C27      1.0000 0.05440  0.31640  0.20940  Biso   1.000  C
  C28      1.0000 0.44560  0.81640  0.29060  Biso   1.000  C
  H49      1.0000 0.92590  0.73910  0.77640  Biso   1.000  H
  H50      1.0000 0.57410  0.23910  0.72360  Biso   1.000  H
  H51      1.0000 0.07410  0.26090  0.22360  Biso   1.000  H
  H52      1.0000 0.42590  0.76090  0.27640  Biso   1.000  H
  C29      1.0000 0.04810  0.73900  0.87650  Biso   1.000  C
  C30      1.0000 0.45190  0.23900  0.62350  Biso   1.000  C
  C31      1.0000 0.95190  0.26100  0.12350  Biso   1.000  C
  C32      1.0000 0.54810  0.76100  0.37650  Biso   1.000  C
  H53      1.0000 0.02680  0.79580  0.86170  Biso   1.000  H
  H54      1.0000 0.47320  0.29580  0.63830  Biso   1.000  H
  H55      1.0000 0.97320  0.20420  0.13830  Biso   1.000  H
  H56      1.0000 0.52680  0.70420  0.36170  Biso   1.000  H
  H57      1.0000 0.10280  0.73580  0.86580  Biso   1.000  H
  H58      1.0000 0.39720  0.23580  0.63420  Biso   1.000  H
  H59      1.0000 0.89720  0.26420  0.13420  Biso   1.000  H
  H60      1.0000 0.60280  0.76420  0.36580  Biso   1.000  H
  H61      1.0000 0.04350  0.73230  0.92630  Biso   1.000  H
  H62      1.0000 0.45650  0.23230  0.57370  Biso   1.000  H
  H63      1.0000 0.95650  0.26770  0.07370  Biso   1.000  H
  H64      1.0000 0.54350  0.76770  0.42630  Biso   1.000  H
  W49      1.0000 0.86000  0.44930  0.39990  Biso   1.000  W
  W50      1.0000 0.64000  0.94930  0.10010  Biso   1.000  W
  W51      1.0000 0.14000  0.55070  0.60010  Biso   1.000  W
  W52      1.0000 0.36000  0.05070  0.89990  Biso   1.000  W
