data_image0
_cell_length_a       12.09
_cell_length_b       9.971
_cell_length_c       4.132
_cell_angle_alpha    90
_cell_angle_beta     98.5
_cell_angle_gamma    90

_symmetry_space_group_name_H-M    "P 1"
_symmetry_int_tables_number       1

loop_
  _symmetry_equiv_pos_as_xyz
  'x, y, z'

loop_
  _atom_site_label
  _atom_site_occupancy
  _atom_site_fract_x
  _atom_site_fract_y
  _atom_site_fract_z
  _atom_site_thermal_displace_type
  _atom_site_B_iso_or_equiv
  _atom_site_type_symbol
  I1       1.0000 0.20740  0.25190  0.99760  Biso   1.000  I
  I2       1.0000 0.79260  0.75190  0.00240  Biso   1.000  I
  Cu1      1.0000 0.21610  0.40090  0.49540  Biso   1.000  Cu
  Cu2      1.0000 0.78390  0.90090  0.50460  Biso   1.000  Cu
  N1       1.0000 0.21000  0.60400  0.51600  Biso   1.000  N
  N2       1.0000 0.79000  0.10400  0.48400  Biso   1.000  N
  C1       1.0000 0.12600  0.66100  0.62300  Biso   1.000  C
  C2       1.0000 0.87400  0.16100  0.37700  Biso   1.000  C
  N3       1.0000 0.04400  0.57600  0.72400  Biso   1.000  N
  N4       1.0000 0.95600  0.07600  0.27600  Biso   1.000  N
  C3       1.0000 0.11600  0.80400  0.62700  Biso   1.000  C
  C4       1.0000 0.88400  0.30400  0.37300  Biso   1.000  C
  C5       1.0000 0.20000  0.88900  0.52800  Biso   1.000  C
  C6       1.0000 0.80000  0.38900  0.47200  Biso   1.000  C
  C7       1.0000 0.29400  0.81700  0.41300  Biso   1.000  C
  C8       1.0000 0.70600  0.31700  0.58700  Biso   1.000  C
  C9       1.0000 0.38200  0.88500  0.31300  Biso   1.000  C
  C10      1.0000 0.61800  0.38500  0.68700  Biso   1.000  C
  C11      1.0000 0.46800  0.82200  0.21900  Biso   1.000  C
  C12      1.0000 0.53200  0.32200  0.78100  Biso   1.000  C
  C13      1.0000 0.46900  0.68300  0.20100  Biso   1.000  C
  C14      1.0000 0.53100  0.18300  0.79900  Biso   1.000  C
  C15      1.0000 0.38300  0.60900  0.31600  Biso   1.000  C
  C16      1.0000 0.61700  0.10900  0.68400  Biso   1.000  C
  C17      1.0000 0.29400  0.67600  0.41700  Biso   1.000  C
  C18      1.0000 0.70600  0.17600  0.58300  Biso   1.000  C
  H1       1.0000 0.98100  0.61500  0.80200  Biso   1.000  H
  H2       1.0000 0.01900  0.11500  0.19800  Biso   1.000  H
  H3       1.0000 0.05300  0.48100  0.71600  Biso   1.000  H
  H4       1.0000 0.94700  0.98100  0.28400  Biso   1.000  H
  H5       1.0000 0.05200  0.84700  0.69800  Biso   1.000  H
  H6       1.0000 0.94800  0.34700  0.30200  Biso   1.000  H
  H7       1.0000 0.19600  0.98900  0.52900  Biso   1.000  H
  H8       1.0000 0.80400  0.48900  0.47100  Biso   1.000  H
  H9       1.0000 0.38200  0.98200  0.31300  Biso   1.000  H
  H10      1.0000 0.61800  0.48200  0.68700  Biso   1.000  H
  H11      1.0000 0.52900  0.87300  0.15900  Biso   1.000  H
  H12      1.0000 0.47100  0.37300  0.84100  Biso   1.000  H
  H13      1.0000 0.53000  0.63600  0.10500  Biso   1.000  H
  H14      1.0000 0.47000  0.13600  0.89500  Biso   1.000  H
  H15      1.0000 0.38700  0.50800  0.32500  Biso   1.000  H
  H16      1.0000 0.61300  0.00800  0.67500  Biso   1.000  H
