data_image0
_cell_length_a       7.487
_cell_length_b       3.771
_cell_length_c       15.506
_cell_angle_alpha    90
_cell_angle_beta     95.07
_cell_angle_gamma    90

_symmetry_space_group_name_H-M    "P 1"
_symmetry_int_tables_number       1

loop_
  _symmetry_equiv_pos_as_xyz
  'x, y, z'

loop_
  _atom_site_label
  _atom_site_occupancy
  _atom_site_fract_x
  _atom_site_fract_y
  _atom_site_fract_z
  _atom_site_thermal_displace_type
  _atom_site_B_iso_or_equiv
  _atom_site_type_symbol
  Cl1      1.0000 0.63490  0.49400  0.43160  Biso   1.000  Cl
  Cl2      1.0000 0.36510  0.99400  0.56840  Biso   1.000  Cl
  Cu1      1.0000 0.44430  0.00000  0.40855  Biso   1.000  Cu
  Cu2      1.0000 0.55570  0.50000  0.59145  Biso   1.000  Cu
  N1       1.0000 0.24690  0.97500  0.31510  Biso   1.000  N
  N2       1.0000 0.75310  0.47500  0.68490  Biso   1.000  N
  C1       1.0000 0.08630  0.87000  0.33100  Biso   1.000  C
  C2       1.0000 0.91370  0.37000  0.66900  Biso   1.000  C
  N3       1.0000 0.05800  0.75000  0.41020  Biso   1.000  N
  N4       1.0000 0.94200  0.25000  0.58980  Biso   1.000  N
  C3       1.0000 0.93880  0.84800  0.26600  Biso   1.000  C
  C4       1.0000 0.06120  0.34800  0.73400  Biso   1.000  C
  C5       1.0000 0.96630  0.95100  0.18560  Biso   1.000  C
  C6       1.0000 0.03370  0.45100  0.81440  Biso   1.000  C
  C7       1.0000 0.13670  0.08600  0.16500  Biso   1.000  C
  C8       1.0000 0.86330  0.58600  0.83500  Biso   1.000  C
  C9       1.0000 0.17330  0.20100  0.08190  Biso   1.000  C
  C10      1.0000 0.82670  0.70100  0.91810  Biso   1.000  C
  C11      1.0000 0.34080  0.31600  0.06710  Biso   1.000  C
  C12      1.0000 0.65920  0.81600  0.93290  Biso   1.000  C
  C13      1.0000 0.47590  0.32700  0.13310  Biso   1.000  C
  C14      1.0000 0.52410  0.82700  0.86690  Biso   1.000  C
  C15      1.0000 0.44660  0.22100  0.21470  Biso   1.000  C
  C16      1.0000 0.55340  0.72100  0.78530  Biso   1.000  C
  C17      1.0000 0.27530  0.09200  0.23230  Biso   1.000  C
  C18      1.0000 0.72470  0.59200  0.76770  Biso   1.000  C
  H1       1.0000 0.16200  0.80700  0.45700  Biso   1.000  H
  H2       1.0000 0.83800  0.30700  0.54300  Biso   1.000  H
  H3       1.0000 0.92800  0.64800  0.40300  Biso   1.000  H
  H4       1.0000 0.07200  0.14800  0.59700  Biso   1.000  H
  H5       1.0000 0.82500  0.74700  0.27700  Biso   1.000  H
  H6       1.0000 0.17500  0.24700  0.72300  Biso   1.000  H
  H7       1.0000 0.86500  0.05900  0.14400  Biso   1.000  H
  H8       1.0000 0.13500  0.55900  0.85600  Biso   1.000  H
  H9       1.0000 0.07700  0.22600  0.03500  Biso   1.000  H
  H10      1.0000 0.92300  0.72600  0.96500  Biso   1.000  H
  H11      1.0000 0.36400  0.41000  0.00900  Biso   1.000  H
  H12      1.0000 0.63600  0.91000  0.99100  Biso   1.000  H
  H13      1.0000 0.59500  0.42700  0.12300  Biso   1.000  H
  H14      1.0000 0.40500  0.92700  0.87700  Biso   1.000  H
  H15      1.0000 0.54500  0.22900  0.25900  Biso   1.000  H
  H16      1.0000 0.45500  0.72900  0.74100  Biso   1.000  H
