data_image0
_cell_length_a       6.849
_cell_length_b       7.78
_cell_length_c       13.726
_cell_angle_alpha    73.765
_cell_angle_beta     84.77
_cell_angle_gamma    80.681

_symmetry_space_group_name_H-M    "P 1"
_symmetry_int_tables_number       1

loop_
  _symmetry_equiv_pos_as_xyz
  'x, y, z'

loop_
  _atom_site_label
  _atom_site_occupancy
  _atom_site_fract_x
  _atom_site_fract_y
  _atom_site_fract_z
  _atom_site_thermal_displace_type
  _atom_site_B_iso_or_equiv
  _atom_site_type_symbol
  Fe1      1.0000 0.00000  0.00000  0.00000  Biso   1.000  Fe
  Cu1      1.0000 0.43163  0.39568  0.08271  Biso   1.000  Cu
  Cu2      1.0000 0.56837  0.60432  0.91729  Biso   1.000  Cu
  N1       1.0000 0.80040  0.21710  0.97440  Biso   1.000  N
  N2       1.0000 0.19960  0.78290  0.02560  Biso   1.000  N
  C1       1.0000 0.75710  0.21370  0.35900  Biso   1.000  C
  C2       1.0000 0.24290  0.78630  0.64100  Biso   1.000  C
  N3       1.0000 0.17310  0.12890  0.05190  Biso   1.000  N
  N4       1.0000 0.82690  0.87110  0.94810  Biso   1.000  N
  N5       1.0000 0.88060  0.90770  0.14100  Biso   1.000  N
  N6       1.0000 0.11940  0.09230  0.85900  Biso   1.000  N
  N7       1.0000 0.63500  0.35460  0.19280  Biso   1.000  N
  N8       1.0000 0.36500  0.64540  0.80720  Biso   1.000  N
  C3       1.0000 0.61110  0.25130  0.28870  Biso   1.000  C
  C4       1.0000 0.38890  0.74870  0.71130  Biso   1.000  C
  H1       1.0000 0.49320  0.20350  0.30850  Biso   1.000  H
  H2       1.0000 0.50680  0.79650  0.69150  Biso   1.000  H
  C5       1.0000 0.95540  0.39310  0.23240  Biso   1.000  C
  C6       1.0000 0.04460  0.60690  0.76760  Biso   1.000  C
  H3       1.0000 0.07110  0.44380  0.21050  Biso   1.000  H
  H4       1.0000 0.92890  0.55620  0.78950  Biso   1.000  H
  C7       1.0000 0.68620  0.90190  0.16140  Biso   1.000  C
  C8       1.0000 0.31380  0.09810  0.83860  Biso   1.000  C
  H5       1.0000 0.59990  0.94950  0.10880  Biso   1.000  H
  H6       1.0000 0.40010  0.05050  0.89120  Biso   1.000  H
  C9       1.0000 0.93330  0.28610  0.32990  Biso   1.000  C
  C10      1.0000 0.06670  0.71390  0.67010  Biso   1.000  C
  H7       1.0000 0.03340  0.26270  0.37530  Biso   1.000  H
  H8       1.0000 0.96660  0.73730  0.62470  Biso   1.000  H
  C11      1.0000 0.68950  0.34830  0.96120  Biso   1.000  C
  C12      1.0000 0.31050  0.65170  0.03880  Biso   1.000  C
  C13      1.0000 0.93530  0.75510  0.31510  Biso   1.000  C
  C14      1.0000 0.06470  0.24490  0.68490  Biso   1.000  C
  C15      1.0000 0.00280  0.83660  0.21780  Biso   1.000  C
  C16      1.0000 0.99720  0.16340  0.78220  Biso   1.000  C
  H9       1.0000 0.13760  0.84250  0.20500  Biso   1.000  H
  H10      1.0000 0.86240  0.15750  0.79500  Biso   1.000  H
  C17      1.0000 0.80430  0.42420  0.16760  Biso   1.000  C
  C18      1.0000 0.19570  0.57580  0.83240  Biso   1.000  C
  H11      1.0000 0.82090  0.49830  0.10220  Biso   1.000  H
  H12      1.0000 0.17910  0.50170  0.89780  Biso   1.000  H
  N9       1.0000 0.20490  0.58990  0.44240  Biso   1.000  N
  N10      1.0000 0.79510  0.41010  0.55760  Biso   1.000  N
  C19      1.0000 0.73340  0.74830  0.33730  Biso   1.000  C
  C20      1.0000 0.26660  0.25170  0.66270  Biso   1.000  C
  H13      1.0000 0.68480  0.69320  0.40210  Biso   1.000  H
  H14      1.0000 0.31520  0.30680  0.59790  Biso   1.000  H
  C21      1.0000 0.60960  0.82730  0.25820  Biso   1.000  C
  C22      1.0000 0.39040  0.17270  0.74180  Biso   1.000  C
  H15      1.0000 0.47340  0.83060  0.27000  Biso   1.000  H
  H16      1.0000 0.52660  0.16940  0.73000  Biso   1.000  H
  C23      1.0000 0.72860  0.09830  0.45960  Biso   1.000  C
  C24      1.0000 0.27140  0.90170  0.54040  Biso   1.000  C
  C25      1.0000 0.08140  0.66480  0.38840  Biso   1.000  C
  C26      1.0000 0.91860  0.33520  0.61160  Biso   1.000  C
  N11      1.0000 0.71060  0.00440  0.53970  Biso   1.000  N
  N12      1.0000 0.28940  0.99560  0.46030  Biso   1.000  N
  C27      1.0000 0.27390  0.21660  0.07410  Biso   1.000  C
  C28      1.0000 0.72610  0.78340  0.92590  Biso   1.000  C
