data_image0
_cell_length_a       6.926
_cell_length_b       8.061
_cell_length_c       13.969
_cell_angle_alpha    73.533
_cell_angle_beta     89.662
_cell_angle_gamma    81.12

_symmetry_space_group_name_H-M    "P 1"
_symmetry_int_tables_number       1

loop_
  _symmetry_equiv_pos_as_xyz
  'x, y, z'

loop_
  _atom_site_label
  _atom_site_occupancy
  _atom_site_fract_x
  _atom_site_fract_y
  _atom_site_fract_z
  _atom_site_thermal_displace_type
  _atom_site_B_iso_or_equiv
  _atom_site_type_symbol
  Cu1      1.0000 0.56551  0.52212  0.08319  Biso   1.000  Cu
  Cu2      1.0000 0.43449  0.47788  0.91681  Biso   1.000  Cu
  Fe1      1.0000 0.00000  0.00000  0.00000  Biso   1.000  Fe
  N1       1.0000 0.81600  0.81080  0.06160  Biso   1.000  N
  N2       1.0000 0.18400  0.18920  0.93840  Biso   1.000  N
  N3       1.0000 0.78390  0.19780  0.03330  Biso   1.000  N
  N4       1.0000 0.21610  0.80220  0.96670  Biso   1.000  N
  C1       1.0000 0.72110  0.70350  0.07880  Biso   1.000  C
  C2       1.0000 0.27890  0.29650  0.92120  Biso   1.000  C
  N5       1.0000 0.86030  0.04890  0.84830  Biso   1.000  N
  N6       1.0000 0.13970  0.95110  0.15170  Biso   1.000  N
  N7       1.0000 0.35850  0.46370  0.19100  Biso   1.000  N
  N8       1.0000 0.64150  0.53630  0.80900  Biso   1.000  N
  C3       1.0000 0.68180  0.31470  0.04400  Biso   1.000  C
  C4       1.0000 0.31820  0.68530  0.95600  Biso   1.000  C
  C5       1.0000 0.04590  0.37900  0.23250  Biso   1.000  C
  C6       1.0000 0.95410  0.62100  0.76750  Biso   1.000  C
  H1       1.0000 0.93380  0.34530  0.21260  Biso   1.000  H
  H2       1.0000 0.06620  0.65470  0.78740  Biso   1.000  H
  C7       1.0000 0.19390  0.41390  0.16770  Biso   1.000  C
  C8       1.0000 0.80610  0.58610  0.83230  Biso   1.000  C
  H3       1.0000 0.17890  0.40230  0.10400  Biso   1.000  H
  H4       1.0000 0.82110  0.59770  0.89600  Biso   1.000  H
  C9       1.0000 0.37950  0.47570  0.28500  Biso   1.000  C
  C10      1.0000 0.62050  0.52430  0.71500  Biso   1.000  C
  H5       1.0000 0.49490  0.50540  0.30410  Biso   1.000  H
  H6       1.0000 0.50510  0.49460  0.69590  Biso   1.000  H
  C11      1.0000 0.23700  0.44570  0.35220  Biso   1.000  C
  C12      1.0000 0.76300  0.55430  0.64780  Biso   1.000  C
  C13      1.0000 0.97950  0.06030  0.77540  Biso   1.000  C
  C14      1.0000 0.02050  0.93970  0.22460  Biso   1.000  C
  H7       1.0000 0.11120  0.06010  0.78810  Biso   1.000  H
  H8       1.0000 0.88880  0.93990  0.21190  Biso   1.000  H
  C15      1.0000 0.67330  0.04750  0.83040  Biso   1.000  C
  C16      1.0000 0.32670  0.95250  0.16960  Biso   1.000  C
  H9       1.0000 0.58880  0.03710  0.88300  Biso   1.000  H
  H10      1.0000 0.41120  0.96290  0.11700  Biso   1.000  H
  C17      1.0000 0.06570  0.39450  0.32660  Biso   1.000  C
  C18      1.0000 0.93430  0.60550  0.67340  Biso   1.000  C
  H11      1.0000 0.96800  0.37170  0.37220  Biso   1.000  H
  H12      1.0000 0.03200  0.62830  0.62780  Biso   1.000  H
  C19      1.0000 0.91490  0.07330  0.67730  Biso   1.000  C
  C20      1.0000 0.08510  0.92670  0.32270  Biso   1.000  C
  C21      1.0000 0.26170  0.45990  0.45370  Biso   1.000  C
  C22      1.0000 0.73830  0.54010  0.54630  Biso   1.000  C
  N9       1.0000 0.28190  0.48090  0.52850  Biso   1.000  N
  N10      1.0000 0.71810  0.51910  0.47150  Biso   1.000  N
  C23      1.0000 0.72370  0.06900  0.65980  Biso   1.000  C
  C24      1.0000 0.27630  0.93100  0.34020  Biso   1.000  C
  H13      1.0000 0.67750  0.07150  0.59700  Biso   1.000  H
  H14      1.0000 0.32250  0.92850  0.40300  Biso   1.000  H
  C25      1.0000 0.60020  0.06070  0.73780  Biso   1.000  C
  C26      1.0000 0.39980  0.93930  0.26220  Biso   1.000  C
  H15      1.0000 0.46700  0.06410  0.72730  Biso   1.000  H
  H16      1.0000 0.53300  0.93590  0.27270  Biso   1.000  H
  C27      1.0000 0.06100  0.06910  0.60670  Biso   1.000  C
  C28      1.0000 0.93900  0.93090  0.39330  Biso   1.000  C
  N11      1.0000 0.18990  0.06660  0.55220  Biso   1.000  N
  N12      1.0000 0.81010  0.93340  0.44780  Biso   1.000  N
