data_image0
_cell_length_a       16.3114
_cell_length_b       11.3801
_cell_length_c       20.8164
_cell_angle_alpha    90
_cell_angle_beta     98.719
_cell_angle_gamma    90

_symmetry_space_group_name_H-M    "P 1"
_symmetry_int_tables_number       1

loop_
  _symmetry_equiv_pos_as_xyz
  'x, y, z'

loop_
  _atom_site_label
  _atom_site_occupancy
  _atom_site_fract_x
  _atom_site_fract_y
  _atom_site_fract_z
  _atom_site_thermal_displace_type
  _atom_site_B_iso_or_equiv
  _atom_site_type_symbol
  Cu1      1.0000 0.72070  0.40085  0.39651  Biso   1.000  Cu
  Cu2      1.0000 0.77930  0.90085  0.10349  Biso   1.000  Cu
  Cu3      1.0000 0.27930  0.59915  0.60349  Biso   1.000  Cu
  Cu4      1.0000 0.22070  0.09915  0.89651  Biso   1.000  Cu
  P1       1.0000 0.70804  0.22520  0.43958  Biso   1.000  P
  P2       1.0000 0.79196  0.72520  0.06042  Biso   1.000  P
  P3       1.0000 0.29196  0.77480  0.56042  Biso   1.000  P
  P4       1.0000 0.20804  0.27480  0.93958  Biso   1.000  P
  N1       1.0000 0.64010  0.54080  0.41870  Biso   1.000  N
  N2       1.0000 0.85990  0.04080  0.08130  Biso   1.000  N
  N3       1.0000 0.35990  0.45920  0.58130  Biso   1.000  N
  N4       1.0000 0.14010  0.95920  0.91870  Biso   1.000  N
  N5       1.0000 0.83040  0.49510  0.41370  Biso   1.000  N
  N6       1.0000 0.66960  0.99510  0.08630  Biso   1.000  N
  N7       1.0000 0.16960  0.50490  0.58630  Biso   1.000  N
  N8       1.0000 0.33040  0.00490  0.91370  Biso   1.000  N
  N9       1.0000 0.68800  0.39860  0.29650  Biso   1.000  N
  N10      1.0000 0.81200  0.89860  0.20350  Biso   1.000  N
  N11      1.0000 0.31200  0.60140  0.70350  Biso   1.000  N
  N12      1.0000 0.18800  0.10140  0.79650  Biso   1.000  N
  C1       1.0000 0.59060  0.46940  0.45660  Biso   1.000  C
  C2       1.0000 0.90940  0.96940  0.04340  Biso   1.000  C
  C3       1.0000 0.40940  0.53060  0.54340  Biso   1.000  C
  C4       1.0000 0.09060  0.03060  0.95660  Biso   1.000  C
  H1       1.0000 0.62460  0.43650  0.49410  Biso   1.000  H
  H2       1.0000 0.87540  0.93650  0.00590  Biso   1.000  H
  H3       1.0000 0.37540  0.56350  0.50590  Biso   1.000  H
  H4       1.0000 0.12460  0.06350  0.99410  Biso   1.000  H
  H5       1.0000 0.56660  0.40300  0.43050  Biso   1.000  H
  H6       1.0000 0.93340  0.90300  0.06950  Biso   1.000  H
  H7       1.0000 0.43340  0.59700  0.56950  Biso   1.000  H
  H8       1.0000 0.06660  0.09700  0.93050  Biso   1.000  H
  C5       1.0000 0.52130  0.53780  0.47800  Biso   1.000  C
  C6       1.0000 0.97870  0.03780  0.02200  Biso   1.000  C
  C7       1.0000 0.47870  0.46220  0.52200  Biso   1.000  C
  C8       1.0000 0.02130  0.96220  0.97800  Biso   1.000  C
  H9       1.0000 0.48250  0.56340  0.44100  Biso   1.000  H
  H10      1.0000 0.01750  0.06340  0.05900  Biso   1.000  H
  H11      1.0000 0.51750  0.43660  0.55900  Biso   1.000  H
  H12      1.0000 0.98250  0.93660  0.94100  Biso   1.000  H
  H13      1.0000 0.54340  0.60790  0.50110  Biso   1.000  H
  H14      1.0000 0.95660  0.10790  0.99890  Biso   1.000  H
  H15      1.0000 0.45660  0.39210  0.49890  Biso   1.000  H
  H16      1.0000 0.04340  0.89210  0.00110  Biso   1.000  H
  C9       1.0000 0.58470  0.53000  0.47310  Biso   1.000  C
  C10      1.0000 0.91530  0.03000  0.02690  Biso   1.000  C
  C11      1.0000 0.41530  0.47000  0.52690  Biso   1.000  C
  C12      1.0000 0.08470  0.97000  0.97310  Biso   1.000  C
  H17      1.0000 0.62430  0.50760  0.51130  Biso   1.000  H
  H18      1.0000 0.87570  0.00760  0.98870  Biso   1.000  H
  H19      1.0000 0.37570  0.49240  0.48870  Biso   1.000  H
  H20      1.0000 0.12430  0.99240  0.01130  Biso   1.000  H
  H21      1.0000 0.55350  0.45870  0.46190  Biso   1.000  H
  H22      1.0000 0.94650  0.95870  0.03810  Biso   1.000  H
  H23      1.0000 0.44650  0.54130  0.53810  Biso   1.000  H
  H24      1.0000 0.05350  0.04130  0.96190  Biso   1.000  H
  C13      1.0000 0.52800  0.60500  0.49620  Biso   1.000  C
  C14      1.0000 0.97200  0.10500  0.00380  Biso   1.000  C
  C15      1.0000 0.47200  0.39500  0.50380  Biso   1.000  C
  C16      1.0000 0.02800  0.89500  0.99620  Biso   1.000  C
  H25      1.0000 0.49080  0.63200  0.46030  Biso   1.000  H
  H26      1.0000 0.00920  0.13200  0.03970  Biso   1.000  H
  H27      1.0000 0.50920  0.36800  0.53970  Biso   1.000  H
  H28      1.0000 0.99080  0.86800  0.96030  Biso   1.000  H
  H29      1.0000 0.56070  0.67430  0.51370  Biso   1.000  H
  H30      1.0000 0.93930  0.17430  0.98630  Biso   1.000  H
  H31      1.0000 0.43930  0.32570  0.48630  Biso   1.000  H
  H32      1.0000 0.06070  0.82570  0.01370  Biso   1.000  H
  C17      1.0000 0.48400  0.56400  0.54900  Biso   1.000  C
  C18      1.0000 0.01600  0.06400  0.95100  Biso   1.000  C
  C19      1.0000 0.51600  0.43600  0.45100  Biso   1.000  C
  C20      1.0000 0.98400  0.93600  0.04900  Biso   1.000  C
  H33      1.0000 0.45450  0.62970  0.56580  Biso   1.000  H
  H34      1.0000 0.04550  0.12970  0.93420  Biso   1.000  H
  H35      1.0000 0.54550  0.37030  0.43420  Biso   1.000  H
  H36      1.0000 0.95450  0.87030  0.06580  Biso   1.000  H
  H37      1.0000 0.51880  0.53040  0.58400  Biso   1.000  H
  H38      1.0000 0.98120  0.03040  0.91600  Biso   1.000  H
  H39      1.0000 0.48120  0.46960  0.41600  Biso   1.000  H
  H40      1.0000 0.01880  0.96960  0.08400  Biso   1.000  H
  C21      1.0000 0.69370  0.63740  0.45000  Biso   1.000  C
  C22      1.0000 0.80630  0.13740  0.05000  Biso   1.000  C
  C23      1.0000 0.30630  0.36260  0.55000  Biso   1.000  C
  C24      1.0000 0.19370  0.86260  0.95000  Biso   1.000  C
  H41      1.0000 0.65930  0.68870  0.47350  Biso   1.000  H
  H42      1.0000 0.84070  0.18870  0.02650  Biso   1.000  H
  H43      1.0000 0.34070  0.31130  0.52650  Biso   1.000  H
  H44      1.0000 0.15930  0.81130  0.97350  Biso   1.000  H
  H45      1.0000 0.71240  0.68520  0.41530  Biso   1.000  H
  H46      1.0000 0.78760  0.18520  0.08470  Biso   1.000  H
  H47      1.0000 0.28760  0.31480  0.58470  Biso   1.000  H
  H48      1.0000 0.21240  0.81480  0.91530  Biso   1.000  H
  C25      1.0000 0.76840  0.60080  0.49640  Biso   1.000  C
  C26      1.0000 0.73160  0.10080  0.00360  Biso   1.000  C
  C27      1.0000 0.23160  0.39920  0.50360  Biso   1.000  C
  C28      1.0000 0.26840  0.89920  0.99640  Biso   1.000  C
  H49      1.0000 0.75500  0.52990  0.52030  Biso   1.000  H
  H50      1.0000 0.74500  0.02990  0.97970  Biso   1.000  H
  H51      1.0000 0.24500  0.47010  0.47970  Biso   1.000  H
  H52      1.0000 0.25500  0.97010  0.02030  Biso   1.000  H
  H53      1.0000 0.78370  0.66430  0.52850  Biso   1.000  H
  H54      1.0000 0.71630  0.16430  0.97150  Biso   1.000  H
  H55      1.0000 0.21630  0.33570  0.47150  Biso   1.000  H
  H56      1.0000 0.28370  0.83570  0.02850  Biso   1.000  H
  C29      1.0000 0.84120  0.57480  0.46150  Biso   1.000  C
  C30      1.0000 0.65880  0.07480  0.03850  Biso   1.000  C
  C31      1.0000 0.15880  0.42520  0.53850  Biso   1.000  C
  C32      1.0000 0.34120  0.92520  0.96150  Biso   1.000  C
  C33      1.0000 0.91680  0.63460  0.47600  Biso   1.000  C
  C34      1.0000 0.58320  0.13460  0.02400  Biso   1.000  C
  C35      1.0000 0.08320  0.36540  0.52400  Biso   1.000  C
  C36      1.0000 0.41680  0.86540  0.97600  Biso   1.000  C
  H57      1.0000 0.92410  0.68900  0.51100  Biso   1.000  H
  H58      1.0000 0.57590  0.18900  0.98900  Biso   1.000  H
  H59      1.0000 0.07590  0.31100  0.48900  Biso   1.000  H
  H60      1.0000 0.42410  0.81100  0.01100  Biso   1.000  H
  C37      1.0000 0.97870  0.61700  0.44190  Biso   1.000  C
  C38      1.0000 0.52130  0.11700  0.05810  Biso   1.000  C
  C39      1.0000 0.02130  0.38300  0.55810  Biso   1.000  C
  C40      1.0000 0.47870  0.88300  0.94190  Biso   1.000  C
  H61      1.0000 0.02920  0.65950  0.45170  Biso   1.000  H
  H62      1.0000 0.47080  0.15950  0.04830  Biso   1.000  H
  H63      1.0000 0.97080  0.34050  0.54830  Biso   1.000  H
  H64      1.0000 0.52920  0.84050  0.95170  Biso   1.000  H
  C41      1.0000 0.96780  0.53590  0.39200  Biso   1.000  C
  C42      1.0000 0.53220  0.03590  0.10800  Biso   1.000  C
  C43      1.0000 0.03220  0.46410  0.60800  Biso   1.000  C
  C44      1.0000 0.46780  0.96410  0.89200  Biso   1.000  C
  H65      1.0000 0.01080  0.52030  0.36700  Biso   1.000  H
  H66      1.0000 0.48920  0.02030  0.13300  Biso   1.000  H
  H67      1.0000 0.98920  0.47970  0.63300  Biso   1.000  H
  H68      1.0000 0.51080  0.97970  0.86700  Biso   1.000  H
  C45      1.0000 0.89190  0.47750  0.37940  Biso   1.000  C
  C46      1.0000 0.60810  0.97750  0.12060  Biso   1.000  C
  C47      1.0000 0.10810  0.52250  0.62060  Biso   1.000  C
  C48      1.0000 0.39190  0.02250  0.87940  Biso   1.000  C
  H69      1.0000 0.88360  0.42260  0.34470  Biso   1.000  H
  H70      1.0000 0.61640  0.92260  0.15530  Biso   1.000  H
  H71      1.0000 0.11640  0.57740  0.65530  Biso   1.000  H
  H72      1.0000 0.38360  0.07740  0.84470  Biso   1.000  H
  C49      1.0000 0.58930  0.58470  0.35740  Biso   1.000  C
  C50      1.0000 0.91070  0.08470  0.14260  Biso   1.000  C
  C51      1.0000 0.41070  0.41530  0.64260  Biso   1.000  C
  C52      1.0000 0.08930  0.91530  0.85740  Biso   1.000  C
  H73      1.0000 0.56530  0.66190  0.36610  Biso   1.000  H
  H74      1.0000 0.93470  0.16190  0.13390  Biso   1.000  H
  H75      1.0000 0.43470  0.33810  0.63390  Biso   1.000  H
  H76      1.0000 0.06530  0.83810  0.86610  Biso   1.000  H
  H77      1.0000 0.54270  0.52960  0.34440  Biso   1.000  H
  H78      1.0000 0.95730  0.02960  0.15560  Biso   1.000  H
  H79      1.0000 0.45730  0.47040  0.65560  Biso   1.000  H
  H80      1.0000 0.04270  0.97040  0.84440  Biso   1.000  H
  C53      1.0000 0.63800  0.59790  0.30110  Biso   1.000  C
  C54      1.0000 0.86200  0.09790  0.19890  Biso   1.000  C
  C55      1.0000 0.36200  0.40210  0.69890  Biso   1.000  C
  C56      1.0000 0.13800  0.90210  0.80110  Biso   1.000  C
  H81      1.0000 0.61040  0.65760  0.27060  Biso   1.000  H
  H82      1.0000 0.88960  0.15760  0.22940  Biso   1.000  H
  H83      1.0000 0.38960  0.34240  0.72940  Biso   1.000  H
  H84      1.0000 0.11040  0.84240  0.77060  Biso   1.000  H
  H85      1.0000 0.69420  0.62730  0.31820  Biso   1.000  H
  H86      1.0000 0.80580  0.12730  0.18180  Biso   1.000  H
  H87      1.0000 0.30580  0.37270  0.68180  Biso   1.000  H
  H88      1.0000 0.19420  0.87270  0.81820  Biso   1.000  H
  C57      1.0000 0.64590  0.48610  0.26450  Biso   1.000  C
  C58      1.0000 0.85410  0.98610  0.23550  Biso   1.000  C
  C59      1.0000 0.35410  0.51390  0.73550  Biso   1.000  C
  C60      1.0000 0.14590  0.01390  0.76450  Biso   1.000  C
  C61      1.0000 0.60780  0.47270  0.19990  Biso   1.000  C
  C62      1.0000 0.89220  0.97270  0.30010  Biso   1.000  C
  C63      1.0000 0.39220  0.52730  0.80010  Biso   1.000  C
  C64      1.0000 0.10780  0.02730  0.69990  Biso   1.000  C
  H89      1.0000 0.57580  0.53560  0.17920  Biso   1.000  H
  H90      1.0000 0.92420  0.03560  0.32080  Biso   1.000  H
  H91      1.0000 0.42420  0.46440  0.82080  Biso   1.000  H
  H92      1.0000 0.07580  0.96440  0.67920  Biso   1.000  H
  C65      1.0000 0.61530  0.37340  0.16650  Biso   1.000  C
  C66      1.0000 0.88470  0.87340  0.33350  Biso   1.000  C
  C67      1.0000 0.38470  0.62660  0.83350  Biso   1.000  C
  C68      1.0000 0.11530  0.12660  0.66650  Biso   1.000  C
  H93      1.0000 0.59000  0.36630  0.12250  Biso   1.000  H
  H94      1.0000 0.91000  0.86630  0.37750  Biso   1.000  H
  H95      1.0000 0.41000  0.63370  0.87750  Biso   1.000  H
  H96      1.0000 0.09000  0.13370  0.62250  Biso   1.000  H
  C69      1.0000 0.66130  0.28060  0.19800  Biso   1.000  C
  C70      1.0000 0.83870  0.78060  0.30200  Biso   1.000  C
  C71      1.0000 0.33870  0.71940  0.80200  Biso   1.000  C
  C72      1.0000 0.16130  0.21940  0.69800  Biso   1.000  C
  H97      1.0000 0.66850  0.20850  0.17650  Biso   1.000  H
  H98      1.0000 0.83150  0.70850  0.32350  Biso   1.000  H
  H99      1.0000 0.33150  0.79150  0.82350  Biso   1.000  H
  H100     1.0000 0.16850  0.29150  0.67650  Biso   1.000  H
  C73      1.0000 0.69610  0.29980  0.26270  Biso   1.000  C
  C74      1.0000 0.80390  0.79980  0.23730  Biso   1.000  C
  C75      1.0000 0.30390  0.70020  0.73730  Biso   1.000  C
  C76      1.0000 0.19610  0.20020  0.76270  Biso   1.000  C
  H101     1.0000 0.72810  0.23800  0.28450  Biso   1.000  H
  H102     1.0000 0.77190  0.73800  0.21550  Biso   1.000  H
  H103     1.0000 0.27190  0.76200  0.71550  Biso   1.000  H
  H104     1.0000 0.22810  0.26200  0.78450  Biso   1.000  H
  C77      1.0000 0.65640  0.20550  0.51080  Biso   1.000  C
  C78      1.0000 0.84360  0.70550  0.98920  Biso   1.000  C
  C79      1.0000 0.34360  0.79450  0.48920  Biso   1.000  C
  C80      1.0000 0.15640  0.29450  0.01080  Biso   1.000  C
  C81      1.0000 0.69240  0.25800  0.56750  Biso   1.000  C
  C82      1.0000 0.80760  0.75800  0.93250  Biso   1.000  C
  C83      1.0000 0.30760  0.74200  0.43250  Biso   1.000  C
  C84      1.0000 0.19240  0.24200  0.06750  Biso   1.000  C
  H105     1.0000 0.74190  0.30200  0.56770  Biso   1.000  H
  H106     1.0000 0.75810  0.80200  0.93230  Biso   1.000  H
  H107     1.0000 0.25810  0.69800  0.43230  Biso   1.000  H
  H108     1.0000 0.24190  0.19800  0.06770  Biso   1.000  H
  C85      1.0000 0.65780  0.24850  0.62550  Biso   1.000  C
  C86      1.0000 0.84220  0.74850  0.87450  Biso   1.000  C
  C87      1.0000 0.34220  0.75150  0.37450  Biso   1.000  C
  C88      1.0000 0.15780  0.25150  0.12550  Biso   1.000  C
  H109     1.0000 0.68470  0.28420  0.66440  Biso   1.000  H
  H110     1.0000 0.81530  0.78420  0.83560  Biso   1.000  H
  H111     1.0000 0.31530  0.71580  0.33560  Biso   1.000  H
  H112     1.0000 0.18470  0.21580  0.16440  Biso   1.000  H
  C89      1.0000 0.58550  0.18780  0.62560  Biso   1.000  C
  C90      1.0000 0.91450  0.68780  0.87440  Biso   1.000  C
  C91      1.0000 0.41450  0.81220  0.37440  Biso   1.000  C
  C92      1.0000 0.08550  0.31220  0.12560  Biso   1.000  C
  H113     1.0000 0.56110  0.17960  0.66400  Biso   1.000  H
  H114     1.0000 0.93890  0.67960  0.83600  Biso   1.000  H
  H115     1.0000 0.43890  0.82040  0.33600  Biso   1.000  H
  H116     1.0000 0.06110  0.32040  0.16400  Biso   1.000  H
  C93      1.0000 0.54840  0.13720  0.56540  Biso   1.000  C
  C94      1.0000 0.95160  0.63720  0.93460  Biso   1.000  C
  C95      1.0000 0.45160  0.86280  0.43460  Biso   1.000  C
  C96      1.0000 0.04840  0.36280  0.06540  Biso   1.000  C
  H117     1.0000 0.49690  0.09720  0.56330  Biso   1.000  H
  H118     1.0000 0.00310  0.59720  0.93670  Biso   1.000  H
  H119     1.0000 0.50310  0.90280  0.43670  Biso   1.000  H
  H120     1.0000 0.99690  0.40280  0.06330  Biso   1.000  H
  C97      1.0000 0.58470  0.14470  0.51140  Biso   1.000  C
  C98      1.0000 0.91530  0.64470  0.98860  Biso   1.000  C
  C99      1.0000 0.41530  0.85530  0.48860  Biso   1.000  C
  C100     1.0000 0.08470  0.35530  0.01140  Biso   1.000  C
  H121     1.0000 0.55950  0.10660  0.47280  Biso   1.000  H
  H122     1.0000 0.94050  0.60660  0.02720  Biso   1.000  H
  H123     1.0000 0.44050  0.89340  0.52720  Biso   1.000  H
  H124     1.0000 0.05950  0.39340  0.97280  Biso   1.000  H
  C101     1.0000 0.80700  0.15250  0.46360  Biso   1.000  C
  C102     1.0000 0.69300  0.65250  0.03640  Biso   1.000  C
  C103     1.0000 0.19300  0.84750  0.53640  Biso   1.000  C
  C104     1.0000 0.30700  0.34750  0.96360  Biso   1.000  C
  C105     1.0000 0.87170  0.17830  0.43380  Biso   1.000  C
  C106     1.0000 0.62830  0.67830  0.06620  Biso   1.000  C
  C107     1.0000 0.12830  0.82170  0.56620  Biso   1.000  C
  C108     1.0000 0.37170  0.32170  0.93380  Biso   1.000  C
  H125     1.0000 0.86530  0.23760  0.40130  Biso   1.000  H
  H126     1.0000 0.63470  0.73760  0.09870  Biso   1.000  H
  H127     1.0000 0.13470  0.76240  0.59870  Biso   1.000  H
  H128     1.0000 0.36530  0.26240  0.90130  Biso   1.000  H
  C109     1.0000 0.94920  0.12140  0.44850  Biso   1.000  C
  C110     1.0000 0.55080  0.62140  0.05150  Biso   1.000  C
  C111     1.0000 0.05080  0.87860  0.55150  Biso   1.000  C
  C112     1.0000 0.44920  0.37860  0.94850  Biso   1.000  C
  H129     1.0000 0.99410  0.14590  0.42750  Biso   1.000  H
  H130     1.0000 0.50590  0.64590  0.07250  Biso   1.000  H
  H131     1.0000 0.00590  0.85410  0.57250  Biso   1.000  H
  H132     1.0000 0.49410  0.35410  0.92750  Biso   1.000  H
  C113     1.0000 0.96020  0.03210  0.49220  Biso   1.000  C
  C114     1.0000 0.53980  0.53210  0.00780  Biso   1.000  C
  C115     1.0000 0.03980  0.96790  0.50780  Biso   1.000  C
  C116     1.0000 0.46020  0.46790  0.99220  Biso   1.000  C
  H133     1.0000 0.97130  0.08520  0.53090  Biso   1.000  H
  H134     1.0000 0.52870  0.58520  0.96910  Biso   1.000  H
  H135     1.0000 0.02870  0.91480  0.46910  Biso   1.000  H
  H136     1.0000 0.47130  0.41480  0.03090  Biso   1.000  H
  C117     1.0000 0.88550  0.97820  0.51250  Biso   1.000  C
  C118     1.0000 0.61450  0.47820  0.98750  Biso   1.000  C
  C119     1.0000 0.11450  0.02180  0.48750  Biso   1.000  C
  C120     1.0000 0.38550  0.52180  0.01250  Biso   1.000  C
  H137     1.0000 0.88930  0.90440  0.53400  Biso   1.000  H
  H138     1.0000 0.61070  0.40440  0.96600  Biso   1.000  H
  H139     1.0000 0.11070  0.09560  0.46600  Biso   1.000  H
  H140     1.0000 0.38930  0.59560  0.03400  Biso   1.000  H
  C121     1.0000 0.81280  0.03390  0.50030  Biso   1.000  C
  C122     1.0000 0.68720  0.53390  0.99970  Biso   1.000  C
  C123     1.0000 0.18720  0.96610  0.49970  Biso   1.000  C
  C124     1.0000 0.31280  0.46610  0.00030  Biso   1.000  C
  H141     1.0000 0.76480  0.00090  0.51410  Biso   1.000  H
  H142     1.0000 0.73520  0.50090  0.98590  Biso   1.000  H
  H143     1.0000 0.23520  0.99910  0.48590  Biso   1.000  H
  H144     1.0000 0.26480  0.49910  0.01410  Biso   1.000  H
  C125     1.0000 0.90280  0.03930  0.53950  Biso   1.000  C
  C126     1.0000 0.59720  0.53930  0.96050  Biso   1.000  C
  C127     1.0000 0.09720  0.96070  0.46050  Biso   1.000  C
  C128     1.0000 0.40280  0.46070  0.03950  Biso   1.000  C
  H145     1.0000 0.91840  0.00600  0.58140  Biso   1.000  H
  H146     1.0000 0.58160  0.50600  0.91860  Biso   1.000  H
  H147     1.0000 0.08160  0.99400  0.41860  Biso   1.000  H
  H148     1.0000 0.41840  0.49400  0.08140  Biso   1.000  H
  C129     1.0000 0.82710  0.09260  0.52510  Biso   1.000  C
  C130     1.0000 0.67290  0.59260  0.97490  Biso   1.000  C
  C131     1.0000 0.17290  0.90740  0.47490  Biso   1.000  C
  C132     1.0000 0.32710  0.40740  0.02510  Biso   1.000  C
  H149     1.0000 0.78860  0.09030  0.55500  Biso   1.000  H
  H150     1.0000 0.71140  0.59030  0.94500  Biso   1.000  H
  H151     1.0000 0.21140  0.90970  0.44500  Biso   1.000  H
  H152     1.0000 0.28860  0.40970  0.05500  Biso   1.000  H
  C133     1.0000 0.65070  0.12290  0.38210  Biso   1.000  C
  C134     1.0000 0.84930  0.62290  0.11790  Biso   1.000  C
  C135     1.0000 0.34930  0.87710  0.61790  Biso   1.000  C
  C136     1.0000 0.15070  0.37710  0.88210  Biso   1.000  C
  C137     1.0000 0.57580  0.15960  0.34830  Biso   1.000  C
  C138     1.0000 0.92420  0.65960  0.15170  Biso   1.000  C
  C139     1.0000 0.42420  0.84040  0.65170  Biso   1.000  C
  C140     1.0000 0.07580  0.34040  0.84830  Biso   1.000  C
  H153     1.0000 0.55360  0.23460  0.35610  Biso   1.000  H
  H154     1.0000 0.94640  0.73460  0.14390  Biso   1.000  H
  H155     1.0000 0.44640  0.76540  0.64390  Biso   1.000  H
  H156     1.0000 0.05360  0.26540  0.85610  Biso   1.000  H
  C141     1.0000 0.53260  0.08200  0.30130  Biso   1.000  C
  C142     1.0000 0.96740  0.58200  0.19870  Biso   1.000  C
  C143     1.0000 0.46740  0.91800  0.69870  Biso   1.000  C
  C144     1.0000 0.03260  0.41800  0.80130  Biso   1.000  C
  H157     1.0000 0.48110  0.10540  0.27700  Biso   1.000  H
  H158     1.0000 0.01890  0.60540  0.22300  Biso   1.000  H
  H159     1.0000 0.51890  0.89460  0.72300  Biso   1.000  H
  H160     1.0000 0.98110  0.39460  0.77700  Biso   1.000  H
  C145     1.0000 0.56530  0.97250  0.29080  Biso   1.000  C
  C146     1.0000 0.93470  0.47250  0.20920  Biso   1.000  C
  C147     1.0000 0.43470  0.02750  0.70920  Biso   1.000  C
  C148     1.0000 0.06530  0.52750  0.79080  Biso   1.000  C
  H161     1.0000 0.53570  0.92040  0.26010  Biso   1.000  H
  H162     1.0000 0.96430  0.42040  0.23990  Biso   1.000  H
  H163     1.0000 0.46430  0.07960  0.73990  Biso   1.000  H
  H164     1.0000 0.03570  0.57960  0.76010  Biso   1.000  H
  C149     1.0000 0.63900  0.93980  0.32420  Biso   1.000  C
  C150     1.0000 0.86100  0.43980  0.17580  Biso   1.000  C
  C151     1.0000 0.36100  0.06020  0.67580  Biso   1.000  C
  C152     1.0000 0.13900  0.56020  0.82420  Biso   1.000  C
  H165     1.0000 0.66210  0.86580  0.31580  Biso   1.000  H
  H166     1.0000 0.83790  0.36580  0.18420  Biso   1.000  H
  H167     1.0000 0.33790  0.13420  0.68420  Biso   1.000  H
  H168     1.0000 0.16210  0.63420  0.81580  Biso   1.000  H
  C153     1.0000 0.67920  0.01010  0.36830  Biso   1.000  C
  C154     1.0000 0.82080  0.51010  0.13170  Biso   1.000  C
  C155     1.0000 0.32080  0.98990  0.63170  Biso   1.000  C
  C156     1.0000 0.17920  0.48990  0.86830  Biso   1.000  C
  H169     1.0000 0.73010  0.98340  0.39220  Biso   1.000  H
  H170     1.0000 0.76990  0.48340  0.10780  Biso   1.000  H
  H171     1.0000 0.26990  0.01660  0.60780  Biso   1.000  H
  H172     1.0000 0.23010  0.51660  0.89220  Biso   1.000  H
  B1       1.0000 0.07760  0.23790  0.31750  Biso   1.000  B
  B2       1.0000 0.42240  0.73790  0.18250  Biso   1.000  B
  B3       1.0000 0.92240  0.76210  0.68250  Biso   1.000  B
  B4       1.0000 0.57760  0.26210  0.81750  Biso   1.000  B
  F1       1.0000 0.11130  0.33230  0.28820  Biso   1.000  F
  F2       1.0000 0.38870  0.83230  0.21180  Biso   1.000  F
  F3       1.0000 0.88870  0.66770  0.71180  Biso   1.000  F
  F4       1.0000 0.61130  0.16770  0.78820  Biso   1.000  F
  F5       1.0000 0.11850  0.22320  0.37710  Biso   1.000  F
  F6       1.0000 0.38150  0.72320  0.12290  Biso   1.000  F
  F7       1.0000 0.88150  0.77680  0.62290  Biso   1.000  F
  F8       1.0000 0.61850  0.27680  0.87710  Biso   1.000  F
  F9       1.0000 0.08210  0.14800  0.27900  Biso   1.000  F
  F10      1.0000 0.41790  0.64800  0.22100  Biso   1.000  F
  F11      1.0000 0.91790  0.85200  0.72100  Biso   1.000  F
  F12      1.0000 0.58210  0.35200  0.77900  Biso   1.000  F
  F13      1.0000 0.99570  0.25830  0.31790  Biso   1.000  F
  F14      1.0000 0.50430  0.75830  0.18210  Biso   1.000  F
  F15      1.0000 0.00430  0.74170  0.68210  Biso   1.000  F
  F16      1.0000 0.49570  0.24170  0.81790  Biso   1.000  F
  O1       1.0000 0.33600  0.07050  0.15950  Biso   1.000  O
  O2       1.0000 0.16400  0.57050  0.34050  Biso   1.000  O
  O3       1.0000 0.66400  0.92950  0.84050  Biso   1.000  O
  O4       1.0000 0.83600  0.42950  0.65950  Biso   1.000  O
  H173     1.0000 0.35240  0.11380  0.16450  Biso   1.000  H
  H174     1.0000 0.14760  0.61380  0.33550  Biso   1.000  H
  H175     1.0000 0.64760  0.88620  0.83550  Biso   1.000  H
  H176     1.0000 0.85240  0.38620  0.66450  Biso   1.000  H
  H177     1.0000 0.28960  0.02530  0.16930  Biso   1.000  H
  H178     1.0000 0.21040  0.52530  0.33070  Biso   1.000  H
  H179     1.0000 0.71040  0.97470  0.83070  Biso   1.000  H
  H180     1.0000 0.78960  0.47470  0.66930  Biso   1.000  H
  N13      1.0000 0.35410  0.16030  0.44910  Biso   1.000  N
  N14      1.0000 0.14590  0.66030  0.05090  Biso   1.000  N
  N15      1.0000 0.64590  0.83970  0.55090  Biso   1.000  N
  N16      1.0000 0.85410  0.33970  0.94910  Biso   1.000  N
  C157     1.0000 0.33490  0.14790  0.40070  Biso   1.000  C
  C158     1.0000 0.16510  0.64790  0.09930  Biso   1.000  C
  C159     1.0000 0.66510  0.85210  0.59930  Biso   1.000  C
  C160     1.0000 0.83490  0.35210  0.90070  Biso   1.000  C
  C161     1.0000 0.30270  0.10500  0.33360  Biso   1.000  C
  C162     1.0000 0.19730  0.60500  0.16640  Biso   1.000  C
  C163     1.0000 0.69730  0.89500  0.66640  Biso   1.000  C
  C164     1.0000 0.80270  0.39500  0.83360  Biso   1.000  C
  H181     1.0000 0.30580  0.16850  0.30230  Biso   1.000  H
  H182     1.0000 0.19420  0.66850  0.19770  Biso   1.000  H
  H183     1.0000 0.69420  0.83150  0.69770  Biso   1.000  H
  H184     1.0000 0.80580  0.33150  0.80230  Biso   1.000  H
  H185     1.0000 0.24490  0.07990  0.33170  Biso   1.000  H
  H186     1.0000 0.25510  0.57990  0.16830  Biso   1.000  H
  H187     1.0000 0.75510  0.92010  0.66830  Biso   1.000  H
  H188     1.0000 0.74490  0.42010  0.83170  Biso   1.000  H
  H189     1.0000 0.33630  0.03840  0.32300  Biso   1.000  H
  H190     1.0000 0.16370  0.53840  0.17700  Biso   1.000  H
  H191     1.0000 0.66370  0.96160  0.67700  Biso   1.000  H
  H192     1.0000 0.83630  0.46160  0.82300  Biso   1.000  H
  N17      1.0000 0.43630  0.34780  0.28020  Biso   1.000  N
  N18      1.0000 0.06370  0.84780  0.21980  Biso   1.000  N
  N19      1.0000 0.56370  0.65220  0.71980  Biso   1.000  N
  N20      1.0000 0.93630  0.15220  0.78020  Biso   1.000  N
  C165     1.0000 0.41450  0.36000  0.22760  Biso   1.000  C
  C166     1.0000 0.08550  0.86000  0.27240  Biso   1.000  C
  C167     1.0000 0.58550  0.64000  0.77240  Biso   1.000  C
  C168     1.0000 0.91450  0.14000  0.72760  Biso   1.000  C
  C169     1.0000 0.39970  0.38080  0.16080  Biso   1.000  C
  C170     1.0000 0.10030  0.88080  0.33920  Biso   1.000  C
  C171     1.0000 0.60030  0.61920  0.83920  Biso   1.000  C
  C172     1.0000 0.89970  0.11920  0.66080  Biso   1.000  C
  H193     1.0000 0.34150  0.36360  0.14400  Biso   1.000  H
  H194     1.0000 0.15850  0.86360  0.35600  Biso   1.000  H
  H195     1.0000 0.65850  0.63640  0.85600  Biso   1.000  H
  H196     1.0000 0.84150  0.13640  0.64400  Biso   1.000  H
  H197     1.0000 0.43570  0.33010  0.13920  Biso   1.000  H
  H198     1.0000 0.06430  0.83010  0.36080  Biso   1.000  H
  H199     1.0000 0.56430  0.66990  0.86080  Biso   1.000  H
  H200     1.0000 0.93570  0.16990  0.63920  Biso   1.000  H
  H201     1.0000 0.41150  0.46330  0.15230  Biso   1.000  H
  H202     1.0000 0.08850  0.96330  0.34770  Biso   1.000  H
  H203     1.0000 0.58850  0.53670  0.84770  Biso   1.000  H
  H204     1.0000 0.91150  0.03670  0.65230  Biso   1.000  H
