data_image0
_cell_length_a       14.0107
_cell_length_b       16.4487
_cell_length_c       14.0295
_cell_angle_alpha    90
_cell_angle_beta     106.119
_cell_angle_gamma    90

_symmetry_space_group_name_H-M    "P 1"
_symmetry_int_tables_number       1

loop_
  _symmetry_equiv_pos_as_xyz
  'x, y, z'

loop_
  _atom_site_label
  _atom_site_occupancy
  _atom_site_fract_x
  _atom_site_fract_y
  _atom_site_fract_z
  _atom_site_thermal_displace_type
  _atom_site_B_iso_or_equiv
  _atom_site_type_symbol
  Au1      1.0000 0.51656  0.48578  0.15200  Biso   1.000  Au
  Au2      1.0000 0.01656  0.98578  0.15200  Biso   1.000  Au
  Au3      1.0000 0.48344  0.48578  0.34800  Biso   1.000  Au
  Au4      1.0000 0.98344  0.98578  0.34800  Biso   1.000  Au
  Au5      1.0000 0.48344  0.51422  0.84800  Biso   1.000  Au
  Au6      1.0000 0.98344  0.01422  0.84800  Biso   1.000  Au
  Au7      1.0000 0.51656  0.51422  0.65200  Biso   1.000  Au
  Au8      1.0000 0.01656  0.01422  0.65200  Biso   1.000  Au
  Cu1      1.0000 0.53910  0.58584  0.01758  Biso   1.000  Cu
  Cu2      1.0000 0.03910  0.08584  0.01758  Biso   1.000  Cu
  Cu3      1.0000 0.46090  0.58584  0.48242  Biso   1.000  Cu
  Cu4      1.0000 0.96090  0.08584  0.48242  Biso   1.000  Cu
  Cu5      1.0000 0.46090  0.41416  0.98242  Biso   1.000  Cu
  Cu6      1.0000 0.96090  0.91416  0.98242  Biso   1.000  Cu
  Cu7      1.0000 0.53910  0.41416  0.51758  Biso   1.000  Cu
  Cu8      1.0000 0.03910  0.91416  0.51758  Biso   1.000  Cu
  C1       1.0000 0.65620  0.53200  0.20840  Biso   1.000  C
  C2       1.0000 0.15620  0.03200  0.20840  Biso   1.000  C
  C3       1.0000 0.34380  0.53200  0.29160  Biso   1.000  C
  C4       1.0000 0.84380  0.03200  0.29160  Biso   1.000  C
  C5       1.0000 0.34380  0.46800  0.79160  Biso   1.000  C
  C6       1.0000 0.84380  0.96800  0.79160  Biso   1.000  C
  C7       1.0000 0.65620  0.46800  0.70840  Biso   1.000  C
  C8       1.0000 0.15620  0.96800  0.70840  Biso   1.000  C
  C9       1.0000 0.68120  0.60860  0.24880  Biso   1.000  C
  C10      1.0000 0.18120  0.10860  0.24880  Biso   1.000  C
  C11      1.0000 0.31880  0.60860  0.25120  Biso   1.000  C
  C12      1.0000 0.81880  0.10860  0.25120  Biso   1.000  C
  C13      1.0000 0.31880  0.39140  0.75120  Biso   1.000  C
  C14      1.0000 0.81880  0.89140  0.75120  Biso   1.000  C
  C15      1.0000 0.68120  0.39140  0.74880  Biso   1.000  C
  C16      1.0000 0.18120  0.89140  0.74880  Biso   1.000  C
  C17      1.0000 0.77680  0.63450  0.29310  Biso   1.000  C
  C18      1.0000 0.27680  0.13450  0.29310  Biso   1.000  C
  C19      1.0000 0.22320  0.63450  0.20690  Biso   1.000  C
  C20      1.0000 0.72320  0.13450  0.20690  Biso   1.000  C
  C21      1.0000 0.22320  0.36550  0.70690  Biso   1.000  C
  C22      1.0000 0.72320  0.86550  0.70690  Biso   1.000  C
  C23      1.0000 0.77680  0.36550  0.79310  Biso   1.000  C
  C24      1.0000 0.27680  0.86550  0.79310  Biso   1.000  C
  C25      1.0000 0.85390  0.58110  0.29760  Biso   1.000  C
  C26      1.0000 0.35390  0.08110  0.29760  Biso   1.000  C
  C27      1.0000 0.14610  0.58110  0.20240  Biso   1.000  C
  C28      1.0000 0.64610  0.08110  0.20240  Biso   1.000  C
  C29      1.0000 0.14610  0.41890  0.70240  Biso   1.000  C
  C30      1.0000 0.64610  0.91890  0.70240  Biso   1.000  C
  C31      1.0000 0.85390  0.41890  0.79760  Biso   1.000  C
  C32      1.0000 0.35390  0.91890  0.79760  Biso   1.000  C
  C33      1.0000 0.83380  0.50430  0.25980  Biso   1.000  C
  C34      1.0000 0.33380  0.00430  0.25980  Biso   1.000  C
  C35      1.0000 0.16620  0.50430  0.24020  Biso   1.000  C
  C36      1.0000 0.66620  0.00430  0.24020  Biso   1.000  C
  C37      1.0000 0.16620  0.49570  0.74020  Biso   1.000  C
  C38      1.0000 0.66620  0.99570  0.74020  Biso   1.000  C
  C39      1.0000 0.83380  0.49570  0.75980  Biso   1.000  C
  C40      1.0000 0.33380  0.99570  0.75980  Biso   1.000  C
  C41      1.0000 0.73770  0.48170  0.21620  Biso   1.000  C
  C42      1.0000 0.23770  0.98170  0.21620  Biso   1.000  C
  C43      1.0000 0.26230  0.48170  0.28380  Biso   1.000  C
  C44      1.0000 0.76230  0.98170  0.28380  Biso   1.000  C
  C45      1.0000 0.26230  0.51830  0.78380  Biso   1.000  C
  C46      1.0000 0.76230  0.01830  0.78380  Biso   1.000  C
  C47      1.0000 0.73770  0.51830  0.71620  Biso   1.000  C
  C48      1.0000 0.23770  0.01830  0.71620  Biso   1.000  C
  F1       1.0000 0.60766  0.66249  0.24977  Biso   1.000  F
  F2       1.0000 0.10766  0.16249  0.24977  Biso   1.000  F
  F3       1.0000 0.39234  0.66249  0.25023  Biso   1.000  F
  F4       1.0000 0.89234  0.16249  0.25023  Biso   1.000  F
  F5       1.0000 0.39234  0.33751  0.75023  Biso   1.000  F
  F6       1.0000 0.89234  0.83751  0.75023  Biso   1.000  F
  F7       1.0000 0.60766  0.33751  0.74977  Biso   1.000  F
  F8       1.0000 0.10766  0.83751  0.74977  Biso   1.000  F
  F9       1.0000 0.79520  0.70870  0.33230  Biso   1.000  F
  F10      1.0000 0.29520  0.20870  0.33230  Biso   1.000  F
  F11      1.0000 0.20480  0.70870  0.16770  Biso   1.000  F
  F12      1.0000 0.70480  0.20870  0.16770  Biso   1.000  F
  F13      1.0000 0.20480  0.29130  0.66770  Biso   1.000  F
  F14      1.0000 0.70480  0.79130  0.66770  Biso   1.000  F
  F15      1.0000 0.79520  0.29130  0.83230  Biso   1.000  F
  F16      1.0000 0.29520  0.79130  0.83230  Biso   1.000  F
  F17      1.0000 0.94790  0.60440  0.34010  Biso   1.000  F
  F18      1.0000 0.44790  0.10440  0.34010  Biso   1.000  F
  F19      1.0000 0.05210  0.60440  0.15990  Biso   1.000  F
  F20      1.0000 0.55210  0.10440  0.15990  Biso   1.000  F
  F21      1.0000 0.05210  0.39560  0.65990  Biso   1.000  F
  F22      1.0000 0.55210  0.89560  0.65990  Biso   1.000  F
  F23      1.0000 0.94790  0.39560  0.84010  Biso   1.000  F
  F24      1.0000 0.44790  0.89560  0.84010  Biso   1.000  F
  F25      1.0000 0.90920  0.45150  0.26850  Biso   1.000  F
  F26      1.0000 0.40920  0.95150  0.26850  Biso   1.000  F
  F27      1.0000 0.09080  0.45150  0.23150  Biso   1.000  F
  F28      1.0000 0.59080  0.95150  0.23150  Biso   1.000  F
  F29      1.0000 0.09080  0.54850  0.73150  Biso   1.000  F
  F30      1.0000 0.59080  0.04850  0.73150  Biso   1.000  F
  F31      1.0000 0.90920  0.54850  0.76850  Biso   1.000  F
  F32      1.0000 0.40920  0.04850  0.76850  Biso   1.000  F
  F33      1.0000 0.72320  0.40381  0.18360  Biso   1.000  F
  F34      1.0000 0.22320  0.90381  0.18360  Biso   1.000  F
  F35      1.0000 0.27680  0.40381  0.31640  Biso   1.000  F
  F36      1.0000 0.77680  0.90381  0.31640  Biso   1.000  F
  F37      1.0000 0.27680  0.59619  0.81640  Biso   1.000  F
  F38      1.0000 0.77680  0.09619  0.81640  Biso   1.000  F
  F39      1.0000 0.72320  0.59619  0.68360  Biso   1.000  F
  F40      1.0000 0.22320  0.09619  0.68360  Biso   1.000  F
  C49      1.0000 0.37770  0.43340  0.08750  Biso   1.000  C
  C50      1.0000 0.87770  0.93340  0.08750  Biso   1.000  C
  C51      1.0000 0.62230  0.43340  0.41250  Biso   1.000  C
  C52      1.0000 0.12230  0.93340  0.41250  Biso   1.000  C
  C53      1.0000 0.62230  0.56660  0.91250  Biso   1.000  C
  C54      1.0000 0.12230  0.06660  0.91250  Biso   1.000  C
  C55      1.0000 0.37770  0.56660  0.58750  Biso   1.000  C
  C56      1.0000 0.87770  0.06660  0.58750  Biso   1.000  C
  C57      1.0000 0.35530  0.35460  0.11010  Biso   1.000  C
  C58      1.0000 0.85530  0.85460  0.11010  Biso   1.000  C
  C59      1.0000 0.64470  0.35460  0.38990  Biso   1.000  C
  C60      1.0000 0.14470  0.85460  0.38990  Biso   1.000  C
  C61      1.0000 0.64470  0.64540  0.88990  Biso   1.000  C
  C62      1.0000 0.14470  0.14540  0.88990  Biso   1.000  C
  C63      1.0000 0.35530  0.64540  0.61010  Biso   1.000  C
  C64      1.0000 0.85530  0.14540  0.61010  Biso   1.000  C
  C65      1.0000 0.26090  0.32480  0.09070  Biso   1.000  C
  C66      1.0000 0.76090  0.82480  0.09070  Biso   1.000  C
  C67      1.0000 0.73910  0.32480  0.40930  Biso   1.000  C
  C68      1.0000 0.23910  0.82480  0.40930  Biso   1.000  C
  C69      1.0000 0.73910  0.67520  0.90930  Biso   1.000  C
  C70      1.0000 0.23910  0.17520  0.90930  Biso   1.000  C
  C71      1.0000 0.26090  0.67520  0.59070  Biso   1.000  C
  C72      1.0000 0.76090  0.17520  0.59070  Biso   1.000  C
  C73      1.0000 0.18270  0.37310  0.04570  Biso   1.000  C
  C74      1.0000 0.68270  0.87310  0.04570  Biso   1.000  C
  C75      1.0000 0.81730  0.37310  0.45430  Biso   1.000  C
  C76      1.0000 0.31730  0.87310  0.45430  Biso   1.000  C
  C77      1.0000 0.81730  0.62690  0.95430  Biso   1.000  C
  C78      1.0000 0.31730  0.12690  0.95430  Biso   1.000  C
  C79      1.0000 0.18270  0.62690  0.54570  Biso   1.000  C
  C80      1.0000 0.68270  0.12690  0.54570  Biso   1.000  C
  C81      1.0000 0.19840  0.45170  0.02080  Biso   1.000  C
  C82      1.0000 0.69840  0.95170  0.02080  Biso   1.000  C
  C83      1.0000 0.80160  0.45170  0.47920  Biso   1.000  C
  C84      1.0000 0.30160  0.95170  0.47920  Biso   1.000  C
  C85      1.0000 0.80160  0.54830  0.97920  Biso   1.000  C
  C86      1.0000 0.30160  0.04830  0.97920  Biso   1.000  C
  C87      1.0000 0.19840  0.54830  0.52080  Biso   1.000  C
  C88      1.0000 0.69840  0.04830  0.52080  Biso   1.000  C
  C89      1.0000 0.29420  0.47990  0.04320  Biso   1.000  C
  C90      1.0000 0.79420  0.97990  0.04320  Biso   1.000  C
  C91      1.0000 0.70580  0.47990  0.45680  Biso   1.000  C
  C92      1.0000 0.20580  0.97990  0.45680  Biso   1.000  C
  C93      1.0000 0.70580  0.52010  0.95680  Biso   1.000  C
  C94      1.0000 0.20580  0.02010  0.95680  Biso   1.000  C
  C95      1.0000 0.29420  0.52010  0.54320  Biso   1.000  C
  C96      1.0000 0.79420  0.02010  0.54320  Biso   1.000  C
  F41      1.0000 0.42980  0.30364  0.15520  Biso   1.000  F
  F42      1.0000 0.92980  0.80364  0.15520  Biso   1.000  F
  F43      1.0000 0.57020  0.30364  0.34480  Biso   1.000  F
  F44      1.0000 0.07020  0.80364  0.34480  Biso   1.000  F
  F45      1.0000 0.57020  0.69636  0.84480  Biso   1.000  F
  F46      1.0000 0.07020  0.19636  0.84480  Biso   1.000  F
  F47      1.0000 0.42980  0.69636  0.65520  Biso   1.000  F
  F48      1.0000 0.92980  0.19636  0.65520  Biso   1.000  F
  F49      1.0000 0.24320  0.24759  0.11380  Biso   1.000  F
  F50      1.0000 0.74320  0.74759  0.11380  Biso   1.000  F
  F51      1.0000 0.75680  0.24759  0.38620  Biso   1.000  F
  F52      1.0000 0.25680  0.74759  0.38620  Biso   1.000  F
  F53      1.0000 0.75680  0.75241  0.88620  Biso   1.000  F
  F54      1.0000 0.25680  0.25241  0.88620  Biso   1.000  F
  F55      1.0000 0.24320  0.75241  0.61380  Biso   1.000  F
  F56      1.0000 0.74320  0.25241  0.61380  Biso   1.000  F
  F57      1.0000 0.08880  0.34530  0.02530  Biso   1.000  F
  F58      1.0000 0.58880  0.84530  0.02530  Biso   1.000  F
  F59      1.0000 0.91120  0.34530  0.47470  Biso   1.000  F
  F60      1.0000 0.41120  0.84530  0.47470  Biso   1.000  F
  F61      1.0000 0.91120  0.65470  0.97470  Biso   1.000  F
  F62      1.0000 0.41120  0.15470  0.97470  Biso   1.000  F
  F63      1.0000 0.08880  0.65470  0.52530  Biso   1.000  F
  F64      1.0000 0.58880  0.15470  0.52530  Biso   1.000  F
  F65      1.0000 0.12160  0.50039  0.97760  Biso   1.000  F
  F66      1.0000 0.62160  0.00039  0.97760  Biso   1.000  F
  F67      1.0000 0.87840  0.50039  0.52240  Biso   1.000  F
  F68      1.0000 0.37840  0.00039  0.52240  Biso   1.000  F
  F69      1.0000 0.87840  0.49961  0.02240  Biso   1.000  F
  F70      1.0000 0.37840  0.99961  0.02240  Biso   1.000  F
  F71      1.0000 0.12160  0.49961  0.47760  Biso   1.000  F
  F72      1.0000 0.62160  0.99961  0.47760  Biso   1.000  F
  F73      1.0000 0.30639  0.55907  0.02071  Biso   1.000  F
  F74      1.0000 0.80639  0.05907  0.02071  Biso   1.000  F
  F75      1.0000 0.69361  0.55907  0.47929  Biso   1.000  F
  F76      1.0000 0.19361  0.05907  0.47929  Biso   1.000  F
  F77      1.0000 0.69361  0.44093  0.97929  Biso   1.000  F
  F78      1.0000 0.19361  0.94093  0.97929  Biso   1.000  F
  F79      1.0000 0.30639  0.44093  0.52071  Biso   1.000  F
  F80      1.0000 0.80639  0.94093  0.52071  Biso   1.000  F
  N1       1.0000 0.47630  0.68260  0.04370  Biso   1.000  N
  N2       1.0000 0.97630  0.18260  0.04370  Biso   1.000  N
  N3       1.0000 0.52370  0.68260  0.45630  Biso   1.000  N
  N4       1.0000 0.02370  0.18260  0.45630  Biso   1.000  N
  N5       1.0000 0.52370  0.31740  0.95630  Biso   1.000  N
  N6       1.0000 0.02370  0.81740  0.95630  Biso   1.000  N
  N7       1.0000 0.47630  0.31740  0.54370  Biso   1.000  N
  N8       1.0000 0.97630  0.81740  0.54370  Biso   1.000  N
  C97      1.0000 0.43670  0.73800  0.06260  Biso   1.000  C
  C98      1.0000 0.93670  0.23800  0.06260  Biso   1.000  C
  C99      1.0000 0.56330  0.73800  0.43740  Biso   1.000  C
  C100     1.0000 0.06330  0.23800  0.43740  Biso   1.000  C
  C101     1.0000 0.56330  0.26200  0.93740  Biso   1.000  C
  C102     1.0000 0.06330  0.76200  0.93740  Biso   1.000  C
  C103     1.0000 0.43670  0.26200  0.56260  Biso   1.000  C
  C104     1.0000 0.93670  0.76200  0.56260  Biso   1.000  C
  C105     1.0000 0.38830  0.80980  0.08980  Biso   1.000  C
  C106     1.0000 0.88830  0.30980  0.08980  Biso   1.000  C
  C107     1.0000 0.61170  0.80980  0.41020  Biso   1.000  C
  C108     1.0000 0.11170  0.30980  0.41020  Biso   1.000  C
  C109     1.0000 0.61170  0.19020  0.91020  Biso   1.000  C
  C110     1.0000 0.11170  0.69020  0.91020  Biso   1.000  C
  C111     1.0000 0.38830  0.19020  0.58980  Biso   1.000  C
  C112     1.0000 0.88830  0.69020  0.58980  Biso   1.000  C
  H1       1.0000 0.35730  0.79540  0.14210  Biso   1.000  H
  H2       1.0000 0.85730  0.29540  0.14210  Biso   1.000  H
  H3       1.0000 0.64270  0.79540  0.35790  Biso   1.000  H
  H4       1.0000 0.14270  0.29540  0.35790  Biso   1.000  H
  H5       1.0000 0.64270  0.20460  0.85790  Biso   1.000  H
  H6       1.0000 0.14270  0.70460  0.85790  Biso   1.000  H
  H7       1.0000 0.35730  0.20460  0.64210  Biso   1.000  H
  H8       1.0000 0.85730  0.70460  0.64210  Biso   1.000  H
  H9       1.0000 0.33730  0.82960  0.03150  Biso   1.000  H
  H10      1.0000 0.83730  0.32960  0.03150  Biso   1.000  H
  H11      1.0000 0.66270  0.82960  0.46850  Biso   1.000  H
  H12      1.0000 0.16270  0.32960  0.46850  Biso   1.000  H
  H13      1.0000 0.66270  0.17040  0.96850  Biso   1.000  H
  H14      1.0000 0.16270  0.67040  0.96850  Biso   1.000  H
  H15      1.0000 0.33730  0.17040  0.53150  Biso   1.000  H
  H16      1.0000 0.83730  0.67040  0.53150  Biso   1.000  H
  H17      1.0000 0.43780  0.85250  0.11400  Biso   1.000  H
  H18      1.0000 0.93780  0.35250  0.11400  Biso   1.000  H
  H19      1.0000 0.56220  0.85250  0.38600  Biso   1.000  H
  H20      1.0000 0.06220  0.35250  0.38600  Biso   1.000  H
  H21      1.0000 0.56220  0.14750  0.88600  Biso   1.000  H
  H22      1.0000 0.06220  0.64750  0.88600  Biso   1.000  H
  H23      1.0000 0.43780  0.14750  0.61400  Biso   1.000  H
  H24      1.0000 0.93780  0.64750  0.61400  Biso   1.000  H
