data_image0
_cell_length_a       7.954
_cell_length_b       24.316
_cell_length_c       25.291
_cell_angle_alpha    90
_cell_angle_beta     90
_cell_angle_gamma    90

_symmetry_space_group_name_H-M    "P 1"
_symmetry_int_tables_number       1

loop_
  _symmetry_equiv_pos_as_xyz
  'x, y, z'

loop_
  _atom_site_label
  _atom_site_occupancy
  _atom_site_fract_x
  _atom_site_fract_y
  _atom_site_fract_z
  _atom_site_thermal_displace_type
  _atom_site_B_iso_or_equiv
  _atom_site_type_symbol
  I1       1.0000 0.06733  0.53878  0.13175  Biso   1.000  I
  I2       1.0000 0.56733  0.53878  0.36825  Biso   1.000  I
  I3       1.0000 0.06733  0.96122  0.63175  Biso   1.000  I
  I4       1.0000 0.43267  0.03878  0.13175  Biso   1.000  I
  I5       1.0000 0.93267  0.46122  0.86825  Biso   1.000  I
  I6       1.0000 0.43267  0.46122  0.63175  Biso   1.000  I
  I7       1.0000 0.93267  0.03878  0.36825  Biso   1.000  I
  I8       1.0000 0.56733  0.96122  0.86825  Biso   1.000  I
  I9       1.0000 0.56664  0.59420  0.20062  Biso   1.000  I
  I10      1.0000 0.06664  0.59420  0.29938  Biso   1.000  I
  I11      1.0000 0.56664  0.90580  0.70062  Biso   1.000  I
  I12      1.0000 0.93336  0.09420  0.20062  Biso   1.000  I
  I13      1.0000 0.43336  0.40580  0.79938  Biso   1.000  I
  I14      1.0000 0.93336  0.40580  0.70062  Biso   1.000  I
  I15      1.0000 0.43336  0.09420  0.29938  Biso   1.000  I
  I16      1.0000 0.06664  0.90580  0.79938  Biso   1.000  I
  I17      1.0000 0.31413  0.43863  0.24707  Biso   1.000  I
  I18      1.0000 0.81413  0.43863  0.25293  Biso   1.000  I
  I19      1.0000 0.31413  0.06137  0.74707  Biso   1.000  I
  I20      1.0000 0.18587  0.93863  0.24707  Biso   1.000  I
  I21      1.0000 0.68587  0.56137  0.75293  Biso   1.000  I
  I22      1.0000 0.18587  0.56137  0.74707  Biso   1.000  I
  I23      1.0000 0.68587  0.93863  0.25293  Biso   1.000  I
  I24      1.0000 0.81413  0.06137  0.75293  Biso   1.000  I
  Br1      1.0000 0.57430  0.46290  0.11013  Biso   1.000  Br
  Br2      1.0000 0.07430  0.46290  0.38987  Biso   1.000  Br
  Br3      1.0000 0.57430  0.03710  0.61013  Biso   1.000  Br
  Br4      1.0000 0.92570  0.96290  0.11013  Biso   1.000  Br
  Br5      1.0000 0.42570  0.53710  0.88987  Biso   1.000  Br
  Br6      1.0000 0.92570  0.53710  0.61013  Biso   1.000  Br
  Br7      1.0000 0.42570  0.96290  0.38987  Biso   1.000  Br
  Br8      1.0000 0.07430  0.03710  0.88987  Biso   1.000  Br
  Rb1      1.0000 0.40590  0.33610  0.09822  Biso   1.000  Rb
  Rb2      1.0000 0.90590  0.33610  0.40178  Biso   1.000  Rb
  Rb3      1.0000 0.40590  0.16390  0.59822  Biso   1.000  Rb
  Rb4      1.0000 0.09410  0.83610  0.09822  Biso   1.000  Rb
  Rb5      1.0000 0.59410  0.66390  0.90178  Biso   1.000  Rb
  Rb6      1.0000 0.09410  0.66390  0.59822  Biso   1.000  Rb
  Rb7      1.0000 0.59410  0.83610  0.40178  Biso   1.000  Rb
  Rb8      1.0000 0.90590  0.16390  0.90178  Biso   1.000  Rb
  Cu1      1.0000 0.06390  0.51258  0.23248  Biso   1.000  Cu
  Cu2      1.0000 0.56390  0.51258  0.26752  Biso   1.000  Cu
  Cu3      1.0000 0.06390  0.98742  0.73248  Biso   1.000  Cu
  Cu4      1.0000 0.43610  0.01258  0.23248  Biso   1.000  Cu
  Cu5      1.0000 0.93610  0.48742  0.76752  Biso   1.000  Cu
  Cu6      1.0000 0.43610  0.48742  0.73248  Biso   1.000  Cu
  Cu7      1.0000 0.93610  0.01258  0.26752  Biso   1.000  Cu
  Cu8      1.0000 0.56390  0.98742  0.76752  Biso   1.000  Cu
  Cu9      1.0000 0.36860  0.50953  0.16851  Biso   1.000  Cu
  Cu10     1.0000 0.86860  0.50953  0.33149  Biso   1.000  Cu
  Cu11     1.0000 0.36860  0.99047  0.66851  Biso   1.000  Cu
  Cu12     1.0000 0.13140  0.00953  0.16851  Biso   1.000  Cu
  Cu13     1.0000 0.63140  0.49047  0.83149  Biso   1.000  Cu
  Cu14     1.0000 0.13140  0.49047  0.66851  Biso   1.000  Cu
  Cu15     1.0000 0.63140  0.00953  0.33149  Biso   1.000  Cu
  Cu16     1.0000 0.86860  0.99047  0.83149  Biso   1.000  Cu
  Cu17     1.0000 0.76790  0.50982  0.17242  Biso   1.000  Cu
  Cu18     1.0000 0.26790  0.50982  0.32758  Biso   1.000  Cu
  Cu19     1.0000 0.76790  0.99018  0.67242  Biso   1.000  Cu
  Cu20     1.0000 0.73210  0.00982  0.17242  Biso   1.000  Cu
  Cu21     1.0000 0.23210  0.49018  0.82758  Biso   1.000  Cu
  Cu22     1.0000 0.73210  0.49018  0.67242  Biso   1.000  Cu
  Cu23     1.0000 0.23210  0.00982  0.32758  Biso   1.000  Cu
  Cu24     1.0000 0.26790  0.99018  0.82758  Biso   1.000  Cu
  O1       1.0000 0.30260  0.24960  0.17250  Biso   1.000  O
  O2       1.0000 0.80260  0.24960  0.32750  Biso   1.000  O
  O3       1.0000 0.30260  0.25040  0.67250  Biso   1.000  O
  O4       1.0000 0.19740  0.74960  0.17250  Biso   1.000  O
  O5       1.0000 0.69740  0.75040  0.82750  Biso   1.000  O
  O6       1.0000 0.19740  0.75040  0.67250  Biso   1.000  O
  O7       1.0000 0.69740  0.74960  0.32750  Biso   1.000  O
  O8       1.0000 0.80260  0.25040  0.82750  Biso   1.000  O
  O9       1.0000 0.56010  0.22520  0.09860  Biso   1.000  O
  O10      1.0000 0.06010  0.22520  0.40140  Biso   1.000  O
  O11      1.0000 0.56010  0.27480  0.59860  Biso   1.000  O
  O12      1.0000 0.93990  0.72520  0.09860  Biso   1.000  O
  O13      1.0000 0.43990  0.77480  0.90140  Biso   1.000  O
  O14      1.0000 0.93990  0.77480  0.59860  Biso   1.000  O
  O15      1.0000 0.43990  0.72520  0.40140  Biso   1.000  O
  O16      1.0000 0.06010  0.27480  0.90140  Biso   1.000  O
  O17      1.0000 0.65070  0.30070  0.02050  Biso   1.000  O
  O18      1.0000 0.15070  0.30070  0.47950  Biso   1.000  O
  O19      1.0000 0.65070  0.19930  0.52050  Biso   1.000  O
  O20      1.0000 0.84930  0.80070  0.02050  Biso   1.000  O
  O21      1.0000 0.34930  0.69930  0.97950  Biso   1.000  O
  O22      1.0000 0.84930  0.69930  0.52050  Biso   1.000  O
  O23      1.0000 0.34930  0.80070  0.47950  Biso   1.000  O
  O24      1.0000 0.15070  0.19930  0.97950  Biso   1.000  O
  O25      1.0000 0.41000  0.37440  0.98520  Biso   1.000  O
  O26      1.0000 0.91000  0.37440  0.51480  Biso   1.000  O
  O27      1.0000 0.41000  0.12560  0.48520  Biso   1.000  O
  O28      1.0000 0.09000  0.87440  0.98520  Biso   1.000  O
  O29      1.0000 0.59000  0.62560  0.01480  Biso   1.000  O
  O30      1.0000 0.09000  0.62560  0.48520  Biso   1.000  O
  O31      1.0000 0.59000  0.87440  0.51480  Biso   1.000  O
  O32      1.0000 0.91000  0.12560  0.01480  Biso   1.000  O
  O33      1.0000 0.13710  0.39380  0.05100  Biso   1.000  O
  O34      1.0000 0.63710  0.39380  0.44900  Biso   1.000  O
  O35      1.0000 0.13710  0.10620  0.55100  Biso   1.000  O
  O36      1.0000 0.36290  0.89380  0.05100  Biso   1.000  O
  O37      1.0000 0.86290  0.60620  0.94900  Biso   1.000  O
  O38      1.0000 0.36290  0.60620  0.55100  Biso   1.000  O
  O39      1.0000 0.86290  0.89380  0.44900  Biso   1.000  O
  O40      1.0000 0.63710  0.10620  0.94900  Biso   1.000  O
  O41      1.0000 0.05250  0.31820  0.13100  Biso   1.000  O
  O42      1.0000 0.55250  0.31820  0.36900  Biso   1.000  O
  O43      1.0000 0.05250  0.18180  0.63100  Biso   1.000  O
  O44      1.0000 0.44750  0.81820  0.13100  Biso   1.000  O
  O45      1.0000 0.94750  0.68180  0.86900  Biso   1.000  O
  O46      1.0000 0.44750  0.68180  0.63100  Biso   1.000  O
  O47      1.0000 0.94750  0.81820  0.36900  Biso   1.000  O
  O48      1.0000 0.55250  0.18180  0.86900  Biso   1.000  O
  C1       1.0000 0.38060  0.20000  0.16990  Biso   1.000  C
  C2       1.0000 0.88060  0.20000  0.33010  Biso   1.000  C
  C3       1.0000 0.38060  0.30000  0.66990  Biso   1.000  C
  C4       1.0000 0.11940  0.70000  0.16990  Biso   1.000  C
  C5       1.0000 0.61940  0.80000  0.83010  Biso   1.000  C
  C6       1.0000 0.11940  0.80000  0.66990  Biso   1.000  C
  C7       1.0000 0.61940  0.70000  0.33010  Biso   1.000  C
  C8       1.0000 0.88060  0.30000  0.83010  Biso   1.000  C
  H1       1.0000 0.31700  0.17570  0.14510  Biso   1.000  H
  H2       1.0000 0.81700  0.17570  0.35490  Biso   1.000  H
  H3       1.0000 0.31700  0.32430  0.64510  Biso   1.000  H
  H4       1.0000 0.18300  0.67570  0.14510  Biso   1.000  H
  H5       1.0000 0.68300  0.82430  0.85490  Biso   1.000  H
  H6       1.0000 0.18300  0.82430  0.64510  Biso   1.000  H
  H7       1.0000 0.68300  0.67570  0.35490  Biso   1.000  H
  H8       1.0000 0.81700  0.32430  0.85490  Biso   1.000  H
  H9       1.0000 0.38000  0.18260  0.20570  Biso   1.000  H
  H10      1.0000 0.88000  0.18260  0.29430  Biso   1.000  H
  H11      1.0000 0.38000  0.31740  0.70570  Biso   1.000  H
  H12      1.0000 0.12000  0.68260  0.20570  Biso   1.000  H
  H13      1.0000 0.62000  0.81740  0.79430  Biso   1.000  H
  H14      1.0000 0.12000  0.81740  0.70570  Biso   1.000  H
  H15      1.0000 0.62000  0.68260  0.29430  Biso   1.000  H
  H16      1.0000 0.88000  0.31740  0.79430  Biso   1.000  H
  C9       1.0000 0.55350  0.20410  0.15100  Biso   1.000  C
  C10      1.0000 0.05350  0.20410  0.34900  Biso   1.000  C
  C11      1.0000 0.55350  0.29590  0.65100  Biso   1.000  C
  C12      1.0000 0.94650  0.70410  0.15100  Biso   1.000  C
  C13      1.0000 0.44650  0.79590  0.84900  Biso   1.000  C
  C14      1.0000 0.94650  0.79590  0.65100  Biso   1.000  C
  C15      1.0000 0.44650  0.70410  0.34900  Biso   1.000  C
  C16      1.0000 0.05350  0.29590  0.84900  Biso   1.000  C
  H17      1.0000 0.61400  0.22990  0.17520  Biso   1.000  H
  H18      1.0000 0.11400  0.22990  0.32480  Biso   1.000  H
  H19      1.0000 0.61400  0.27010  0.67520  Biso   1.000  H
  H20      1.0000 0.88600  0.72990  0.17520  Biso   1.000  H
  H21      1.0000 0.38600  0.77010  0.82480  Biso   1.000  H
  H22      1.0000 0.88600  0.77010  0.67520  Biso   1.000  H
  H23      1.0000 0.38600  0.72990  0.32480  Biso   1.000  H
  H24      1.0000 0.11400  0.27010  0.82480  Biso   1.000  H
  H25      1.0000 0.61200  0.16770  0.15260  Biso   1.000  H
  H26      1.0000 0.11200  0.16770  0.34740  Biso   1.000  H
  H27      1.0000 0.61200  0.33230  0.65260  Biso   1.000  H
  H28      1.0000 0.88800  0.66770  0.15260  Biso   1.000  H
  H29      1.0000 0.38800  0.83230  0.84740  Biso   1.000  H
  H30      1.0000 0.88800  0.83230  0.65260  Biso   1.000  H
  H31      1.0000 0.38800  0.66770  0.34740  Biso   1.000  H
  H32      1.0000 0.11200  0.33230  0.84740  Biso   1.000  H
  C17      1.0000 0.72870  0.23020  0.08120  Biso   1.000  C
  C18      1.0000 0.22870  0.23020  0.41880  Biso   1.000  C
  C19      1.0000 0.72870  0.26980  0.58120  Biso   1.000  C
  C20      1.0000 0.77130  0.73020  0.08120  Biso   1.000  C
  C21      1.0000 0.27130  0.76980  0.91880  Biso   1.000  C
  C22      1.0000 0.77130  0.76980  0.58120  Biso   1.000  C
  C23      1.0000 0.27130  0.73020  0.41880  Biso   1.000  C
  C24      1.0000 0.22870  0.26980  0.91880  Biso   1.000  C
  H33      1.0000 0.78880  0.19430  0.08530  Biso   1.000  H
  H34      1.0000 0.28880  0.19430  0.41470  Biso   1.000  H
  H35      1.0000 0.78880  0.30570  0.58530  Biso   1.000  H
  H36      1.0000 0.71120  0.69430  0.08530  Biso   1.000  H
  H37      1.0000 0.21120  0.80570  0.91470  Biso   1.000  H
  H38      1.0000 0.71120  0.80570  0.58530  Biso   1.000  H
  H39      1.0000 0.21120  0.69430  0.41470  Biso   1.000  H
  H40      1.0000 0.28880  0.30570  0.91470  Biso   1.000  H
  H41      1.0000 0.78790  0.25860  0.10300  Biso   1.000  H
  H42      1.0000 0.28790  0.25860  0.39700  Biso   1.000  H
  H43      1.0000 0.78790  0.24140  0.60300  Biso   1.000  H
  H44      1.0000 0.71210  0.75860  0.10300  Biso   1.000  H
  H45      1.0000 0.21210  0.74140  0.89700  Biso   1.000  H
  H46      1.0000 0.71210  0.74140  0.60300  Biso   1.000  H
  H47      1.0000 0.21210  0.75860  0.39700  Biso   1.000  H
  H48      1.0000 0.28790  0.24140  0.89700  Biso   1.000  H
  C25      1.0000 0.72470  0.24730  0.02300  Biso   1.000  C
  C26      1.0000 0.22470  0.24730  0.47700  Biso   1.000  C
  C27      1.0000 0.72470  0.25270  0.52300  Biso   1.000  C
  C28      1.0000 0.77530  0.74730  0.02300  Biso   1.000  C
  C29      1.0000 0.27530  0.75270  0.97700  Biso   1.000  C
  C30      1.0000 0.77530  0.75270  0.52300  Biso   1.000  C
  C31      1.0000 0.27530  0.74730  0.47700  Biso   1.000  C
  C32      1.0000 0.22470  0.25270  0.97700  Biso   1.000  C
  H49      1.0000 0.84140  0.24960  0.00840  Biso   1.000  H
  H50      1.0000 0.34140  0.24960  0.49160  Biso   1.000  H
  H51      1.0000 0.84140  0.25040  0.50840  Biso   1.000  H
  H52      1.0000 0.65860  0.74960  0.00840  Biso   1.000  H
  H53      1.0000 0.15860  0.75040  0.99160  Biso   1.000  H
  H54      1.0000 0.65860  0.75040  0.50840  Biso   1.000  H
  H55      1.0000 0.15860  0.74960  0.49160  Biso   1.000  H
  H56      1.0000 0.34140  0.25040  0.99160  Biso   1.000  H
  H57      1.0000 0.65940  0.22010  0.00160  Biso   1.000  H
  H58      1.0000 0.15940  0.22010  0.49840  Biso   1.000  H
  H59      1.0000 0.65940  0.27990  0.50160  Biso   1.000  H
  H60      1.0000 0.84060  0.72010  0.00160  Biso   1.000  H
  H61      1.0000 0.34060  0.77990  0.99840  Biso   1.000  H
  H62      1.0000 0.84060  0.77990  0.50160  Biso   1.000  H
  H63      1.0000 0.34060  0.72010  0.49840  Biso   1.000  H
  H64      1.0000 0.15940  0.27990  0.99840  Biso   1.000  H
  C33      1.0000 0.66060  0.32120  0.97140  Biso   1.000  C
  C34      1.0000 0.16060  0.32120  0.52860  Biso   1.000  C
  C35      1.0000 0.66060  0.17880  0.47140  Biso   1.000  C
  C36      1.0000 0.83940  0.82120  0.97140  Biso   1.000  C
  C37      1.0000 0.33940  0.67880  0.02860  Biso   1.000  C
  C38      1.0000 0.83940  0.67880  0.47140  Biso   1.000  C
  C39      1.0000 0.33940  0.82120  0.52860  Biso   1.000  C
  C40      1.0000 0.16060  0.17880  0.02860  Biso   1.000  C
  H65      1.0000 0.61260  0.29610  0.94400  Biso   1.000  H
  H66      1.0000 0.11260  0.29610  0.55600  Biso   1.000  H
  H67      1.0000 0.61260  0.20390  0.44400  Biso   1.000  H
  H68      1.0000 0.88740  0.79610  0.94400  Biso   1.000  H
  H69      1.0000 0.38740  0.70390  0.05600  Biso   1.000  H
  H70      1.0000 0.88740  0.70390  0.44400  Biso   1.000  H
  H71      1.0000 0.38740  0.79610  0.55600  Biso   1.000  H
  H72      1.0000 0.11260  0.20390  0.05600  Biso   1.000  H
  H73      1.0000 0.78240  0.32650  0.96310  Biso   1.000  H
  H74      1.0000 0.28240  0.32650  0.53690  Biso   1.000  H
  H75      1.0000 0.78240  0.17350  0.46310  Biso   1.000  H
  H76      1.0000 0.71760  0.82650  0.96310  Biso   1.000  H
  H77      1.0000 0.21760  0.67350  0.03690  Biso   1.000  H
  H78      1.0000 0.71760  0.67350  0.46310  Biso   1.000  H
  H79      1.0000 0.21760  0.82650  0.53690  Biso   1.000  H
  H80      1.0000 0.28240  0.17350  0.03690  Biso   1.000  H
  C41      1.0000 0.57970  0.37560  0.96680  Biso   1.000  C
  C42      1.0000 0.07970  0.37560  0.53320  Biso   1.000  C
  C43      1.0000 0.57970  0.12440  0.46680  Biso   1.000  C
  C44      1.0000 0.92030  0.87560  0.96680  Biso   1.000  C
  C45      1.0000 0.42030  0.62440  0.03320  Biso   1.000  C
  C46      1.0000 0.92030  0.62440  0.46680  Biso   1.000  C
  C47      1.0000 0.42030  0.87560  0.53320  Biso   1.000  C
  C48      1.0000 0.07970  0.12440  0.03320  Biso   1.000  C
  H81      1.0000 0.64220  0.40350  0.98820  Biso   1.000  H
  H82      1.0000 0.14220  0.40350  0.51180  Biso   1.000  H
  H83      1.0000 0.64220  0.09650  0.48820  Biso   1.000  H
  H84      1.0000 0.85780  0.90350  0.98820  Biso   1.000  H
  H85      1.0000 0.35780  0.59650  0.01180  Biso   1.000  H
  H86      1.0000 0.85780  0.59650  0.48820  Biso   1.000  H
  H87      1.0000 0.35780  0.90350  0.51180  Biso   1.000  H
  H88      1.0000 0.14220  0.09650  0.01180  Biso   1.000  H
  H89      1.0000 0.57980  0.38810  0.92910  Biso   1.000  H
  H90      1.0000 0.07980  0.38810  0.57090  Biso   1.000  H
  H91      1.0000 0.57980  0.11190  0.42910  Biso   1.000  H
  H92      1.0000 0.92020  0.88810  0.92910  Biso   1.000  H
  H93      1.0000 0.42020  0.61190  0.07090  Biso   1.000  H
  H94      1.0000 0.92020  0.61190  0.42910  Biso   1.000  H
  H95      1.0000 0.42020  0.88810  0.57090  Biso   1.000  H
  H96      1.0000 0.07980  0.11190  0.07090  Biso   1.000  H
  C49      1.0000 0.31880  0.42390  0.98370  Biso   1.000  C
  C50      1.0000 0.81880  0.42390  0.51630  Biso   1.000  C
  C51      1.0000 0.31880  0.07610  0.48370  Biso   1.000  C
  C52      1.0000 0.18120  0.92390  0.98370  Biso   1.000  C
  C53      1.0000 0.68120  0.57610  0.01630  Biso   1.000  C
  C54      1.0000 0.18120  0.57610  0.48370  Biso   1.000  C
  C55      1.0000 0.68120  0.92390  0.51630  Biso   1.000  C
  C56      1.0000 0.81880  0.07610  0.01630  Biso   1.000  C
  H97      1.0000 0.32690  0.44020  0.94750  Biso   1.000  H
  H98      1.0000 0.82690  0.44020  0.55250  Biso   1.000  H
  H99      1.0000 0.32690  0.05980  0.44750  Biso   1.000  H
  H100     1.0000 0.17310  0.94020  0.94750  Biso   1.000  H
  H101     1.0000 0.67310  0.55980  0.05250  Biso   1.000  H
  H102     1.0000 0.17310  0.55980  0.44750  Biso   1.000  H
  H103     1.0000 0.67310  0.94020  0.55250  Biso   1.000  H
  H104     1.0000 0.82690  0.05980  0.05250  Biso   1.000  H
  H105     1.0000 0.36590  0.45060  0.00980  Biso   1.000  H
  H106     1.0000 0.86590  0.45060  0.49020  Biso   1.000  H
  H107     1.0000 0.36590  0.04940  0.50980  Biso   1.000  H
  H108     1.0000 0.13410  0.95060  0.00980  Biso   1.000  H
  H109     1.0000 0.63410  0.54940  0.99020  Biso   1.000  H
  H110     1.0000 0.13410  0.54940  0.50980  Biso   1.000  H
  H111     1.0000 0.63410  0.95060  0.49020  Biso   1.000  H
  H112     1.0000 0.86590  0.04940  0.99020  Biso   1.000  H
  C57      1.0000 0.13700  0.41230  0.99890  Biso   1.000  C
  C58      1.0000 0.63700  0.41230  0.50110  Biso   1.000  C
  C59      1.0000 0.13700  0.08770  0.49890  Biso   1.000  C
  C60      1.0000 0.36300  0.91230  0.99890  Biso   1.000  C
  C61      1.0000 0.86300  0.58770  0.00110  Biso   1.000  C
  C62      1.0000 0.36300  0.58770  0.49890  Biso   1.000  C
  C63      1.0000 0.86300  0.91230  0.50110  Biso   1.000  C
  C64      1.0000 0.63700  0.08770  0.00110  Biso   1.000  C
  H113     1.0000 0.06270  0.44520  0.99480  Biso   1.000  H
  H114     1.0000 0.56270  0.44520  0.50520  Biso   1.000  H
  H115     1.0000 0.06270  0.05480  0.49480  Biso   1.000  H
  H116     1.0000 0.43730  0.94520  0.99480  Biso   1.000  H
  H117     1.0000 0.93730  0.55480  0.00520  Biso   1.000  H
  H118     1.0000 0.43730  0.55480  0.49480  Biso   1.000  H
  H119     1.0000 0.93730  0.94520  0.50520  Biso   1.000  H
  H120     1.0000 0.56270  0.05480  0.00520  Biso   1.000  H
  H121     1.0000 0.09480  0.38240  0.97530  Biso   1.000  H
  H122     1.0000 0.59480  0.38240  0.52470  Biso   1.000  H
  H123     1.0000 0.09480  0.11760  0.47530  Biso   1.000  H
  H124     1.0000 0.40520  0.88240  0.97530  Biso   1.000  H
  H125     1.0000 0.90520  0.61760  0.02470  Biso   1.000  H
  H126     1.0000 0.40520  0.61760  0.47530  Biso   1.000  H
  H127     1.0000 0.90520  0.88240  0.52470  Biso   1.000  H
  H128     1.0000 0.59480  0.11760  0.02470  Biso   1.000  H
  C65      1.0000 0.97120  0.38450  0.06920  Biso   1.000  C
  C66      1.0000 0.47120  0.38450  0.43080  Biso   1.000  C
  C67      1.0000 0.97120  0.11550  0.56920  Biso   1.000  C
  C68      1.0000 0.52880  0.88450  0.06920  Biso   1.000  C
  C69      1.0000 0.02880  0.61550  0.93080  Biso   1.000  C
  C70      1.0000 0.52880  0.61550  0.56920  Biso   1.000  C
  C71      1.0000 0.02880  0.88450  0.43080  Biso   1.000  C
  C72      1.0000 0.47120  0.11550  0.93080  Biso   1.000  C
  H129     1.0000 0.91760  0.35400  0.04860  Biso   1.000  H
  H130     1.0000 0.41760  0.35400  0.45140  Biso   1.000  H
  H131     1.0000 0.91760  0.14600  0.54860  Biso   1.000  H
  H132     1.0000 0.58240  0.85400  0.04860  Biso   1.000  H
  H133     1.0000 0.08240  0.64600  0.95140  Biso   1.000  H
  H134     1.0000 0.58240  0.64600  0.54860  Biso   1.000  H
  H135     1.0000 0.08240  0.85400  0.45140  Biso   1.000  H
  H136     1.0000 0.41760  0.14600  0.95140  Biso   1.000  H
  H137     1.0000 0.90190  0.41840  0.06420  Biso   1.000  H
  H138     1.0000 0.40190  0.41840  0.43580  Biso   1.000  H
  H139     1.0000 0.90190  0.08160  0.56420  Biso   1.000  H
  H140     1.0000 0.59810  0.91840  0.06420  Biso   1.000  H
  H141     1.0000 0.09810  0.58160  0.93580  Biso   1.000  H
  H142     1.0000 0.59810  0.58160  0.56420  Biso   1.000  H
  H143     1.0000 0.09810  0.91840  0.43580  Biso   1.000  H
  H144     1.0000 0.40190  0.08160  0.93580  Biso   1.000  H
  C73      1.0000 0.97330  0.36950  0.12690  Biso   1.000  C
  C74      1.0000 0.47330  0.36950  0.37310  Biso   1.000  C
  C75      1.0000 0.97330  0.13050  0.62690  Biso   1.000  C
  C76      1.0000 0.52670  0.86950  0.12690  Biso   1.000  C
  C77      1.0000 0.02670  0.63050  0.87310  Biso   1.000  C
  C78      1.0000 0.52670  0.63050  0.62690  Biso   1.000  C
  C79      1.0000 0.02670  0.86950  0.37310  Biso   1.000  C
  C80      1.0000 0.47330  0.13050  0.87310  Biso   1.000  C
  H145     1.0000 0.03960  0.39700  0.14760  Biso   1.000  H
  H146     1.0000 0.53960  0.39700  0.35240  Biso   1.000  H
  H147     1.0000 0.03960  0.10300  0.64760  Biso   1.000  H
  H148     1.0000 0.46040  0.89700  0.14760  Biso   1.000  H
  H149     1.0000 0.96040  0.60300  0.85240  Biso   1.000  H
  H150     1.0000 0.46040  0.60300  0.64760  Biso   1.000  H
  H151     1.0000 0.96040  0.89700  0.35240  Biso   1.000  H
  H152     1.0000 0.53960  0.10300  0.85240  Biso   1.000  H
  H153     1.0000 0.85670  0.36780  0.14160  Biso   1.000  H
  H154     1.0000 0.35670  0.36780  0.35840  Biso   1.000  H
  H155     1.0000 0.85670  0.13220  0.64160  Biso   1.000  H
  H156     1.0000 0.64330  0.86780  0.14160  Biso   1.000  H
  H157     1.0000 0.14330  0.63220  0.85840  Biso   1.000  H
  H158     1.0000 0.64330  0.63220  0.64160  Biso   1.000  H
  H159     1.0000 0.14330  0.86780  0.35840  Biso   1.000  H
  H160     1.0000 0.35670  0.13220  0.85840  Biso   1.000  H
  C81      1.0000 0.05120  0.30130  0.18560  Biso   1.000  C
  C82      1.0000 0.55120  0.30130  0.31440  Biso   1.000  C
  C83      1.0000 0.05120  0.19870  0.68560  Biso   1.000  C
  C84      1.0000 0.44880  0.80130  0.18560  Biso   1.000  C
  C85      1.0000 0.94880  0.69870  0.81440  Biso   1.000  C
  C86      1.0000 0.44880  0.69870  0.68560  Biso   1.000  C
  C87      1.0000 0.94880  0.80130  0.31440  Biso   1.000  C
  C88      1.0000 0.55120  0.19870  0.81440  Biso   1.000  C
  H161     1.0000 0.93410  0.30030  0.20000  Biso   1.000  H
  H162     1.0000 0.43410  0.30030  0.30000  Biso   1.000  H
  H163     1.0000 0.93410  0.19970  0.70000  Biso   1.000  H
  H164     1.0000 0.56590  0.80030  0.20000  Biso   1.000  H
  H165     1.0000 0.06590  0.69970  0.80000  Biso   1.000  H
  H166     1.0000 0.56590  0.69970  0.70000  Biso   1.000  H
  H167     1.0000 0.06590  0.80030  0.30000  Biso   1.000  H
  H168     1.0000 0.43410  0.19970  0.80000  Biso   1.000  H
  H169     1.0000 0.11990  0.32730  0.20730  Biso   1.000  H
  H170     1.0000 0.61990  0.32730  0.29270  Biso   1.000  H
  H171     1.0000 0.11990  0.17270  0.70730  Biso   1.000  H
  H172     1.0000 0.38010  0.82730  0.20730  Biso   1.000  H
  H173     1.0000 0.88010  0.67270  0.79270  Biso   1.000  H
  H174     1.0000 0.38010  0.67270  0.70730  Biso   1.000  H
  H175     1.0000 0.88010  0.82730  0.29270  Biso   1.000  H
  H176     1.0000 0.61990  0.17270  0.79270  Biso   1.000  H
  C89      1.0000 0.12880  0.24730  0.18690  Biso   1.000  C
  C90      1.0000 0.62880  0.24730  0.31310  Biso   1.000  C
  C91      1.0000 0.12880  0.25270  0.68690  Biso   1.000  C
  C92      1.0000 0.37120  0.74730  0.18690  Biso   1.000  C
  C93      1.0000 0.87120  0.75270  0.81310  Biso   1.000  C
  C94      1.0000 0.37120  0.75270  0.68690  Biso   1.000  C
  C95      1.0000 0.87120  0.74730  0.31310  Biso   1.000  C
  C96      1.0000 0.62880  0.25270  0.81310  Biso   1.000  C
  H177     1.0000 0.11630  0.23020  0.22260  Biso   1.000  H
  H178     1.0000 0.61630  0.23020  0.27740  Biso   1.000  H
  H179     1.0000 0.11630  0.26980  0.72260  Biso   1.000  H
  H180     1.0000 0.38370  0.73020  0.22260  Biso   1.000  H
  H181     1.0000 0.88370  0.76980  0.77740  Biso   1.000  H
  H182     1.0000 0.38370  0.76980  0.72260  Biso   1.000  H
  H183     1.0000 0.88370  0.73020  0.27740  Biso   1.000  H
  H184     1.0000 0.61630  0.26980  0.77740  Biso   1.000  H
  H185     1.0000 0.06900  0.22340  0.16070  Biso   1.000  H
  H186     1.0000 0.56900  0.22340  0.33930  Biso   1.000  H
  H187     1.0000 0.06900  0.27660  0.66070  Biso   1.000  H
  H188     1.0000 0.43100  0.72340  0.16070  Biso   1.000  H
  H189     1.0000 0.93100  0.77660  0.83930  Biso   1.000  H
  H190     1.0000 0.43100  0.77660  0.66070  Biso   1.000  H
  H191     1.0000 0.93100  0.72340  0.33930  Biso   1.000  H
  H192     1.0000 0.56900  0.27660  0.83930  Biso   1.000  H
