data_image0
_cell_length_a       10.624
_cell_length_b       10.862
_cell_length_c       11.206
_cell_angle_alpha    84.36
_cell_angle_beta     75.44
_cell_angle_gamma    77.33

_symmetry_space_group_name_H-M    "P 1"
_symmetry_int_tables_number       1

loop_
  _symmetry_equiv_pos_as_xyz
  'x, y, z'

loop_
  _atom_site_label
  _atom_site_occupancy
  _atom_site_fract_x
  _atom_site_fract_y
  _atom_site_fract_z
  _atom_site_thermal_displace_type
  _atom_site_B_iso_or_equiv
  _atom_site_type_symbol
  Rb1      1.0000 0.23298  0.71535  0.20371  Biso   1.000  Rb
  Rb2      1.0000 0.76702  0.28465  0.79629  Biso   1.000  Rb
  Cu1      1.0000 0.02647  0.98406  0.37568  Biso   1.000  Cu
  Cu2      1.0000 0.97353  0.01594  0.62432  Biso   1.000  Cu
  Cu3      1.0000 0.46524  0.13538  0.47451  Biso   1.000  Cu
  Cu4      1.0000 0.53476  0.86462  0.52549  Biso   1.000  Cu
  S1       1.0000 0.66360  0.83260  0.32540  Biso   1.000  S
  S2       1.0000 0.33640  0.16740  0.67460  Biso   1.000  S
  S3       1.0000 0.10510  0.82265  0.52660  Biso   1.000  S
  S4       1.0000 0.89490  0.17735  0.47340  Biso   1.000  S
  S5       1.0000 0.19960  0.04370  0.23230  Biso   1.000  S
  S6       1.0000 0.80040  0.95630  0.76770  Biso   1.000  S
  N1       1.0000 0.89980  0.89880  0.33730  Biso   1.000  N
  N2       1.0000 0.10020  0.10120  0.66270  Biso   1.000  N
  N3       1.0000 0.36270  0.83420  0.53720  Biso   1.000  N
  N4       1.0000 0.63730  0.16580  0.46280  Biso   1.000  N
  N5       1.0000 0.36180  0.10460  0.37000  Biso   1.000  N
  N6       1.0000 0.63820  0.89540  0.63000  Biso   1.000  N
  O1       1.0000 0.34610  0.49140  0.33770  Biso   1.000  O
  O2       1.0000 0.65390  0.50860  0.66230  Biso   1.000  O
  O3       1.0000 0.09540  0.50840  0.31120  Biso   1.000  O
  O4       1.0000 0.90460  0.49160  0.68880  Biso   1.000  O
  O5       1.0000 0.04800  0.63040  0.08440  Biso   1.000  O
  O6       1.0000 0.95200  0.36960  0.91560  Biso   1.000  O
  O7       1.0000 0.17780  0.82510  0.97130  Biso   1.000  O
  O8       1.0000 0.82220  0.17490  0.02870  Biso   1.000  O
  O9       1.0000 0.43420  0.77380  0.98110  Biso   1.000  O
  O10      1.0000 0.56580  0.22620  0.01890  Biso   1.000  O
  O11      1.0000 0.51260  0.61680  0.16970  Biso   1.000  O
  O12      1.0000 0.48740  0.38320  0.83030  Biso   1.000  O
  C1       1.0000 0.80220  0.87090  0.33510  Biso   1.000  C
  C2       1.0000 0.19780  0.12910  0.66490  Biso   1.000  C
  C3       1.0000 0.25760  0.83150  0.53170  Biso   1.000  C
  C4       1.0000 0.74240  0.16850  0.46830  Biso   1.000  C
  C5       1.0000 0.29330  0.07730  0.31550  Biso   1.000  C
  C6       1.0000 0.70670  0.92270  0.68450  Biso   1.000  C
  C7       1.0000 0.24770  0.45830  0.43610  Biso   1.000  C
  C8       1.0000 0.75230  0.54170  0.56390  Biso   1.000  C
  H1       1.0000 0.19630  0.53340  0.48450  Biso   1.000  H
  H2       1.0000 0.80370  0.46660  0.51550  Biso   1.000  H
  H3       1.0000 0.28610  0.39260  0.49330  Biso   1.000  H
  H4       1.0000 0.71390  0.60740  0.50670  Biso   1.000  H
  C9       1.0000 0.15920  0.41070  0.38090  Biso   1.000  C
  C10      1.0000 0.84080  0.58930  0.61910  Biso   1.000  C
  H5       1.0000 0.21300  0.34120  0.32600  Biso   1.000  H
  H6       1.0000 0.78700  0.65880  0.67400  Biso   1.000  H
  H7       1.0000 0.09140  0.37540  0.44600  Biso   1.000  H
  H8       1.0000 0.90860  0.62460  0.55400  Biso   1.000  H
  C11      1.0000 0.03130  0.46270  0.23530  Biso   1.000  C
  C12      1.0000 0.96870  0.53730  0.76470  Biso   1.000  C
  H9       1.0000 0.96890  0.41070  0.28680  Biso   1.000  H
  H10      1.0000 0.03110  0.58930  0.71320  Biso   1.000  H
  H11      1.0000 0.09830  0.40740  0.17300  Biso   1.000  H
  H12      1.0000 0.90170  0.59260  0.82700  Biso   1.000  H
  C13      1.0000 0.95900  0.56820  0.17080  Biso   1.000  C
  C14      1.0000 0.04100  0.43180  0.82920  Biso   1.000  C
  H13      1.0000 0.90280  0.53570  0.12670  Biso   1.000  H
  H14      1.0000 0.09720  0.46430  0.87330  Biso   1.000  H
  H15      1.0000 0.89930  0.62870  0.23260  Biso   1.000  H
  H16      1.0000 0.10070  0.37130  0.76740  Biso   1.000  H
  C15      1.0000 0.98350  0.74030  0.02770  Biso   1.000  C
  C16      1.0000 0.01650  0.25970  0.97230  Biso   1.000  C
  H17      1.0000 0.94500  0.80680  0.08980  Biso   1.000  H
  H18      1.0000 0.05500  0.19320  0.91020  Biso   1.000  H
  H19      1.0000 0.90950  0.72090  0.99710  Biso   1.000  H
  H20      1.0000 0.09050  0.27910  0.00290  Biso   1.000  H
  C17      1.0000 0.08130  0.78740  0.92550  Biso   1.000  C
  C18      1.0000 0.91870  0.21260  0.07450  Biso   1.000  C
  H21      1.0000 0.12490  0.71840  0.86670  Biso   1.000  H
  H22      1.0000 0.87510  0.28160  0.13330  Biso   1.000  H
  H23      1.0000 0.03580  0.86040  0.87990  Biso   1.000  H
  H24      1.0000 0.96420  0.13960  0.12010  Biso   1.000  H
  C19      1.0000 0.27920  0.85970  0.87330  Biso   1.000  C
  C20      1.0000 0.72080  0.14030  0.12670  Biso   1.000  C
  H25      1.0000 0.24190  0.93490  0.82470  Biso   1.000  H
  H26      1.0000 0.75810  0.06510  0.17530  Biso   1.000  H
  H27      1.0000 0.31870  0.78840  0.81650  Biso   1.000  H
  H28      1.0000 0.68130  0.21160  0.18350  Biso   1.000  H
  C21      1.0000 0.38430  0.88730  0.92430  Biso   1.000  C
  C22      1.0000 0.61570  0.11270  0.07570  Biso   1.000  C
  H29      1.0000 0.45410  0.91820  0.85780  Biso   1.000  H
  H30      1.0000 0.54590  0.08180  0.14220  Biso   1.000  H
  H31      1.0000 0.34440  0.95440  0.98570  Biso   1.000  H
  H32      1.0000 0.65560  0.04560  0.01430  Biso   1.000  H
  C23      1.0000 0.55720  0.76580  0.00780  Biso   1.000  C
  C24      1.0000 0.44280  0.23420  0.99220  Biso   1.000  C
  H33      1.0000 0.54890  0.83510  0.06350  Biso   1.000  H
  H34      1.0000 0.45110  0.16490  0.93650  Biso   1.000  H
  H35      1.0000 0.62160  0.78210  0.92880  Biso   1.000  H
  H36      1.0000 0.37840  0.21790  0.07120  Biso   1.000  H
  C25      1.0000 0.60640  0.64650  0.06610  Biso   1.000  C
  C26      1.0000 0.39360  0.35350  0.93390  Biso   1.000  C
  H37      1.0000 0.63260  0.57880  0.00510  Biso   1.000  H
  H38      1.0000 0.36740  0.42120  0.99490  Biso   1.000  H
  H39      1.0000 0.68790  0.65550  0.09090  Biso   1.000  H
  H40      1.0000 0.31210  0.34450  0.90910  Biso   1.000  H
  C27      1.0000 0.56800  0.51580  0.23640  Biso   1.000  C
  C28      1.0000 0.43200  0.48420  0.76360  Biso   1.000  C
  H41      1.0000 0.63480  0.54310  0.27140  Biso   1.000  H
  H42      1.0000 0.36520  0.45690  0.72860  Biso   1.000  H
  H43      1.0000 0.61430  0.44030  0.18680  Biso   1.000  H
  H44      1.0000 0.38570  0.55970  0.81320  Biso   1.000  H
  C29      1.0000 0.46930  0.50010  0.35420  Biso   1.000  C
  C30      1.0000 0.53070  0.49990  0.64580  Biso   1.000  C
  H45      1.0000 0.49980  0.40820  0.37380  Biso   1.000  H
  H46      1.0000 0.50020  0.59180  0.62620  Biso   1.000  H
  H47      1.0000 0.47040  0.54560  0.42710  Biso   1.000  H
  H48      1.0000 0.52960  0.45440  0.57290  Biso   1.000  H
