data_image0
_cell_length_a       12.365
_cell_length_b       7.843
_cell_length_c       28.896
_cell_angle_alpha    90
_cell_angle_beta     90
_cell_angle_gamma    90

_symmetry_space_group_name_H-M    "P 1"
_symmetry_int_tables_number       1

loop_
  _symmetry_equiv_pos_as_xyz
  'x, y, z'

loop_
  _atom_site_label
  _atom_site_occupancy
  _atom_site_fract_x
  _atom_site_fract_y
  _atom_site_fract_z
  _atom_site_thermal_displace_type
  _atom_site_B_iso_or_equiv
  _atom_site_type_symbol
  Cu1      1.0000 0.41778  0.52497  0.65343  Biso   1.000  Cu
  Cu2      1.0000 0.08222  0.47503  0.15343  Biso   1.000  Cu
  Cu3      1.0000 0.58222  0.02497  0.84657  Biso   1.000  Cu
  Cu4      1.0000 0.91778  0.97503  0.34657  Biso   1.000  Cu
  Cu5      1.0000 0.58222  0.47503  0.34657  Biso   1.000  Cu
  Cu6      1.0000 0.91778  0.52497  0.84657  Biso   1.000  Cu
  Cu7      1.0000 0.41778  0.97503  0.15343  Biso   1.000  Cu
  Cu8      1.0000 0.08222  0.02497  0.65343  Biso   1.000  Cu
  Cu9      1.0000 0.49740  0.67700  0.56291  Biso   1.000  Cu
  Cu10     1.0000 0.00260  0.32300  0.06291  Biso   1.000  Cu
  Cu11     1.0000 0.50260  0.17700  0.93709  Biso   1.000  Cu
  Cu12     1.0000 0.99740  0.82300  0.43709  Biso   1.000  Cu
  Cu13     1.0000 0.50260  0.32300  0.43709  Biso   1.000  Cu
  Cu14     1.0000 0.99740  0.67700  0.93709  Biso   1.000  Cu
  Cu15     1.0000 0.49740  0.82300  0.06291  Biso   1.000  Cu
  Cu16     1.0000 0.00260  0.17700  0.56291  Biso   1.000  Cu
  N1       1.0000 0.56550  0.46450  0.63366  Biso   1.000  N
  N2       1.0000 0.93450  0.53550  0.13366  Biso   1.000  N
  N3       1.0000 0.43450  0.96450  0.86634  Biso   1.000  N
  N4       1.0000 0.06550  0.03550  0.36634  Biso   1.000  N
  N5       1.0000 0.43450  0.53550  0.36634  Biso   1.000  N
  N6       1.0000 0.06550  0.46450  0.86634  Biso   1.000  N
  N7       1.0000 0.56550  0.03550  0.13366  Biso   1.000  N
  N8       1.0000 0.93450  0.96450  0.63366  Biso   1.000  N
  N9       1.0000 0.60290  0.54720  0.59537  Biso   1.000  N
  N10      1.0000 0.89710  0.45280  0.09537  Biso   1.000  N
  N11      1.0000 0.39710  0.04720  0.90463  Biso   1.000  N
  N12      1.0000 0.10290  0.95280  0.40463  Biso   1.000  N
  N13      1.0000 0.39710  0.45280  0.40463  Biso   1.000  N
  N14      1.0000 0.10290  0.54720  0.90463  Biso   1.000  N
  N15      1.0000 0.60290  0.95280  0.09537  Biso   1.000  N
  N16      1.0000 0.89710  0.04720  0.59537  Biso   1.000  N
  N17      1.0000 0.60860  0.08720  0.77662  Biso   1.000  N
  N18      1.0000 0.89140  0.91280  0.27662  Biso   1.000  N
  N19      1.0000 0.39140  0.58720  0.72338  Biso   1.000  N
  N20      1.0000 0.10860  0.41280  0.22338  Biso   1.000  N
  N21      1.0000 0.39140  0.91280  0.22338  Biso   1.000  N
  N22      1.0000 0.10860  0.08720  0.72338  Biso   1.000  N
  N23      1.0000 0.60860  0.41280  0.27662  Biso   1.000  N
  N24      1.0000 0.89140  0.58720  0.77662  Biso   1.000  N
  N25      1.0000 0.90910  0.74010  0.48663  Biso   1.000  N
  N26      1.0000 0.59090  0.25990  0.98663  Biso   1.000  N
  N27      1.0000 0.09090  0.24010  0.01337  Biso   1.000  N
  N28      1.0000 0.40910  0.75990  0.51337  Biso   1.000  N
  N29      1.0000 0.09090  0.25990  0.51337  Biso   1.000  N
  N30      1.0000 0.40910  0.74010  0.01337  Biso   1.000  N
  N31      1.0000 0.90910  0.75990  0.98663  Biso   1.000  N
  N32      1.0000 0.59090  0.24010  0.48663  Biso   1.000  N
  N33      1.0000 0.27720  0.45090  0.63265  Biso   1.000  N
  N34      1.0000 0.22280  0.54910  0.13265  Biso   1.000  N
  N35      1.0000 0.72280  0.95090  0.86735  Biso   1.000  N
  N36      1.0000 0.77720  0.04910  0.36735  Biso   1.000  N
  N37      1.0000 0.72280  0.54910  0.36735  Biso   1.000  N
  N38      1.0000 0.77720  0.45090  0.86735  Biso   1.000  N
  N39      1.0000 0.27720  0.04910  0.13265  Biso   1.000  N
  N40      1.0000 0.22280  0.95090  0.63265  Biso   1.000  N
  S1       1.0000 0.06127  0.34488  0.63392  Biso   1.000  S
  S2       1.0000 0.43873  0.65512  0.13392  Biso   1.000  S
  S3       1.0000 0.93873  0.84488  0.86608  Biso   1.000  S
  S4       1.0000 0.56127  0.15512  0.36608  Biso   1.000  S
  S5       1.0000 0.93873  0.65512  0.36608  Biso   1.000  S
  S6       1.0000 0.56127  0.34488  0.86608  Biso   1.000  S
  S7       1.0000 0.06127  0.15512  0.13392  Biso   1.000  S
  S8       1.0000 0.43873  0.84488  0.63392  Biso   1.000  S
  C1       1.0000 0.53820  0.20590  0.70638  Biso   1.000  C
  C2       1.0000 0.96180  0.79410  0.20638  Biso   1.000  C
  C3       1.0000 0.46180  0.70590  0.79362  Biso   1.000  C
  C4       1.0000 0.03820  0.29410  0.29362  Biso   1.000  C
  C5       1.0000 0.46180  0.79410  0.29362  Biso   1.000  C
  C6       1.0000 0.03820  0.20590  0.79362  Biso   1.000  C
  C7       1.0000 0.53820  0.29410  0.20638  Biso   1.000  C
  C8       1.0000 0.96180  0.70590  0.70638  Biso   1.000  C
  H1       1.0000 0.47950  0.21790  0.68650  Biso   1.000  H
  H2       1.0000 0.02050  0.78210  0.18650  Biso   1.000  H
  H3       1.0000 0.52050  0.71790  0.81350  Biso   1.000  H
  H4       1.0000 0.97950  0.28210  0.31350  Biso   1.000  H
  H5       1.0000 0.52050  0.78210  0.31350  Biso   1.000  H
  H6       1.0000 0.97950  0.21790  0.81350  Biso   1.000  H
  H7       1.0000 0.47950  0.28210  0.18650  Biso   1.000  H
  H8       1.0000 0.02050  0.71790  0.68650  Biso   1.000  H
  C9       1.0000 0.52810  0.11230  0.74644  Biso   1.000  C
  C10      1.0000 0.97190  0.88770  0.24644  Biso   1.000  C
  C11      1.0000 0.47190  0.61230  0.75356  Biso   1.000  C
  C12      1.0000 0.02810  0.38770  0.25356  Biso   1.000  C
  C13      1.0000 0.47190  0.88770  0.25356  Biso   1.000  C
  C14      1.0000 0.02810  0.11230  0.75356  Biso   1.000  C
  C15      1.0000 0.52810  0.38770  0.24644  Biso   1.000  C
  C16      1.0000 0.97190  0.61230  0.74644  Biso   1.000  C
  H9       1.0000 0.46130  0.06340  0.75290  Biso   1.000  H
  H10      1.0000 0.03870  0.93660  0.25290  Biso   1.000  H
  H11      1.0000 0.53870  0.56340  0.74710  Biso   1.000  H
  H12      1.0000 0.96130  0.43660  0.24710  Biso   1.000  H
  H13      1.0000 0.53870  0.93660  0.24710  Biso   1.000  H
  H14      1.0000 0.96130  0.06340  0.74710  Biso   1.000  H
  H15      1.0000 0.46130  0.43660  0.25290  Biso   1.000  H
  H16      1.0000 0.03870  0.56340  0.75290  Biso   1.000  H
  C17      1.0000 0.70380  0.15680  0.76526  Biso   1.000  C
  C18      1.0000 0.79620  0.84320  0.26526  Biso   1.000  C
  C19      1.0000 0.29620  0.65680  0.73474  Biso   1.000  C
  C20      1.0000 0.20380  0.34320  0.23474  Biso   1.000  C
  C21      1.0000 0.29620  0.84320  0.23474  Biso   1.000  C
  C22      1.0000 0.20380  0.15680  0.73474  Biso   1.000  C
  C23      1.0000 0.70380  0.34320  0.26526  Biso   1.000  C
  C24      1.0000 0.79620  0.65680  0.76526  Biso   1.000  C
  H17      1.0000 0.76190  0.13890  0.78510  Biso   1.000  H
  H18      1.0000 0.73810  0.86110  0.28510  Biso   1.000  H
  H19      1.0000 0.23810  0.63890  0.71490  Biso   1.000  H
  H20      1.0000 0.26190  0.36110  0.21490  Biso   1.000  H
  H21      1.0000 0.23810  0.86110  0.21490  Biso   1.000  H
  H22      1.0000 0.26190  0.13890  0.71490  Biso   1.000  H
  H23      1.0000 0.76190  0.36110  0.28510  Biso   1.000  H
  H24      1.0000 0.73810  0.63890  0.78510  Biso   1.000  H
  C25      1.0000 0.72120  0.25280  0.72630  Biso   1.000  C
  C26      1.0000 0.77880  0.74720  0.22630  Biso   1.000  C
  C27      1.0000 0.27880  0.75280  0.77370  Biso   1.000  C
  C28      1.0000 0.22120  0.24720  0.27370  Biso   1.000  C
  C29      1.0000 0.27880  0.74720  0.27370  Biso   1.000  C
  C30      1.0000 0.22120  0.25280  0.77370  Biso   1.000  C
  C31      1.0000 0.72120  0.24720  0.22630  Biso   1.000  C
  C32      1.0000 0.77880  0.75280  0.72630  Biso   1.000  C
  H25      1.0000 0.78930  0.29780  0.72030  Biso   1.000  H
  H26      1.0000 0.71070  0.70220  0.22030  Biso   1.000  H
  H27      1.0000 0.21070  0.79780  0.77970  Biso   1.000  H
  H28      1.0000 0.28930  0.20220  0.27970  Biso   1.000  H
  H29      1.0000 0.21070  0.70220  0.27970  Biso   1.000  H
  H30      1.0000 0.28930  0.29780  0.77970  Biso   1.000  H
  H31      1.0000 0.78930  0.20220  0.22030  Biso   1.000  H
  H32      1.0000 0.71070  0.79780  0.72030  Biso   1.000  H
  C33      1.0000 0.63630  0.28240  0.69576  Biso   1.000  C
  C34      1.0000 0.86370  0.71760  0.19576  Biso   1.000  C
  C35      1.0000 0.36370  0.78240  0.80424  Biso   1.000  C
  C36      1.0000 0.13630  0.21760  0.30424  Biso   1.000  C
  C37      1.0000 0.36370  0.71760  0.30424  Biso   1.000  C
  C38      1.0000 0.13630  0.28240  0.80424  Biso   1.000  C
  C39      1.0000 0.63630  0.21760  0.19576  Biso   1.000  C
  C40      1.0000 0.86370  0.78240  0.69576  Biso   1.000  C
  C41      1.0000 0.65090  0.38870  0.65449  Biso   1.000  C
  C42      1.0000 0.84910  0.61130  0.15449  Biso   1.000  C
  C43      1.0000 0.34910  0.88870  0.84551  Biso   1.000  C
  C44      1.0000 0.15090  0.11130  0.34551  Biso   1.000  C
  C45      1.0000 0.34910  0.61130  0.34551  Biso   1.000  C
  C46      1.0000 0.15090  0.38870  0.84551  Biso   1.000  C
  C47      1.0000 0.65090  0.11130  0.15449  Biso   1.000  C
  C48      1.0000 0.84910  0.88870  0.65449  Biso   1.000  C
  C49      1.0000 0.74460  0.42560  0.63034  Biso   1.000  C
  C50      1.0000 0.75540  0.57440  0.13034  Biso   1.000  C
  C51      1.0000 0.25540  0.92560  0.86966  Biso   1.000  C
  C52      1.0000 0.24460  0.07440  0.36966  Biso   1.000  C
  C53      1.0000 0.25540  0.57440  0.36966  Biso   1.000  C
  C54      1.0000 0.24460  0.42560  0.86966  Biso   1.000  C
  C55      1.0000 0.74460  0.07440  0.13034  Biso   1.000  C
  C56      1.0000 0.75540  0.92560  0.63034  Biso   1.000  C
  H33      1.0000 0.81470  0.39170  0.63750  Biso   1.000  H
  H34      1.0000 0.68530  0.60830  0.13750  Biso   1.000  H
  H35      1.0000 0.18530  0.89170  0.86250  Biso   1.000  H
  H36      1.0000 0.31470  0.10830  0.36250  Biso   1.000  H
  H37      1.0000 0.18530  0.60830  0.36250  Biso   1.000  H
  H38      1.0000 0.31470  0.39170  0.86250  Biso   1.000  H
  H39      1.0000 0.81470  0.10830  0.13750  Biso   1.000  H
  H40      1.0000 0.68530  0.89170  0.63750  Biso   1.000  H
  C57      1.0000 0.71150  0.52400  0.59313  Biso   1.000  C
  C58      1.0000 0.78850  0.47600  0.09313  Biso   1.000  C
  C59      1.0000 0.28850  0.02400  0.90687  Biso   1.000  C
  C60      1.0000 0.21150  0.97600  0.40687  Biso   1.000  C
  C61      1.0000 0.28850  0.47600  0.40687  Biso   1.000  C
  C62      1.0000 0.21150  0.52400  0.90687  Biso   1.000  C
  C63      1.0000 0.71150  0.97600  0.09313  Biso   1.000  C
  C64      1.0000 0.78850  0.02400  0.59313  Biso   1.000  C
  C65      1.0000 0.77770  0.59720  0.55584  Biso   1.000  C
  C66      1.0000 0.72230  0.40280  0.05584  Biso   1.000  C
  C67      1.0000 0.22230  0.09720  0.94416  Biso   1.000  C
  C68      1.0000 0.27770  0.90280  0.44416  Biso   1.000  C
  C69      1.0000 0.22230  0.40280  0.44416  Biso   1.000  C
  C70      1.0000 0.27770  0.59720  0.94416  Biso   1.000  C
  C71      1.0000 0.77770  0.90280  0.05584  Biso   1.000  C
  C72      1.0000 0.72230  0.09720  0.55584  Biso   1.000  C
  C73      1.0000 0.88830  0.61870  0.56222  Biso   1.000  C
  C74      1.0000 0.61170  0.38130  0.06222  Biso   1.000  C
  C75      1.0000 0.11170  0.11870  0.93778  Biso   1.000  C
  C76      1.0000 0.38830  0.88130  0.43778  Biso   1.000  C
  C77      1.0000 0.11170  0.38130  0.43778  Biso   1.000  C
  C78      1.0000 0.38830  0.61870  0.93778  Biso   1.000  C
  C79      1.0000 0.88830  0.88130  0.06222  Biso   1.000  C
  C80      1.0000 0.61170  0.11870  0.56222  Biso   1.000  C
  H41      1.0000 0.92080  0.58470  0.58970  Biso   1.000  H
  H42      1.0000 0.57920  0.41530  0.08970  Biso   1.000  H
  H43      1.0000 0.07920  0.08470  0.91030  Biso   1.000  H
  H44      1.0000 0.42080  0.91530  0.41030  Biso   1.000  H
  H45      1.0000 0.07920  0.41530  0.41030  Biso   1.000  H
  H46      1.0000 0.42080  0.58470  0.91030  Biso   1.000  H
  H47      1.0000 0.92080  0.91530  0.08970  Biso   1.000  H
  H48      1.0000 0.57920  0.08470  0.58970  Biso   1.000  H
  C81      1.0000 0.94920  0.69040  0.52764  Biso   1.000  C
  C82      1.0000 0.55080  0.30960  0.02764  Biso   1.000  C
  C83      1.0000 0.05080  0.19040  0.97236  Biso   1.000  C
  C84      1.0000 0.44920  0.80960  0.47236  Biso   1.000  C
  C85      1.0000 0.05080  0.30960  0.47236  Biso   1.000  C
  C86      1.0000 0.44920  0.69040  0.97236  Biso   1.000  C
  C87      1.0000 0.94920  0.80960  0.02764  Biso   1.000  C
  C88      1.0000 0.55080  0.19040  0.52764  Biso   1.000  C
  H49      1.0000 0.02280  0.70540  0.53290  Biso   1.000  H
  H50      1.0000 0.47720  0.29460  0.03290  Biso   1.000  H
  H51      1.0000 0.97720  0.20540  0.96710  Biso   1.000  H
  H52      1.0000 0.52280  0.79460  0.46710  Biso   1.000  H
  H53      1.0000 0.97720  0.29460  0.46710  Biso   1.000  H
  H54      1.0000 0.52280  0.70540  0.96710  Biso   1.000  H
  H55      1.0000 0.02280  0.79460  0.03290  Biso   1.000  H
  H56      1.0000 0.47720  0.20540  0.53290  Biso   1.000  H
  C89      1.0000 0.80190  0.71850  0.48046  Biso   1.000  C
  C90      1.0000 0.69810  0.28150  0.98046  Biso   1.000  C
  C91      1.0000 0.19810  0.21850  0.01954  Biso   1.000  C
  C92      1.0000 0.30190  0.78150  0.51954  Biso   1.000  C
  C93      1.0000 0.19810  0.28150  0.51954  Biso   1.000  C
  C94      1.0000 0.30190  0.71850  0.01954  Biso   1.000  C
  C95      1.0000 0.80190  0.78150  0.98046  Biso   1.000  C
  C96      1.0000 0.69810  0.21850  0.48046  Biso   1.000  C
  H57      1.0000 0.77140  0.75290  0.45260  Biso   1.000  H
  H58      1.0000 0.72860  0.24710  0.95260  Biso   1.000  H
  H59      1.0000 0.22860  0.25290  0.04740  Biso   1.000  H
  H60      1.0000 0.27140  0.74710  0.54740  Biso   1.000  H
  H61      1.0000 0.22860  0.24710  0.54740  Biso   1.000  H
  H62      1.0000 0.27140  0.75290  0.04740  Biso   1.000  H
  H63      1.0000 0.77140  0.74710  0.95260  Biso   1.000  H
  H64      1.0000 0.72860  0.25290  0.45260  Biso   1.000  H
  C97      1.0000 0.73530  0.64760  0.51360  Biso   1.000  C
  C98      1.0000 0.76470  0.35240  0.01360  Biso   1.000  C
  C99      1.0000 0.26470  0.14760  0.98640  Biso   1.000  C
  C100     1.0000 0.23530  0.85240  0.48640  Biso   1.000  C
  C101     1.0000 0.26470  0.35240  0.48640  Biso   1.000  C
  C102     1.0000 0.23530  0.64760  0.98640  Biso   1.000  C
  C103     1.0000 0.73530  0.85240  0.01360  Biso   1.000  C
  C104     1.0000 0.76470  0.14760  0.51360  Biso   1.000  C
  H65      1.0000 0.66200  0.63370  0.50760  Biso   1.000  H
  H66      1.0000 0.83800  0.36630  0.00760  Biso   1.000  H
  H67      1.0000 0.33800  0.13370  0.99240  Biso   1.000  H
  H68      1.0000 0.16200  0.86630  0.49240  Biso   1.000  H
  H69      1.0000 0.33800  0.36630  0.49240  Biso   1.000  H
  H70      1.0000 0.16200  0.63370  0.99240  Biso   1.000  H
  H71      1.0000 0.66200  0.86630  0.00760  Biso   1.000  H
  H72      1.0000 0.83800  0.13370  0.50760  Biso   1.000  H
  C105     1.0000 0.18790  0.40880  0.63264  Biso   1.000  C
  C106     1.0000 0.31210  0.59120  0.13264  Biso   1.000  C
  C107     1.0000 0.81210  0.90880  0.86736  Biso   1.000  C
  C108     1.0000 0.68790  0.09120  0.36736  Biso   1.000  C
  C109     1.0000 0.81210  0.59120  0.36736  Biso   1.000  C
  C110     1.0000 0.68790  0.40880  0.86736  Biso   1.000  C
  C111     1.0000 0.18790  0.09120  0.13264  Biso   1.000  C
  C112     1.0000 0.31210  0.90880  0.63264  Biso   1.000  C
