data_image0
_cell_length_a       8.7391
_cell_length_b       4.2118
_cell_length_c       21.8958
_cell_angle_alpha    90
_cell_angle_beta     99.135
_cell_angle_gamma    90

_symmetry_space_group_name_H-M    "P 1"
_symmetry_int_tables_number       1

loop_
  _symmetry_equiv_pos_as_xyz
  'x, y, z'

loop_
  _atom_site_label
  _atom_site_occupancy
  _atom_site_fract_x
  _atom_site_fract_y
  _atom_site_fract_z
  _atom_site_thermal_displace_type
  _atom_site_B_iso_or_equiv
  _atom_site_type_symbol
  I1       1.0000 0.14463  0.34079  0.32252  Biso   1.000  I
  I2       1.0000 0.85537  0.84079  0.17748  Biso   1.000  I
  I3       1.0000 0.85537  0.65921  0.67748  Biso   1.000  I
  I4       1.0000 0.14463  0.15921  0.82252  Biso   1.000  I
  Br1      1.0000 0.77913  0.36242  0.51632  Biso   1.000  Br
  Br2      1.0000 0.22087  0.86242  0.98367  Biso   1.000  Br
  Br3      1.0000 0.22087  0.63758  0.48367  Biso   1.000  Br
  Br4      1.0000 0.77913  0.13758  0.01633  Biso   1.000  Br
  Cu1      1.0000 0.95898  0.83032  0.29886  Biso   1.000  Cu
  Cu2      1.0000 0.04102  0.33032  0.20114  Biso   1.000  Cu
  Cu3      1.0000 0.04102  0.16968  0.70114  Biso   1.000  Cu
  Cu4      1.0000 0.95898  0.66968  0.79886  Biso   1.000  Cu
  N1       1.0000 0.61430  0.57520  0.28835  Biso   1.000  N
  N2       1.0000 0.38570  0.07520  0.21165  Biso   1.000  N
  N3       1.0000 0.38570  0.42480  0.71165  Biso   1.000  N
  N4       1.0000 0.61430  0.92480  0.78835  Biso   1.000  N
  H1       1.0000 0.69120  0.48150  0.27090  Biso   1.000  H
  H2       1.0000 0.30880  0.98150  0.22910  Biso   1.000  H
  H3       1.0000 0.30880  0.51850  0.72910  Biso   1.000  H
  H4       1.0000 0.69120  0.01850  0.77090  Biso   1.000  H
  H5       1.0000 0.54090  0.41850  0.28390  Biso   1.000  H
  H6       1.0000 0.45910  0.91850  0.21610  Biso   1.000  H
  H7       1.0000 0.45910  0.58150  0.71610  Biso   1.000  H
  H8       1.0000 0.54090  0.08150  0.78390  Biso   1.000  H
  N5       1.0000 0.79320  0.87720  0.35400  Biso   1.000  N
  N6       1.0000 0.20680  0.37720  0.14600  Biso   1.000  N
  N7       1.0000 0.20680  0.12280  0.64600  Biso   1.000  N
  N8       1.0000 0.79320  0.62280  0.85400  Biso   1.000  N
  C1       1.0000 0.56520  0.04450  0.42377  Biso   1.000  C
  C2       1.0000 0.43480  0.54450  0.07623  Biso   1.000  C
  C3       1.0000 0.43480  0.95550  0.57623  Biso   1.000  C
  C4       1.0000 0.56520  0.45550  0.92377  Biso   1.000  C
  H9       1.0000 0.48720  0.10930  0.44680  Biso   1.000  H
  H10      1.0000 0.51280  0.60930  0.05320  Biso   1.000  H
  H11      1.0000 0.51280  0.89070  0.55320  Biso   1.000  H
  H12      1.0000 0.48720  0.39070  0.94680  Biso   1.000  H
  C5       1.0000 0.71910  0.13920  0.44128  Biso   1.000  C
  C6       1.0000 0.28090  0.63920  0.05872  Biso   1.000  C
  C7       1.0000 0.28090  0.86080  0.55872  Biso   1.000  C
  C8       1.0000 0.71910  0.36080  0.94128  Biso   1.000  C
  C9       1.0000 0.52980  0.85630  0.37273  Biso   1.000  C
  C10      1.0000 0.47020  0.35630  0.12727  Biso   1.000  C
  C11      1.0000 0.47020  0.14370  0.62727  Biso   1.000  C
  C12      1.0000 0.52980  0.64370  0.87273  Biso   1.000  C
  H13      1.0000 0.42630  0.78610  0.36000  Biso   1.000  H
  H14      1.0000 0.57370  0.28610  0.14000  Biso   1.000  H
  H15      1.0000 0.57370  0.21390  0.64000  Biso   1.000  H
  H16      1.0000 0.42630  0.71390  0.86000  Biso   1.000  H
  C13      1.0000 0.82680  0.05620  0.40544  Biso   1.000  C
  C14      1.0000 0.17320  0.55620  0.09456  Biso   1.000  C
  C15      1.0000 0.17320  0.94380  0.59456  Biso   1.000  C
  C16      1.0000 0.82680  0.44380  0.90544  Biso   1.000  C
  H17      1.0000 0.93040  0.12780  0.41720  Biso   1.000  H
  H18      1.0000 0.06960  0.62780  0.08280  Biso   1.000  H
  H19      1.0000 0.06960  0.87220  0.58280  Biso   1.000  H
  H20      1.0000 0.93040  0.37220  0.91720  Biso   1.000  H
  C17      1.0000 0.64720  0.76710  0.33914  Biso   1.000  C
  C18      1.0000 0.35280  0.26710  0.16086  Biso   1.000  C
  C19      1.0000 0.35280  0.23290  0.66086  Biso   1.000  C
  C20      1.0000 0.64720  0.73290  0.83914  Biso   1.000  C
