data_image0
_cell_length_a       3.986
_cell_length_b       6.579
_cell_length_c       11.399
_cell_angle_alpha    90
_cell_angle_beta     96.621
_cell_angle_gamma    90

_symmetry_space_group_name_H-M    "P 1"
_symmetry_int_tables_number       1

loop_
  _symmetry_equiv_pos_as_xyz
  'x, y, z'

loop_
  _atom_site_label
  _atom_site_occupancy
  _atom_site_fract_x
  _atom_site_fract_y
  _atom_site_fract_z
  _atom_site_thermal_displace_type
  _atom_site_B_iso_or_equiv
  _atom_site_type_symbol
  Br1      1.0000 0.50000  0.51600  0.25000  Biso   1.000  Br
  Br2      1.0000 0.50000  0.48400  0.75000  Biso   1.000  Br
  Cu1      1.0000 0.00000  0.29448  0.25000  Biso   1.000  Cu
  Cu2      1.0000 1.00000  0.70552  0.75000  Biso   1.000  Cu
  N1       1.0000 0.00460  0.11940  0.39850  Biso   1.000  N
  N2       1.0000 0.99540  0.11940  0.10150  Biso   1.000  N
  N3       1.0000 0.99540  0.88060  0.60150  Biso   1.000  N
  N4       1.0000 0.00460  0.88060  0.89850  Biso   1.000  N
  C1       1.0000 0.87420  0.18700  0.49460  Biso   1.000  C
  C2       1.0000 0.12580  0.18700  0.00540  Biso   1.000  C
  C3       1.0000 0.12580  0.81300  0.50540  Biso   1.000  C
  C4       1.0000 0.87420  0.81300  0.99460  Biso   1.000  C
  C5       1.0000 0.12930  0.93140  0.40610  Biso   1.000  C
  C6       1.0000 0.87070  0.93140  0.09390  Biso   1.000  C
  C7       1.0000 0.87070  0.06860  0.59390  Biso   1.000  C
  C8       1.0000 0.12930  0.06860  0.90610  Biso   1.000  C
  H1       1.0000 0.75000  0.30800  0.48200  Biso   1.000  H
  H2       1.0000 0.25000  0.30800  0.01800  Biso   1.000  H
  H3       1.0000 0.25000  0.69200  0.51800  Biso   1.000  H
  H4       1.0000 0.75000  0.69200  0.98200  Biso   1.000  H
  H5       1.0000 0.22000  0.88100  0.35700  Biso   1.000  H
  H6       1.0000 0.78000  0.88100  0.14300  Biso   1.000  H
  H7       1.0000 0.78000  0.11900  0.64300  Biso   1.000  H
  H8       1.0000 0.22000  0.11900  0.85700  Biso   1.000  H
