data_image0
_cell_length_a       4.3718
_cell_length_b       17.718
_cell_length_c       14.7481
_cell_angle_alpha    90
_cell_angle_beta     110.163
_cell_angle_gamma    90

_symmetry_space_group_name_H-M    "P 1"
_symmetry_int_tables_number       1

loop_
  _symmetry_equiv_pos_as_xyz
  'x, y, z'

loop_
  _atom_site_label
  _atom_site_occupancy
  _atom_site_fract_x
  _atom_site_fract_y
  _atom_site_fract_z
  _atom_site_thermal_displace_type
  _atom_site_B_iso_or_equiv
  _atom_site_type_symbol
  I1       1.0000 0.46624  0.39122  0.08836  Biso   1.000  I
  I2       1.0000 0.53376  0.89122  0.41164  Biso   1.000  I
  I3       1.0000 0.53376  0.60878  0.91164  Biso   1.000  I
  I4       1.0000 0.46624  0.10878  0.58836  Biso   1.000  I
  I5       1.0000 0.37823  0.36724  0.35518  Biso   1.000  I
  I6       1.0000 0.62177  0.86724  0.14482  Biso   1.000  I
  I7       1.0000 0.62177  0.63276  0.64482  Biso   1.000  I
  I8       1.0000 0.37823  0.13276  0.85518  Biso   1.000  I
  Cu1      1.0000 0.06190  0.43567  0.18709  Biso   1.000  Cu
  Cu2      1.0000 0.93810  0.93567  0.31291  Biso   1.000  Cu
  Cu3      1.0000 0.93810  0.56433  0.81291  Biso   1.000  Cu
  Cu4      1.0000 0.06190  0.06433  0.68709  Biso   1.000  Cu
  Cu5      1.0000 0.76470  0.32329  0.26017  Biso   1.000  Cu
  Cu6      1.0000 0.23530  0.82329  0.23983  Biso   1.000  Cu
  Cu7      1.0000 0.23530  0.67671  0.73983  Biso   1.000  Cu
  Cu8      1.0000 0.76470  0.17671  0.76017  Biso   1.000  Cu
  N1       1.0000 0.09160  0.55050  0.20230  Biso   1.000  N
  N2       1.0000 0.90840  0.05050  0.29770  Biso   1.000  N
  N3       1.0000 0.90840  0.44950  0.79770  Biso   1.000  N
  N4       1.0000 0.09160  0.94950  0.70230  Biso   1.000  N
  N5       1.0000 0.19150  0.70790  0.22840  Biso   1.000  N
  N6       1.0000 0.80850  0.20790  0.27160  Biso   1.000  N
  N7       1.0000 0.80850  0.29210  0.77160  Biso   1.000  N
  N8       1.0000 0.19150  0.79210  0.72840  Biso   1.000  N
  C1       1.0000 0.20500  0.59240  0.14650  Biso   1.000  C
  C2       1.0000 0.79500  0.09240  0.35350  Biso   1.000  C
  C3       1.0000 0.79500  0.40760  0.85350  Biso   1.000  C
  C4       1.0000 0.20500  0.90760  0.64650  Biso   1.000  C
  C5       1.0000 0.25600  0.67040  0.16020  Biso   1.000  C
  C6       1.0000 0.74400  0.17040  0.33980  Biso   1.000  C
  C7       1.0000 0.74400  0.32960  0.83980  Biso   1.000  C
  C8       1.0000 0.25600  0.82960  0.66020  Biso   1.000  C
  C9       1.0000 0.07500  0.66690  0.28860  Biso   1.000  C
  C10      1.0000 0.92500  0.16690  0.21140  Biso   1.000  C
  C11      1.0000 0.92500  0.33310  0.71140  Biso   1.000  C
  C12      1.0000 0.07500  0.83310  0.78860  Biso   1.000  C
  C13      1.0000 0.00000  0.70280  0.36170  Biso   1.000  C
  C14      1.0000 0.00000  0.20280  0.13830  Biso   1.000  C
  C15      1.0000 0.00000  0.29720  0.63830  Biso   1.000  C
  C16      1.0000 0.00000  0.79720  0.86170  Biso   1.000  C
  C17      1.0000 0.87900  0.66300  0.42220  Biso   1.000  C
  C18      1.0000 0.12100  0.16300  0.07780  Biso   1.000  C
  C19      1.0000 0.12100  0.33700  0.57780  Biso   1.000  C
  C20      1.0000 0.87900  0.83700  0.92220  Biso   1.000  C
  C21      1.0000 0.82600  0.58530  0.40780  Biso   1.000  C
  C22      1.0000 0.17400  0.08530  0.09220  Biso   1.000  C
  C23      1.0000 0.17400  0.41470  0.59220  Biso   1.000  C
  C24      1.0000 0.82600  0.91470  0.90780  Biso   1.000  C
  C25      1.0000 0.89600  0.54790  0.33590  Biso   1.000  C
  C26      1.0000 0.10400  0.04790  0.16410  Biso   1.000  C
  C27      1.0000 0.10400  0.45210  0.66410  Biso   1.000  C
  C28      1.0000 0.89600  0.95210  0.83590  Biso   1.000  C
  C29      1.0000 0.02000  0.58710  0.27420  Biso   1.000  C
  C30      1.0000 0.98000  0.08710  0.22580  Biso   1.000  C
  C31      1.0000 0.98000  0.41290  0.72580  Biso   1.000  C
  C32      1.0000 0.02000  0.91290  0.77420  Biso   1.000  C
  H1       1.0000 0.25190  0.56930  0.09640  Biso   1.000  H
  H2       1.0000 0.74810  0.06930  0.40360  Biso   1.000  H
  H3       1.0000 0.74810  0.43070  0.90360  Biso   1.000  H
  H4       1.0000 0.25190  0.93070  0.59640  Biso   1.000  H
  H5       1.0000 0.33860  0.69660  0.11920  Biso   1.000  H
  H6       1.0000 0.66140  0.19660  0.38080  Biso   1.000  H
  H7       1.0000 0.66140  0.30340  0.88080  Biso   1.000  H
  H8       1.0000 0.33860  0.80340  0.61920  Biso   1.000  H
  H9       1.0000 0.03100  0.75460  0.37010  Biso   1.000  H
  H10      1.0000 0.96900  0.25460  0.12990  Biso   1.000  H
  H11      1.0000 0.96900  0.24540  0.62990  Biso   1.000  H
  H12      1.0000 0.03100  0.74540  0.87010  Biso   1.000  H
  H13      1.0000 0.83320  0.68730  0.47200  Biso   1.000  H
  H14      1.0000 0.16680  0.18730  0.02800  Biso   1.000  H
  H15      1.0000 0.16680  0.31270  0.52800  Biso   1.000  H
  H16      1.0000 0.83320  0.81270  0.97200  Biso   1.000  H
  H17      1.0000 0.74050  0.55840  0.44780  Biso   1.000  H
  H18      1.0000 0.25950  0.05840  0.05220  Biso   1.000  H
  H19      1.0000 0.25950  0.44160  0.55220  Biso   1.000  H
  H20      1.0000 0.74050  0.94160  0.94780  Biso   1.000  H
  H21      1.0000 0.86060  0.49610  0.32830  Biso   1.000  H
  H22      1.0000 0.13940  0.99610  0.17170  Biso   1.000  H
  H23      1.0000 0.13940  0.50390  0.67170  Biso   1.000  H
  H24      1.0000 0.86060  0.00390  0.82830  Biso   1.000  H
