data_image0
_cell_length_a       4.356
_cell_length_b       17.651
_cell_length_c       13.767
_cell_angle_alpha    90
_cell_angle_beta     93.14
_cell_angle_gamma    90

_symmetry_space_group_name_H-M    "P 1"
_symmetry_int_tables_number       1

loop_
  _symmetry_equiv_pos_as_xyz
  'x, y, z'

loop_
  _atom_site_label
  _atom_site_occupancy
  _atom_site_fract_x
  _atom_site_fract_y
  _atom_site_fract_z
  _atom_site_thermal_displace_type
  _atom_site_B_iso_or_equiv
  _atom_site_type_symbol
  Cu1      1.0000 0.62690  0.56389  0.81292  Biso   1.000  Cu
  Cu2      1.0000 0.87310  0.06389  0.68708  Biso   1.000  Cu
  Cu3      1.0000 0.37310  0.43611  0.18708  Biso   1.000  Cu
  Cu4      1.0000 0.12690  0.93611  0.31292  Biso   1.000  Cu
  Cu5      1.0000 0.99040  0.67496  0.73927  Biso   1.000  Cu
  Cu6      1.0000 0.50960  0.17496  0.76073  Biso   1.000  Cu
  Cu7      1.0000 0.00960  0.32504  0.26073  Biso   1.000  Cu
  Cu8      1.0000 0.49040  0.82504  0.23927  Biso   1.000  Cu
  I1       1.0000 0.47300  0.63142  0.64366  Biso   1.000  I
  I2       1.0000 0.02700  0.13142  0.85634  Biso   1.000  I
  I3       1.0000 0.52700  0.36858  0.35634  Biso   1.000  I
  I4       1.0000 0.97300  0.86858  0.14366  Biso   1.000  I
  I5       1.0000 0.12632  0.60830  0.91190  Biso   1.000  I
  I6       1.0000 0.37368  0.10830  0.58810  Biso   1.000  I
  I7       1.0000 0.87368  0.39170  0.08810  Biso   1.000  I
  I8       1.0000 0.62632  0.89170  0.41190  Biso   1.000  I
  N1       1.0000 0.53540  0.29100  0.77160  Biso   1.000  N
  N2       1.0000 0.96460  0.79100  0.72840  Biso   1.000  N
  N3       1.0000 0.46460  0.70900  0.22840  Biso   1.000  N
  N4       1.0000 0.03540  0.20900  0.27160  Biso   1.000  N
  C1       1.0000 0.40380  0.32840  0.84150  Biso   1.000  C
  C2       1.0000 0.09620  0.82840  0.65850  Biso   1.000  C
  C3       1.0000 0.59620  0.67160  0.15850  Biso   1.000  C
  C4       1.0000 0.90380  0.17160  0.34150  Biso   1.000  C
  H1       1.0000 0.28470  0.30180  0.88400  Biso   1.000  H
  H2       1.0000 0.21530  0.80180  0.61600  Biso   1.000  H
  H3       1.0000 0.71530  0.69820  0.11600  Biso   1.000  H
  H4       1.0000 0.78470  0.19820  0.38400  Biso   1.000  H
  C5       1.0000 0.43930  0.40730  0.85320  Biso   1.000  C
  C6       1.0000 0.06070  0.90730  0.64680  Biso   1.000  C
  C7       1.0000 0.56070  0.59270  0.14680  Biso   1.000  C
  C8       1.0000 0.93930  0.09270  0.35320  Biso   1.000  C
  H5       1.0000 0.33750  0.43100  0.90240  Biso   1.000  H
  H6       1.0000 0.16250  0.93100  0.59760  Biso   1.000  H
  H7       1.0000 0.66250  0.56900  0.09760  Biso   1.000  H
  H8       1.0000 0.83750  0.06900  0.40240  Biso   1.000  H
  N5       1.0000 0.60920  0.44880  0.79800  Biso   1.000  N
  N6       1.0000 0.89080  0.94880  0.70200  Biso   1.000  N
  N7       1.0000 0.39080  0.55120  0.20200  Biso   1.000  N
  N8       1.0000 0.10920  0.05120  0.29800  Biso   1.000  N
  C9       1.0000 0.75270  0.41100  0.72580  Biso   1.000  C
  C10      1.0000 0.74730  0.91100  0.77420  Biso   1.000  C
  C11      1.0000 0.24730  0.58900  0.27420  Biso   1.000  C
  C12      1.0000 0.25270  0.08900  0.22580  Biso   1.000  C
  C13      1.0000 0.94460  0.45150  0.66370  Biso   1.000  C
  C14      1.0000 0.55540  0.95150  0.83630  Biso   1.000  C
  C15      1.0000 0.05540  0.54850  0.33630  Biso   1.000  C
  C16      1.0000 0.44460  0.04850  0.16370  Biso   1.000  C
  H9       1.0000 0.97360  0.50330  0.67210  Biso   1.000  H
  H10      1.0000 0.52640  0.00330  0.82790  Biso   1.000  H
  H11      1.0000 0.02640  0.49670  0.32790  Biso   1.000  H
  H12      1.0000 0.47360  0.99670  0.17210  Biso   1.000  H
  C17      1.0000 0.08730  0.41400  0.59130  Biso   1.000  C
  C18      1.0000 0.41270  0.91400  0.90870  Biso   1.000  C
  C19      1.0000 0.91270  0.58600  0.40870  Biso   1.000  C
  C20      1.0000 0.58730  0.08600  0.09130  Biso   1.000  C
  H13      1.0000 0.21170  0.44100  0.55070  Biso   1.000  H
  H14      1.0000 0.28830  0.94100  0.94930  Biso   1.000  H
  H15      1.0000 0.78830  0.55900  0.44930  Biso   1.000  H
  H16      1.0000 0.71170  0.05900  0.05070  Biso   1.000  H
  C21      1.0000 0.04880  0.33590  0.57740  Biso   1.000  C
  C22      1.0000 0.45120  0.83590  0.92260  Biso   1.000  C
  C23      1.0000 0.95120  0.66410  0.42260  Biso   1.000  C
  C24      1.0000 0.54880  0.16410  0.07740  Biso   1.000  C
  H17      1.0000 0.14860  0.31160  0.52820  Biso   1.000  H
  H18      1.0000 0.35140  0.81160  0.97180  Biso   1.000  H
  H19      1.0000 0.85140  0.68840  0.47180  Biso   1.000  H
  H20      1.0000 0.64860  0.18840  0.02820  Biso   1.000  H
  C25      1.0000 0.86410  0.29500  0.63620  Biso   1.000  C
  C26      1.0000 0.63590  0.79500  0.86380  Biso   1.000  C
  C27      1.0000 0.13590  0.70500  0.36380  Biso   1.000  C
  C28      1.0000 0.36410  0.20500  0.13620  Biso   1.000  C
  H21      1.0000 0.83650  0.24330  0.62600  Biso   1.000  H
  H22      1.0000 0.66350  0.74330  0.87400  Biso   1.000  H
  H23      1.0000 0.16350  0.75670  0.37400  Biso   1.000  H
  H24      1.0000 0.33650  0.25670  0.12600  Biso   1.000  H
  C29      1.0000 0.71570  0.33180  0.71250  Biso   1.000  C
  C30      1.0000 0.78430  0.83180  0.78750  Biso   1.000  C
  C31      1.0000 0.28430  0.66820  0.28750  Biso   1.000  C
  C32      1.0000 0.21570  0.16820  0.21250  Biso   1.000  C
