data_image0
_cell_length_a       9.356
_cell_length_b       13.298
_cell_length_c       9.446
_cell_angle_alpha    105.51
_cell_angle_beta     96.29
_cell_angle_gamma    70.38

_symmetry_space_group_name_H-M    "P 1"
_symmetry_int_tables_number       1

loop_
  _symmetry_equiv_pos_as_xyz
  'x, y, z'

loop_
  _atom_site_label
  _atom_site_occupancy
  _atom_site_fract_x
  _atom_site_fract_y
  _atom_site_fract_z
  _atom_site_thermal_displace_type
  _atom_site_B_iso_or_equiv
  _atom_site_type_symbol
  Br1      1.0000 0.35445  0.53155  0.65856  Biso   1.000  Br
  Br2      1.0000 0.64555  0.46845  0.34144  Biso   1.000  Br
  Cu1      1.0000 0.45156  0.40045  0.42363  Biso   1.000  Cu
  Cu2      1.0000 0.54844  0.59955  0.57637  Biso   1.000  Cu
  P1       1.0000 0.55170  0.22650  0.41810  Biso   1.000  P
  P2       1.0000 0.44830  0.77350  0.58190  Biso   1.000  P
  O1       1.0000 0.70000  0.17610  0.51080  Biso   1.000  O
  O2       1.0000 0.30000  0.82390  0.48920  Biso   1.000  O
  O3       1.0000 0.45330  0.15920  0.45620  Biso   1.000  O
  O4       1.0000 0.54670  0.84080  0.54380  Biso   1.000  O
  O5       1.0000 0.61230  0.15930  0.25580  Biso   1.000  O
  O6       1.0000 0.38770  0.84070  0.74420  Biso   1.000  O
  N1       1.0000 0.28560  0.44540  0.27260  Biso   1.000  N
  N2       1.0000 0.71440  0.55460  0.72740  Biso   1.000  N
  C1       1.0000 0.14190  0.48470  0.30570  Biso   1.000  C
  C2       1.0000 0.85810  0.51530  0.69430  Biso   1.000  C
  C3       1.0000 0.02750  0.50690  0.20360  Biso   1.000  C
  C4       1.0000 0.97250  0.49310  0.79640  Biso   1.000  C
  C5       1.0000 0.05910  0.48940  0.05680  Biso   1.000  C
  C6       1.0000 0.94090  0.51060  0.94320  Biso   1.000  C
  C7       1.0000 0.21050  0.44930  0.02270  Biso   1.000  C
  C8       1.0000 0.78950  0.55070  0.97730  Biso   1.000  C
  C9       1.0000 0.31730  0.42860  0.13110  Biso   1.000  C
  C10      1.0000 0.68270  0.57140  0.86890  Biso   1.000  C
  C11      1.0000 0.69810  0.18990  0.66350  Biso   1.000  C
  C12      1.0000 0.30190  0.81010  0.33650  Biso   1.000  C
  C13      1.0000 0.67640  0.29270  0.75870  Biso   1.000  C
  C14      1.0000 0.32360  0.70730  0.24130  Biso   1.000  C
  C15      1.0000 0.68210  0.30150  0.90810  Biso   1.000  C
  C16      1.0000 0.31790  0.69850  0.09190  Biso   1.000  C
  C17      1.0000 0.71070  0.20930  0.96180  Biso   1.000  C
  C18      1.0000 0.28930  0.79070  0.03820  Biso   1.000  C
  C19      1.0000 0.73360  0.10690  0.86400  Biso   1.000  C
  C20      1.0000 0.26640  0.89310  0.13600  Biso   1.000  C
  C21      1.0000 0.72590  0.09600  0.71480  Biso   1.000  C
  C22      1.0000 0.27410  0.90400  0.28520  Biso   1.000  C
  C23      1.0000 0.29820  0.18980  0.43340  Biso   1.000  C
  C24      1.0000 0.70180  0.81020  0.56660  Biso   1.000  C
  C25      1.0000 0.21550  0.19500  0.54680  Biso   1.000  C
  C26      1.0000 0.78450  0.80500  0.45320  Biso   1.000  C
  C27      1.0000 0.06200  0.21900  0.52570  Biso   1.000  C
  C28      1.0000 0.93800  0.78100  0.47430  Biso   1.000  C
  C29      1.0000 0.99550  0.23920  0.39560  Biso   1.000  C
  C30      1.0000 0.00450  0.76080  0.60440  Biso   1.000  C
  C31      1.0000 0.08030  0.23280  0.28190  Biso   1.000  C
  C32      1.0000 0.91970  0.76720  0.71810  Biso   1.000  C
  C33      1.0000 0.23380  0.20700  0.30070  Biso   1.000  C
  C34      1.0000 0.76620  0.79300  0.69930  Biso   1.000  C
  C35      1.0000 0.68050  0.04450  0.21090  Biso   1.000  C
  C36      1.0000 0.31950  0.95550  0.78910  Biso   1.000  C
  C37      1.0000 0.83450  0.00100  0.20980  Biso   1.000  C
  C38      1.0000 0.16550  0.99900  0.79020  Biso   1.000  C
  C39      1.0000 0.90000  0.88920  0.15100  Biso   1.000  C
  C40      1.0000 0.10000  0.11080  0.84900  Biso   1.000  C
  C41      1.0000 0.81230  0.82240  0.09510  Biso   1.000  C
  C42      1.0000 0.18770  0.17760  0.90490  Biso   1.000  C
  C43      1.0000 0.65760  0.86700  0.09950  Biso   1.000  C
  C44      1.0000 0.34240  0.13300  0.90050  Biso   1.000  C
  C45      1.0000 0.59110  0.97900  0.15740  Biso   1.000  C
  C46      1.0000 0.40890  0.02100  0.84260  Biso   1.000  C
  H1       1.0000 0.12670  0.49910  0.42140  Biso   1.000  H
  H2       1.0000 0.87330  0.50090  0.57860  Biso   1.000  H
  H3       1.0000 0.91380  0.54920  0.24110  Biso   1.000  H
  H4       1.0000 0.08620  0.45080  0.75890  Biso   1.000  H
  H5       1.0000 0.23480  0.44330  0.90910  Biso   1.000  H
  H6       1.0000 0.76520  0.55670  0.09090  Biso   1.000  H
  H7       1.0000 0.43010  0.39730  0.10090  Biso   1.000  H
  H8       1.0000 0.56990  0.60270  0.89910  Biso   1.000  H
  H9       1.0000 0.63780  0.36720  0.72590  Biso   1.000  H
  H10      1.0000 0.36220  0.63280  0.27410  Biso   1.000  H
  H11      1.0000 0.66650  0.38040  0.98520  Biso   1.000  H
  H12      1.0000 0.33350  0.61960  0.01480  Biso   1.000  H
  H13      1.0000 0.73470  0.20920  0.07180  Biso   1.000  H
  H14      1.0000 0.26530  0.79080  0.92820  Biso   1.000  H
  H15      1.0000 0.76600  0.03270  0.89650  Biso   1.000  H
  H16      1.0000 0.23400  0.96730  0.10350  Biso   1.000  H
  H17      1.0000 0.76070  0.02210  0.62960  Biso   1.000  H
  H18      1.0000 0.23930  0.97790  0.37040  Biso   1.000  H
  H19      1.0000 0.26440  0.17210  0.64860  Biso   1.000  H
  H20      1.0000 0.73560  0.82790  0.35140  Biso   1.000  H
  H21      1.0000 0.00010  0.22770  0.62060  Biso   1.000  H
  H22      1.0000 0.99990  0.77230  0.37940  Biso   1.000  H
  H23      1.0000 0.88960  0.25560  0.37130  Biso   1.000  H
  H24      1.0000 0.11040  0.74440  0.62870  Biso   1.000  H
  H25      1.0000 0.03800  0.23060  0.17090  Biso   1.000  H
  H26      1.0000 0.96200  0.76940  0.82910  Biso   1.000  H
  H27      1.0000 0.29920  0.19940  0.20490  Biso   1.000  H
  H28      1.0000 0.70080  0.80060  0.79510  Biso   1.000  H
  H29      1.0000 0.89900  0.05370  0.26030  Biso   1.000  H
  H30      1.0000 0.10100  0.94630  0.73970  Biso   1.000  H
  H31      1.0000 0.02800  0.85360  0.16910  Biso   1.000  H
  H32      1.0000 0.97200  0.14640  0.83090  Biso   1.000  H
  H33      1.0000 0.86660  0.73830  0.06160  Biso   1.000  H
  H34      1.0000 0.13340  0.26170  0.93840  Biso   1.000  H
  H35      1.0000 0.60850  0.81450  0.04110  Biso   1.000  H
  H36      1.0000 0.39150  0.18550  0.95890  Biso   1.000  H
  H37      1.0000 0.48100  0.01930  0.16880  Biso   1.000  H
  H38      1.0000 0.51900  0.98070  0.83120  Biso   1.000  H
