data_image0
_cell_length_a       8.4327
_cell_length_b       10.499
_cell_length_c       13.907
_cell_angle_alpha    74.083
_cell_angle_beta     77.501
_cell_angle_gamma    62.8164

_symmetry_space_group_name_H-M    "P 1"
_symmetry_int_tables_number       1

loop_
  _symmetry_equiv_pos_as_xyz
  'x, y, z'

loop_
  _atom_site_label
  _atom_site_occupancy
  _atom_site_fract_x
  _atom_site_fract_y
  _atom_site_fract_z
  _atom_site_thermal_displace_type
  _atom_site_B_iso_or_equiv
  _atom_site_type_symbol
  Br1      1.0000 0.36822  0.70875  0.51430  Biso   1.000  Br
  Br2      1.0000 0.63178  0.29125  0.48570  Biso   1.000  Br
  Cu1      1.0000 0.37748  0.46117  0.58453  Biso   1.000  Cu
  Cu2      1.0000 0.62252  0.53883  0.41547  Biso   1.000  Cu
  P1       1.0000 0.38775  0.37714  0.74441  Biso   1.000  P
  P2       1.0000 0.61225  0.62286  0.25559  Biso   1.000  P
  O1       1.0000 0.58300  0.29910  0.78019  Biso   1.000  O
  O2       1.0000 0.41700  0.70090  0.21981  Biso   1.000  O
  O3       1.0000 0.29010  0.48490  0.82422  Biso   1.000  O
  O4       1.0000 0.70990  0.51510  0.17578  Biso   1.000  O
  O5       1.0000 0.30070  0.26310  0.79439  Biso   1.000  O
  O6       1.0000 0.69930  0.73690  0.20561  Biso   1.000  O
  N1       1.0000 0.84560  0.51340  0.47016  Biso   1.000  N
  N2       1.0000 0.15440  0.48660  0.52984  Biso   1.000  N
  C1       1.0000 0.83930  0.59560  0.52940  Biso   1.000  C
  C2       1.0000 0.16070  0.40440  0.47060  Biso   1.000  C
  C3       1.0000 0.99230  0.58210  0.55890  Biso   1.000  C
  C4       1.0000 0.00770  0.41790  0.44110  Biso   1.000  C
  C5       1.0000 0.62770  0.24640  0.87980  Biso   1.000  C
  C6       1.0000 0.37230  0.75360  0.12020  Biso   1.000  C
  C7       1.0000 0.65070  0.33430  0.92580  Biso   1.000  C
  C8       1.0000 0.34930  0.66570  0.07420  Biso   1.000  C
  C9       1.0000 0.70890  0.27790  0.02110  Biso   1.000  C
  C10      1.0000 0.29110  0.72210  0.97890  Biso   1.000  C
  C11      1.0000 0.74400  0.13760  0.06680  Biso   1.000  C
  C12      1.0000 0.25600  0.86240  0.93320  Biso   1.000  C
  C13      1.0000 0.71910  0.05160  0.01960  Biso   1.000  C
  C14      1.0000 0.28090  0.94840  0.98040  Biso   1.000  C
  C15      1.0000 0.66000  0.10580  0.92520  Biso   1.000  C
  C16      1.0000 0.34000  0.89420  0.07480  Biso   1.000  C
  C17      1.0000 0.11020  0.58320  0.81880  Biso   1.000  C
  C18      1.0000 0.88980  0.41680  0.18120  Biso   1.000  C
  C19      1.0000 0.97790  0.54290  0.87400  Biso   1.000  C
  C20      1.0000 0.02210  0.45710  0.12600  Biso   1.000  C
  C21      1.0000 0.80110  0.64610  0.87140  Biso   1.000  C
  C22      1.0000 0.19890  0.35390  0.12860  Biso   1.000  C
  C23      1.0000 0.75980  0.78140  0.81310  Biso   1.000  C
  C24      1.0000 0.24020  0.21860  0.18690  Biso   1.000  C
  C25      1.0000 0.89220  0.81990  0.75720  Biso   1.000  C
  C26      1.0000 0.10780  0.18010  0.24280  Biso   1.000  C
  C27      1.0000 0.06940  0.72070  0.76020  Biso   1.000  C
  C28      1.0000 0.93060  0.27930  0.23980  Biso   1.000  C
  C29      1.0000 0.25640  0.19790  0.73420  Biso   1.000  C
  C30      1.0000 0.74360  0.80210  0.26580  Biso   1.000  C
  C31      1.0000 0.38450  0.10030  0.68000  Biso   1.000  C
  C32      1.0000 0.61550  0.89970  0.32000  Biso   1.000  C
  C33      1.0000 0.33320  0.03450  0.62630  Biso   1.000  C
  C34      1.0000 0.66680  0.96550  0.37370  Biso   1.000  C
  C35      1.0000 0.15510  0.06870  0.62650  Biso   1.000  C
  C36      1.0000 0.84490  0.93130  0.37350  Biso   1.000  C
  C37      1.0000 0.02870  0.16830  0.68060  Biso   1.000  C
  C38      1.0000 0.97130  0.83170  0.31940  Biso   1.000  C
  C39      1.0000 0.07850  0.23210  0.73560  Biso   1.000  C
  C40      1.0000 0.92150  0.76790  0.26440  Biso   1.000  C
  H1       1.0000 0.27130  0.33610  0.44850  Biso   1.000  H
  H2       1.0000 0.72870  0.66390  0.55150  Biso   1.000  H
  H3       1.0000 0.01770  0.35820  0.39950  Biso   1.000  H
  H4       1.0000 0.98230  0.64180  0.60050  Biso   1.000  H
  H5       1.0000 0.62800  0.43040  0.89420  Biso   1.000  H
  H6       1.0000 0.37200  0.56960  0.10580  Biso   1.000  H
  H7       1.0000 0.72380  0.33740  0.05380  Biso   1.000  H
  H8       1.0000 0.27620  0.66260  0.94620  Biso   1.000  H
  H9       1.0000 0.78490  0.10030  0.13010  Biso   1.000  H
  H10      1.0000 0.21510  0.89970  0.86990  Biso   1.000  H
  H11      1.0000 0.74200  0.95550  0.05120  Biso   1.000  H
  H12      1.0000 0.25800  0.04450  0.94880  Biso   1.000  H
  H13      1.0000 0.64260  0.04690  0.89320  Biso   1.000  H
  H14      1.0000 0.35740  0.95310  0.10680  Biso   1.000  H
  H15      1.0000 0.00630  0.44890  0.91200  Biso   1.000  H
  H16      1.0000 0.99370  0.55110  0.08800  Biso   1.000  H
  H17      1.0000 0.71010  0.62220  0.91000  Biso   1.000  H
  H18      1.0000 0.28990  0.37780  0.09000  Biso   1.000  H
  H19      1.0000 0.64050  0.84880  0.81100  Biso   1.000  H
  H20      1.0000 0.35950  0.15120  0.18900  Biso   1.000  H
  H21      1.0000 0.86240  0.91300  0.71730  Biso   1.000  H
  H22      1.0000 0.13760  0.08700  0.28270  Biso   1.000  H
  H23      1.0000 0.16010  0.74640  0.72300  Biso   1.000  H
  H24      1.0000 0.83990  0.25360  0.27700  Biso   1.000  H
  H25      1.0000 0.50500  0.07800  0.67900  Biso   1.000  H
  H26      1.0000 0.49500  0.92200  0.32100  Biso   1.000  H
  H27      1.0000 0.42010  0.96660  0.58980  Biso   1.000  H
  H28      1.0000 0.57990  0.03340  0.41020  Biso   1.000  H
  H29      1.0000 0.12130  0.02450  0.59020  Biso   1.000  H
  H30      1.0000 0.87870  0.97550  0.40980  Biso   1.000  H
  H31      1.0000 0.90790  0.19320  0.68030  Biso   1.000  H
  H32      1.0000 0.09210  0.80680  0.31970  Biso   1.000  H
  H33      1.0000 0.99190  0.29820  0.77360  Biso   1.000  H
  H34      1.0000 0.00810  0.70180  0.22640  Biso   1.000  H
