data_image0
_cell_length_a       17.385
_cell_length_b       18.976
_cell_length_c       12.221
_cell_angle_alpha    90
_cell_angle_beta     114.319
_cell_angle_gamma    90

_symmetry_space_group_name_H-M    "P 1"
_symmetry_int_tables_number       1

loop_
  _symmetry_equiv_pos_as_xyz
  'x, y, z'

loop_
  _atom_site_label
  _atom_site_occupancy
  _atom_site_fract_x
  _atom_site_fract_y
  _atom_site_fract_z
  _atom_site_thermal_displace_type
  _atom_site_B_iso_or_equiv
  _atom_site_type_symbol
  W1       1.0000 0.44319  0.59196  0.20233  Biso   1.000  W
  W2       1.0000 0.94319  0.09196  0.20233  Biso   1.000  W
  W3       1.0000 0.55681  0.59196  0.79767  Biso   1.000  W
  W4       1.0000 0.05681  0.09196  0.79767  Biso   1.000  W
  W5       1.0000 0.55681  0.40804  0.79767  Biso   1.000  W
  W6       1.0000 0.05681  0.90804  0.79767  Biso   1.000  W
  W7       1.0000 0.44319  0.40804  0.20233  Biso   1.000  W
  W8       1.0000 0.94319  0.90804  0.20233  Biso   1.000  W
  W9       1.0000 0.70959  0.50000  0.03452  Biso   1.000  W
  W10      1.0000 0.20959  0.00000  0.03452  Biso   1.000  W
  W11      1.0000 0.29041  0.50000  0.96548  Biso   1.000  W
  W12      1.0000 0.79041  0.00000  0.96548  Biso   1.000  W
  W13      1.0000 0.50000  0.68513  0.00000  Biso   1.000  W
  W14      1.0000 0.00000  0.18513  0.00000  Biso   1.000  W
  W15      1.0000 0.50000  0.31487  0.00000  Biso   1.000  W
  W16      1.0000 0.00000  0.81487  0.00000  Biso   1.000  W
  W17      1.0000 0.65263  0.59152  0.23670  Biso   1.000  W
  W18      1.0000 0.15263  0.09152  0.23670  Biso   1.000  W
  W19      1.0000 0.34737  0.59152  0.76330  Biso   1.000  W
  W20      1.0000 0.84737  0.09152  0.76330  Biso   1.000  W
  W21      1.0000 0.34737  0.40848  0.76330  Biso   1.000  W
  W22      1.0000 0.84737  0.90848  0.76330  Biso   1.000  W
  W23      1.0000 0.65263  0.40848  0.23670  Biso   1.000  W
  W24      1.0000 0.15263  0.90848  0.23670  Biso   1.000  W
  Si1      1.0000 0.50000  0.50000  0.00000  Biso   1.000  Si
  Si2      1.0000 0.00000  0.00000  0.00000  Biso   1.000  Si
  O1       1.0000 0.59800  0.50000  0.09300  Biso   1.000  O
  O2       1.0000 0.09800  0.00000  0.09300  Biso   1.000  O
  O3       1.0000 0.40200  0.50000  0.90700  Biso   1.000  O
  O4       1.0000 0.90200  0.00000  0.90700  Biso   1.000  O
  O5       1.0000 0.51890  0.56860  0.08700  Biso   1.000  O
  O6       1.0000 0.01890  0.06860  0.08700  Biso   1.000  O
  O7       1.0000 0.48110  0.56860  0.91300  Biso   1.000  O
  O8       1.0000 0.98110  0.06860  0.91300  Biso   1.000  O
  O9       1.0000 0.48110  0.43140  0.91300  Biso   1.000  O
  O10      1.0000 0.98110  0.93140  0.91300  Biso   1.000  O
  O11      1.0000 0.51890  0.43140  0.08700  Biso   1.000  O
  O12      1.0000 0.01890  0.93140  0.08700  Biso   1.000  O
  O13      1.0000 0.56400  0.50000  0.93600  Biso   1.000  O
  O14      1.0000 0.06400  0.00000  0.93600  Biso   1.000  O
  O15      1.0000 0.43600  0.50000  0.06400  Biso   1.000  O
  O16      1.0000 0.93600  0.00000  0.06400  Biso   1.000  O
  O17      1.0000 0.67300  0.50000  0.30200  Biso   1.000  O
  O18      1.0000 0.17300  0.00000  0.30200  Biso   1.000  O
  O19      1.0000 0.32700  0.50000  0.69800  Biso   1.000  O
  O20      1.0000 0.82700  0.00000  0.69800  Biso   1.000  O
  O21      1.0000 0.50000  0.77410  0.00000  Biso   1.000  O
  O22      1.0000 0.00000  0.27410  0.00000  Biso   1.000  O
  O23      1.0000 0.50000  0.22590  0.00000  Biso   1.000  O
  O24      1.0000 0.00000  0.72590  0.00000  Biso   1.000  O
  O25      1.0000 0.60350  0.66490  0.12800  Biso   1.000  O
  O26      1.0000 0.10350  0.16490  0.12800  Biso   1.000  O
  O27      1.0000 0.39650  0.66490  0.87200  Biso   1.000  O
  O28      1.0000 0.89650  0.16490  0.87200  Biso   1.000  O
  O29      1.0000 0.39650  0.33510  0.87200  Biso   1.000  O
  O30      1.0000 0.89650  0.83510  0.87200  Biso   1.000  O
  O31      1.0000 0.60350  0.33510  0.12800  Biso   1.000  O
  O32      1.0000 0.10350  0.83510  0.12800  Biso   1.000  O
  O33      1.0000 0.44630  0.66690  0.10300  Biso   1.000  O
  O34      1.0000 0.94630  0.16690  0.10300  Biso   1.000  O
  O35      1.0000 0.55370  0.66690  0.89700  Biso   1.000  O
  O36      1.0000 0.05370  0.16690  0.89700  Biso   1.000  O
  O37      1.0000 0.55370  0.33310  0.89700  Biso   1.000  O
  O38      1.0000 0.05370  0.83310  0.89700  Biso   1.000  O
  O39      1.0000 0.44630  0.33310  0.10300  Biso   1.000  O
  O40      1.0000 0.94630  0.83310  0.10300  Biso   1.000  O
  O41      1.0000 0.66220  0.43270  0.91870  Biso   1.000  O
  O42      1.0000 0.16220  0.93270  0.91870  Biso   1.000  O
  O43      1.0000 0.33780  0.43270  0.08130  Biso   1.000  O
  O44      1.0000 0.83780  0.93270  0.08130  Biso   1.000  O
  O45      1.0000 0.33780  0.56730  0.08130  Biso   1.000  O
  O46      1.0000 0.83780  0.06730  0.08130  Biso   1.000  O
  O47      1.0000 0.66220  0.56730  0.91870  Biso   1.000  O
  O48      1.0000 0.16220  0.06730  0.91870  Biso   1.000  O
  O49      1.0000 0.71450  0.56840  0.14750  Biso   1.000  O
  O50      1.0000 0.21450  0.06840  0.14750  Biso   1.000  O
  O51      1.0000 0.28550  0.56840  0.85250  Biso   1.000  O
  O52      1.0000 0.78550  0.06840  0.85250  Biso   1.000  O
  O53      1.0000 0.28550  0.43160  0.85250  Biso   1.000  O
  O54      1.0000 0.78550  0.93160  0.85250  Biso   1.000  O
  O55      1.0000 0.71450  0.43160  0.14750  Biso   1.000  O
  O56      1.0000 0.21450  0.93160  0.14750  Biso   1.000  O
  O57      1.0000 0.81280  0.50000  0.05400  Biso   1.000  O
  O58      1.0000 0.31280  0.00000  0.05400  Biso   1.000  O
  O59      1.0000 0.18720  0.50000  0.94600  Biso   1.000  O
  O60      1.0000 0.68720  0.00000  0.94600  Biso   1.000  O
  O61      1.0000 0.72650  0.63330  0.35420  Biso   1.000  O
  O62      1.0000 0.22650  0.13330  0.35420  Biso   1.000  O
  O63      1.0000 0.27350  0.63330  0.64580  Biso   1.000  O
  O64      1.0000 0.77350  0.13330  0.64580  Biso   1.000  O
  O65      1.0000 0.27350  0.36670  0.64580  Biso   1.000  O
  O66      1.0000 0.77350  0.86670  0.64580  Biso   1.000  O
  O67      1.0000 0.72650  0.36670  0.35420  Biso   1.000  O
  O68      1.0000 0.22650  0.86670  0.35420  Biso   1.000  O
  O69      1.0000 0.41510  0.63920  0.29680  Biso   1.000  O
  O70      1.0000 0.91510  0.13920  0.29680  Biso   1.000  O
  O71      1.0000 0.58490  0.63920  0.70320  Biso   1.000  O
  O72      1.0000 0.08490  0.13920  0.70320  Biso   1.000  O
  O73      1.0000 0.58490  0.36080  0.70320  Biso   1.000  O
  O74      1.0000 0.08490  0.86080  0.70320  Biso   1.000  O
  O75      1.0000 0.41510  0.36080  0.29680  Biso   1.000  O
  O76      1.0000 0.91510  0.86080  0.29680  Biso   1.000  O
  O77      1.0000 0.44500  0.50000  0.25900  Biso   1.000  O
  O78      1.0000 0.94500  0.00000  0.25900  Biso   1.000  O
  O79      1.0000 0.55500  0.50000  0.74100  Biso   1.000  O
  O80      1.0000 0.05500  0.00000  0.74100  Biso   1.000  O
  O81      1.0000 0.56160  0.59850  0.28000  Biso   1.000  O
  O82      1.0000 0.06160  0.09850  0.28000  Biso   1.000  O
  O83      1.0000 0.43840  0.59850  0.72000  Biso   1.000  O
  O84      1.0000 0.93840  0.09850  0.72000  Biso   1.000  O
  O85      1.0000 0.43840  0.40150  0.72000  Biso   1.000  O
  O86      1.0000 0.93840  0.90150  0.72000  Biso   1.000  O
  O87      1.0000 0.56160  0.40150  0.28000  Biso   1.000  O
  O88      1.0000 0.06160  0.90150  0.28000  Biso   1.000  O
  Cu1      1.0000 0.24210  0.82320  0.74550  Biso   1.000  Cu
  Cu2      1.0000 0.74210  0.32320  0.74550  Biso   1.000  Cu
  Cu3      1.0000 0.75790  0.82320  0.25450  Biso   1.000  Cu
  Cu4      1.0000 0.25790  0.32320  0.25450  Biso   1.000  Cu
  Cu5      1.0000 0.75790  0.17680  0.25450  Biso   1.000  Cu
  Cu6      1.0000 0.25790  0.67680  0.25450  Biso   1.000  Cu
  Cu7      1.0000 0.24210  0.17680  0.74550  Biso   1.000  Cu
  Cu8      1.0000 0.74210  0.67680  0.74550  Biso   1.000  Cu
  N1       1.0000 0.24560  0.78240  0.59660  Biso   1.000  N
  N2       1.0000 0.74560  0.28240  0.59660  Biso   1.000  N
  N3       1.0000 0.75440  0.78240  0.40340  Biso   1.000  N
  N4       1.0000 0.25440  0.28240  0.40340  Biso   1.000  N
  N5       1.0000 0.75440  0.21760  0.40340  Biso   1.000  N
  N6       1.0000 0.25440  0.71760  0.40340  Biso   1.000  N
  N7       1.0000 0.24560  0.21760  0.59660  Biso   1.000  N
  N8       1.0000 0.74560  0.71760  0.59660  Biso   1.000  N
  C1       1.0000 0.31800  0.77450  0.58930  Biso   1.000  C
  C2       1.0000 0.81800  0.27450  0.58930  Biso   1.000  C
  C3       1.0000 0.68200  0.77450  0.41070  Biso   1.000  C
  C4       1.0000 0.18200  0.27450  0.41070  Biso   1.000  C
  C5       1.0000 0.68200  0.22550  0.41070  Biso   1.000  C
  C6       1.0000 0.18200  0.72550  0.41070  Biso   1.000  C
  C7       1.0000 0.31800  0.22550  0.58930  Biso   1.000  C
  C8       1.0000 0.81800  0.72550  0.58930  Biso   1.000  C
  C9       1.0000 0.17670  0.75740  0.50800  Biso   1.000  C
  C10      1.0000 0.67670  0.25740  0.50800  Biso   1.000  C
  C11      1.0000 0.82330  0.75740  0.49200  Biso   1.000  C
  C12      1.0000 0.32330  0.25740  0.49200  Biso   1.000  C
  C13      1.0000 0.82330  0.24260  0.49200  Biso   1.000  C
  C14      1.0000 0.32330  0.74260  0.49200  Biso   1.000  C
  C15      1.0000 0.17670  0.24260  0.50800  Biso   1.000  C
  C16      1.0000 0.67670  0.74260  0.50800  Biso   1.000  C
  H1       1.0000 0.12340  0.76180  0.51180  Biso   1.000  H
  H2       1.0000 0.62340  0.26180  0.51180  Biso   1.000  H
  H3       1.0000 0.87660  0.76180  0.48820  Biso   1.000  H
  H4       1.0000 0.37660  0.26180  0.48820  Biso   1.000  H
  H5       1.0000 0.87660  0.23820  0.48820  Biso   1.000  H
  H6       1.0000 0.37660  0.73820  0.48820  Biso   1.000  H
  H7       1.0000 0.12340  0.23820  0.51180  Biso   1.000  H
  H8       1.0000 0.62340  0.73820  0.51180  Biso   1.000  H
  C17      1.0000 0.40100  0.79690  0.68300  Biso   1.000  C
  C18      1.0000 0.90100  0.29690  0.68300  Biso   1.000  C
  C19      1.0000 0.59900  0.79690  0.31700  Biso   1.000  C
  C20      1.0000 0.09900  0.29690  0.31700  Biso   1.000  C
  C21      1.0000 0.59900  0.20310  0.31700  Biso   1.000  C
  C22      1.0000 0.09900  0.70310  0.31700  Biso   1.000  C
  C23      1.0000 0.40100  0.20310  0.68300  Biso   1.000  C
  C24      1.0000 0.90100  0.70310  0.68300  Biso   1.000  C
  H9       1.0000 0.39200  0.81910  0.74940  Biso   1.000  H
  H10      1.0000 0.89200  0.31910  0.74940  Biso   1.000  H
  H11      1.0000 0.60800  0.81910  0.25060  Biso   1.000  H
  H12      1.0000 0.10800  0.31910  0.25060  Biso   1.000  H
  H13      1.0000 0.60800  0.18090  0.25060  Biso   1.000  H
  H14      1.0000 0.10800  0.68090  0.25060  Biso   1.000  H
  H15      1.0000 0.39200  0.18090  0.74940  Biso   1.000  H
  H16      1.0000 0.89200  0.68090  0.74940  Biso   1.000  H
  H17      1.0000 0.42700  0.83080  0.64850  Biso   1.000  H
  H18      1.0000 0.92700  0.33080  0.64850  Biso   1.000  H
  H19      1.0000 0.57300  0.83080  0.35150  Biso   1.000  H
  H20      1.0000 0.07300  0.33080  0.35150  Biso   1.000  H
  H21      1.0000 0.57300  0.16920  0.35150  Biso   1.000  H
  H22      1.0000 0.07300  0.66920  0.35150  Biso   1.000  H
  H23      1.0000 0.42700  0.16920  0.64850  Biso   1.000  H
  H24      1.0000 0.92700  0.66920  0.64850  Biso   1.000  H
  H25      1.0000 0.43730  0.75570  0.71260  Biso   1.000  H
  H26      1.0000 0.93730  0.25570  0.71260  Biso   1.000  H
  H27      1.0000 0.56270  0.75570  0.28740  Biso   1.000  H
  H28      1.0000 0.06270  0.25570  0.28740  Biso   1.000  H
  H29      1.0000 0.56270  0.24430  0.28740  Biso   1.000  H
  H30      1.0000 0.06270  0.74430  0.28740  Biso   1.000  H
  H31      1.0000 0.43730  0.24430  0.71260  Biso   1.000  H
  H32      1.0000 0.93730  0.74430  0.71260  Biso   1.000  H
  N9       1.0000 0.24620  0.77910  0.89470  Biso   1.000  N
  N10      1.0000 0.74620  0.27910  0.89470  Biso   1.000  N
  N11      1.0000 0.75380  0.77910  0.10530  Biso   1.000  N
  N12      1.0000 0.25380  0.27910  0.10530  Biso   1.000  N
  N13      1.0000 0.75380  0.22090  0.10530  Biso   1.000  N
  N14      1.0000 0.25380  0.72090  0.10530  Biso   1.000  N
  N15      1.0000 0.24620  0.22090  0.89470  Biso   1.000  N
  N16      1.0000 0.74620  0.72090  0.89470  Biso   1.000  N
  C25      1.0000 0.29880  0.80170  0.00100  Biso   1.000  C
  C26      1.0000 0.79880  0.30170  0.00100  Biso   1.000  C
  C27      1.0000 0.70120  0.80170  0.99900  Biso   1.000  C
  C28      1.0000 0.20120  0.30170  0.99900  Biso   1.000  C
  C29      1.0000 0.70120  0.19830  0.99900  Biso   1.000  C
  C30      1.0000 0.20120  0.69830  0.99900  Biso   1.000  C
  C31      1.0000 0.29880  0.19830  0.00100  Biso   1.000  C
  C32      1.0000 0.79880  0.69830  0.00100  Biso   1.000  C
  H33      1.0000 0.33700  0.83830  0.00430  Biso   1.000  H
  H34      1.0000 0.83700  0.33830  0.00430  Biso   1.000  H
  H35      1.0000 0.66300  0.83830  0.99570  Biso   1.000  H
  H36      1.0000 0.16300  0.33830  0.99570  Biso   1.000  H
  H37      1.0000 0.66300  0.16170  0.99570  Biso   1.000  H
  H38      1.0000 0.16300  0.66170  0.99570  Biso   1.000  H
  H39      1.0000 0.33700  0.16170  0.00430  Biso   1.000  H
  H40      1.0000 0.83700  0.66170  0.00430  Biso   1.000  H
  C33      1.0000 0.19810  0.72460  0.89200  Biso   1.000  C
  C34      1.0000 0.69810  0.22460  0.89200  Biso   1.000  C
  C35      1.0000 0.80190  0.72460  0.10800  Biso   1.000  C
  C36      1.0000 0.30190  0.22460  0.10800  Biso   1.000  C
  C37      1.0000 0.80190  0.27540  0.10800  Biso   1.000  C
  C38      1.0000 0.30190  0.77540  0.10800  Biso   1.000  C
  C39      1.0000 0.19810  0.27540  0.89200  Biso   1.000  C
  C40      1.0000 0.69810  0.77540  0.89200  Biso   1.000  C
  C41      1.0000 0.14130  0.69450  0.78100  Biso   1.000  C
  C42      1.0000 0.64130  0.19450  0.78100  Biso   1.000  C
  C43      1.0000 0.85870  0.69450  0.21900  Biso   1.000  C
  C44      1.0000 0.35870  0.19450  0.21900  Biso   1.000  C
  C45      1.0000 0.85870  0.30550  0.21900  Biso   1.000  C
  C46      1.0000 0.35870  0.80550  0.21900  Biso   1.000  C
  C47      1.0000 0.14130  0.30550  0.78100  Biso   1.000  C
  C48      1.0000 0.64130  0.80550  0.78100  Biso   1.000  C
  H41      1.0000 0.11210  0.65430  0.79690  Biso   1.000  H
  H42      1.0000 0.61210  0.15430  0.79690  Biso   1.000  H
  H43      1.0000 0.88790  0.65430  0.20310  Biso   1.000  H
  H44      1.0000 0.38790  0.15430  0.20310  Biso   1.000  H
  H45      1.0000 0.88790  0.34570  0.20310  Biso   1.000  H
  H46      1.0000 0.38790  0.84570  0.20310  Biso   1.000  H
  H47      1.0000 0.11210  0.34570  0.79690  Biso   1.000  H
  H48      1.0000 0.61210  0.84570  0.79690  Biso   1.000  H
  H49      1.0000 0.09990  0.73000  0.73420  Biso   1.000  H
  H50      1.0000 0.59990  0.23000  0.73420  Biso   1.000  H
  H51      1.0000 0.90010  0.73000  0.26580  Biso   1.000  H
  H52      1.0000 0.40010  0.23000  0.26580  Biso   1.000  H
  H53      1.0000 0.90010  0.27000  0.26580  Biso   1.000  H
  H54      1.0000 0.40010  0.77000  0.26580  Biso   1.000  H
  H55      1.0000 0.09990  0.27000  0.73420  Biso   1.000  H
  H56      1.0000 0.59990  0.77000  0.73420  Biso   1.000  H
  H57      1.0000 0.17320  0.67850  0.73540  Biso   1.000  H
  H58      1.0000 0.67320  0.17850  0.73540  Biso   1.000  H
  H59      1.0000 0.82680  0.67850  0.26460  Biso   1.000  H
  H60      1.0000 0.32680  0.17850  0.26460  Biso   1.000  H
  H61      1.0000 0.82680  0.32150  0.26460  Biso   1.000  H
  H62      1.0000 0.32680  0.82150  0.26460  Biso   1.000  H
  H63      1.0000 0.17320  0.32150  0.73540  Biso   1.000  H
  H64      1.0000 0.67320  0.82150  0.73540  Biso   1.000  H
  N17      1.0000 0.26280  0.92880  0.72930  Biso   1.000  N
  N18      1.0000 0.76280  0.42880  0.72930  Biso   1.000  N
  N19      1.0000 0.73720  0.92880  0.27070  Biso   1.000  N
  N20      1.0000 0.23720  0.42880  0.27070  Biso   1.000  N
  N21      1.0000 0.73720  0.07120  0.27070  Biso   1.000  N
  N22      1.0000 0.23720  0.57120  0.27070  Biso   1.000  N
  N23      1.0000 0.26280  0.07120  0.72930  Biso   1.000  N
  N24      1.0000 0.76280  0.57120  0.72930  Biso   1.000  N
  C49      1.0000 0.20280  0.96550  0.64100  Biso   1.000  C
  C50      1.0000 0.70280  0.46550  0.64100  Biso   1.000  C
  C51      1.0000 0.79720  0.96550  0.35900  Biso   1.000  C
  C52      1.0000 0.29720  0.46550  0.35900  Biso   1.000  C
  C53      1.0000 0.79720  0.03450  0.35900  Biso   1.000  C
  C54      1.0000 0.29720  0.53450  0.35900  Biso   1.000  C
  C55      1.0000 0.20280  0.03450  0.64100  Biso   1.000  C
  C56      1.0000 0.70280  0.53450  0.64100  Biso   1.000  C
  C57      1.0000 0.32240  0.96260  0.80900  Biso   1.000  C
  C58      1.0000 0.82240  0.46260  0.80900  Biso   1.000  C
  C59      1.0000 0.67760  0.96260  0.19100  Biso   1.000  C
  C60      1.0000 0.17760  0.46260  0.19100  Biso   1.000  C
  C61      1.0000 0.67760  0.03740  0.19100  Biso   1.000  C
  C62      1.0000 0.17760  0.53740  0.19100  Biso   1.000  C
  C63      1.0000 0.32240  0.03740  0.80900  Biso   1.000  C
  C64      1.0000 0.82240  0.53740  0.80900  Biso   1.000  C
  H65      1.0000 0.36750  0.93770  0.86880  Biso   1.000  H
  H66      1.0000 0.86750  0.43770  0.86880  Biso   1.000  H
  H67      1.0000 0.63250  0.93770  0.13120  Biso   1.000  H
  H68      1.0000 0.13250  0.43770  0.13120  Biso   1.000  H
  H69      1.0000 0.63250  0.06230  0.13120  Biso   1.000  H
  H70      1.0000 0.13250  0.56230  0.13120  Biso   1.000  H
  H71      1.0000 0.36750  0.06230  0.86880  Biso   1.000  H
  H72      1.0000 0.86750  0.56230  0.86880  Biso   1.000  H
  C65      1.0000 0.13400  0.93800  0.53900  Biso   1.000  C
  C66      1.0000 0.63400  0.43800  0.53900  Biso   1.000  C
  C67      1.0000 0.86600  0.93800  0.46100  Biso   1.000  C
  C68      1.0000 0.36600  0.43800  0.46100  Biso   1.000  C
  C69      1.0000 0.86600  0.06200  0.46100  Biso   1.000  C
  C70      1.0000 0.36600  0.56200  0.46100  Biso   1.000  C
  C71      1.0000 0.13400  0.06200  0.53900  Biso   1.000  C
  C72      1.0000 0.63400  0.56200  0.53900  Biso   1.000  C
  H73      1.0000 0.10200  0.97710  0.48800  Biso   1.000  H
  H74      1.0000 0.60200  0.47710  0.48800  Biso   1.000  H
  H75      1.0000 0.89800  0.97710  0.51200  Biso   1.000  H
  H76      1.0000 0.39800  0.47710  0.51200  Biso   1.000  H
  H77      1.0000 0.89800  0.02290  0.51200  Biso   1.000  H
  H78      1.0000 0.39800  0.52290  0.51200  Biso   1.000  H
  H79      1.0000 0.10200  0.02290  0.48800  Biso   1.000  H
  H80      1.0000 0.60200  0.52290  0.48800  Biso   1.000  H
  H81      1.0000 0.09730  0.91030  0.56480  Biso   1.000  H
  H82      1.0000 0.59730  0.41030  0.56480  Biso   1.000  H
  H83      1.0000 0.90270  0.91030  0.43520  Biso   1.000  H
  H84      1.0000 0.40270  0.41030  0.43520  Biso   1.000  H
  H85      1.0000 0.90270  0.08970  0.43520  Biso   1.000  H
  H86      1.0000 0.40270  0.58970  0.43520  Biso   1.000  H
  H87      1.0000 0.09730  0.08970  0.56480  Biso   1.000  H
  H88      1.0000 0.59730  0.58970  0.56480  Biso   1.000  H
  H89      1.0000 0.15600  0.90800  0.49280  Biso   1.000  H
  H90      1.0000 0.65600  0.40800  0.49280  Biso   1.000  H
  H91      1.0000 0.84400  0.90800  0.50720  Biso   1.000  H
  H92      1.0000 0.34400  0.40800  0.50720  Biso   1.000  H
  H93      1.0000 0.84400  0.09200  0.50720  Biso   1.000  H
  H94      1.0000 0.34400  0.59200  0.50720  Biso   1.000  H
  H95      1.0000 0.15600  0.09200  0.49280  Biso   1.000  H
  H96      1.0000 0.65600  0.59200  0.49280  Biso   1.000  H
  N25      1.0000 0.92300  0.50000  0.40400  Biso   1.000  N
  N26      1.0000 0.42300  0.00000  0.40400  Biso   1.000  N
  N27      1.0000 0.07700  0.50000  0.59600  Biso   1.000  N
  N28      1.0000 0.57700  0.00000  0.59600  Biso   1.000  N
  C73      1.0000 0.84700  0.50000  0.53800  Biso   1.000  C
  C74      1.0000 0.34700  0.00000  0.53800  Biso   1.000  C
  C75      1.0000 0.15300  0.50000  0.46200  Biso   1.000  C
  C76      1.0000 0.65300  0.00000  0.46200  Biso   1.000  C
  H97      1.0000 0.86100  0.50000  0.62440  Biso   1.000  H
  H98      1.0000 0.36100  0.00000  0.62440  Biso   1.000  H
  H99      1.0000 0.13900  0.50000  0.37560  Biso   1.000  H
  H100     1.0000 0.63900  0.00000  0.37560  Biso   1.000  H
  H101     1.0000 0.81360  0.45780  0.50130  Biso   1.000  H
  H102     1.0000 0.31360  0.95780  0.50130  Biso   1.000  H
  H103     1.0000 0.18640  0.45780  0.49870  Biso   1.000  H
  H104     1.0000 0.68640  0.95780  0.49870  Biso   1.000  H
  H105     1.0000 0.18640  0.54220  0.49870  Biso   1.000  H
  H106     1.0000 0.68640  0.04220  0.49870  Biso   1.000  H
  H107     1.0000 0.81360  0.54220  0.50130  Biso   1.000  H
  H108     1.0000 0.31360  0.04220  0.50130  Biso   1.000  H
  C77      1.0000 0.92900  0.50000  0.51800  Biso   1.000  C
  C78      1.0000 0.42900  0.00000  0.51800  Biso   1.000  C
  C79      1.0000 0.07100  0.50000  0.48200  Biso   1.000  C
  C80      1.0000 0.57100  0.00000  0.48200  Biso   1.000  C
  C81      1.0000 0.00100  0.50000  0.40000  Biso   1.000  C
  C82      1.0000 0.50100  0.00000  0.40000  Biso   1.000  C
  C83      1.0000 0.99900  0.50000  0.60000  Biso   1.000  C
  C84      1.0000 0.49900  0.00000  0.60000  Biso   1.000  C
  H109     1.0000 0.99990  0.50000  0.32140  Biso   1.000  H
  H110     1.0000 0.49990  0.00000  0.32140  Biso   1.000  H
  H111     1.0000 0.00010  0.50000  0.67860  Biso   1.000  H
  H112     1.0000 0.50010  0.00000  0.67860  Biso   1.000  H
