data_image0
_cell_length_a       13.371
_cell_length_b       21.109
_cell_length_c       14.088
_cell_angle_alpha    90
_cell_angle_beta     118.33
_cell_angle_gamma    90

_symmetry_space_group_name_H-M    "P 1"
_symmetry_int_tables_number       1

loop_
  _symmetry_equiv_pos_as_xyz
  'x, y, z'

loop_
  _atom_site_label
  _atom_site_occupancy
  _atom_site_fract_x
  _atom_site_fract_y
  _atom_site_fract_z
  _atom_site_thermal_displace_type
  _atom_site_B_iso_or_equiv
  _atom_site_type_symbol
  W1       1.0000 0.01033  0.46356  0.76236  Biso   1.000  W
  W2       1.0000 0.98967  0.96356  0.73764  Biso   1.000  W
  W3       1.0000 0.98967  0.53644  0.23764  Biso   1.000  W
  W4       1.0000 0.01033  0.03644  0.26236  Biso   1.000  W
  W5       1.0000 0.16910  0.37367  0.99740  Biso   1.000  W
  W6       1.0000 0.83090  0.87367  0.50260  Biso   1.000  W
  W7       1.0000 0.83090  0.62633  0.00260  Biso   1.000  W
  W8       1.0000 0.16910  0.12633  0.49740  Biso   1.000  W
  W9       1.0000 0.85155  0.59353  0.76943  Biso   1.000  W
  W10      1.0000 0.14845  0.09353  0.73057  Biso   1.000  W
  W11      1.0000 0.14845  0.40647  0.23057  Biso   1.000  W
  W12      1.0000 0.85155  0.90647  0.26943  Biso   1.000  W
  W13      1.0000 0.87065  0.36141  0.85753  Biso   1.000  W
  W14      1.0000 0.12935  0.86141  0.64247  Biso   1.000  W
  W15      1.0000 0.12935  0.63859  0.14247  Biso   1.000  W
  W16      1.0000 0.87065  0.13859  0.35753  Biso   1.000  W
  W17      1.0000 0.29744  0.50864  0.14939  Biso   1.000  W
  W18      1.0000 0.70256  0.00864  0.35061  Biso   1.000  W
  W19      1.0000 0.70256  0.49136  0.85061  Biso   1.000  W
  W20      1.0000 0.29744  0.99136  0.64939  Biso   1.000  W
  W21      1.0000 0.15059  0.59744  0.91363  Biso   1.000  W
  W22      1.0000 0.84941  0.09744  0.58637  Biso   1.000  W
  W23      1.0000 0.84941  0.40256  0.08637  Biso   1.000  W
  W24      1.0000 0.15059  0.90256  0.41363  Biso   1.000  W
  Si1      1.0000 0.00000  0.50000  0.00000  Biso   1.000  Si
  Si2      1.0000 0.00000  0.00000  0.50000  Biso   1.000  Si
  O1       1.0000 0.09590  0.54730  0.03930  Biso   1.000  O
  O2       1.0000 0.90410  0.04730  0.46070  Biso   1.000  O
  O3       1.0000 0.90410  0.45270  0.96070  Biso   1.000  O
  O4       1.0000 0.09590  0.95270  0.53930  Biso   1.000  O
  O5       1.0000 0.04860  0.43610  0.04440  Biso   1.000  O
  O6       1.0000 0.95140  0.93610  0.45560  Biso   1.000  O
  O7       1.0000 0.95140  0.56390  0.95560  Biso   1.000  O
  O8       1.0000 0.04860  0.06390  0.54440  Biso   1.000  O
  O9       1.0000 0.94450  0.49840  0.87900  Biso   1.000  O
  O10      1.0000 0.05550  0.99840  0.62100  Biso   1.000  O
  O11      1.0000 0.05550  0.50160  0.12100  Biso   1.000  O
  O12      1.0000 0.94450  0.00160  0.37900  Biso   1.000  O
  O13      1.0000 0.91690  0.52030  0.03680  Biso   1.000  O
  O14      1.0000 0.08310  0.02030  0.46320  Biso   1.000  O
  O15      1.0000 0.08310  0.47970  0.96320  Biso   1.000  O
  O16      1.0000 0.91690  0.97970  0.53680  Biso   1.000  O
  O17      1.0000 0.73220  0.54070  0.75690  Biso   1.000  O
  O18      1.0000 0.26780  0.04070  0.74310  Biso   1.000  O
  O19      1.0000 0.26780  0.45930  0.24310  Biso   1.000  O
  O20      1.0000 0.73220  0.95930  0.25690  Biso   1.000  O
  O21      1.0000 0.84740  0.34710  0.97760  Biso   1.000  O
  O22      1.0000 0.15260  0.84710  0.52240  Biso   1.000  O
  O23      1.0000 0.15260  0.65290  0.02240  Biso   1.000  O
  O24      1.0000 0.84740  0.15290  0.47760  Biso   1.000  O
  O25      1.0000 0.26970  0.55640  0.02030  Biso   1.000  O
  O26      1.0000 0.73030  0.05640  0.47970  Biso   1.000  O
  O27      1.0000 0.73030  0.44360  0.97970  Biso   1.000  O
  O28      1.0000 0.26970  0.94360  0.52030  Biso   1.000  O
  O29      1.0000 0.73720  0.41190  0.79980  Biso   1.000  O
  O30      1.0000 0.26280  0.91190  0.70020  Biso   1.000  O
  O31      1.0000 0.26280  0.58810  0.20020  Biso   1.000  O
  O32      1.0000 0.73720  0.08810  0.29980  Biso   1.000  O
  O33      1.0000 0.28240  0.43180  0.06760  Biso   1.000  O
  O34      1.0000 0.71760  0.93180  0.43240  Biso   1.000  O
  O35      1.0000 0.71760  0.56820  0.93240  Biso   1.000  O
  O36      1.0000 0.28240  0.06820  0.56760  Biso   1.000  O
  O37      1.0000 0.11750  0.52700  0.81370  Biso   1.000  O
  O38      1.0000 0.88250  0.02700  0.68630  Biso   1.000  O
  O39      1.0000 0.88250  0.47300  0.18630  Biso   1.000  O
  O40      1.0000 0.11750  0.97300  0.31370  Biso   1.000  O
  O41      1.0000 0.81070  0.29690  0.79590  Biso   1.000  O
  O42      1.0000 0.18930  0.79690  0.70410  Biso   1.000  O
  O43      1.0000 0.18930  0.70310  0.20410  Biso   1.000  O
  O44      1.0000 0.81070  0.20310  0.29590  Biso   1.000  O
  O45      1.0000 0.01330  0.44300  0.65230  Biso   1.000  O
  O46      1.0000 0.98670  0.94300  0.84770  Biso   1.000  O
  O47      1.0000 0.98670  0.55700  0.34770  Biso   1.000  O
  O48      1.0000 0.01330  0.05700  0.15230  Biso   1.000  O
  O49      1.0000 0.90610  0.40300  0.75720  Biso   1.000  O
  O50      1.0000 0.09390  0.90300  0.74280  Biso   1.000  O
  O51      1.0000 0.09390  0.59700  0.24280  Biso   1.000  O
  O52      1.0000 0.90610  0.09700  0.25720  Biso   1.000  O
  O53      1.0000 0.17030  0.35980  0.13470  Biso   1.000  O
  O54      1.0000 0.82970  0.85980  0.36530  Biso   1.000  O
  O55      1.0000 0.82970  0.64020  0.86530  Biso   1.000  O
  O56      1.0000 0.17030  0.14020  0.63470  Biso   1.000  O
  O57      1.0000 0.24640  0.31290  0.99690  Biso   1.000  O
  O58      1.0000 0.75360  0.81290  0.50310  Biso   1.000  O
  O59      1.0000 0.75360  0.68710  0.00310  Biso   1.000  O
  O60      1.0000 0.24640  0.18710  0.49690  Biso   1.000  O
  O61      1.0000 0.99910  0.62740  0.82490  Biso   1.000  O
  O62      1.0000 0.00090  0.12740  0.67510  Biso   1.000  O
  O63      1.0000 0.00090  0.37260  0.17510  Biso   1.000  O
  O64      1.0000 0.99910  0.87260  0.32490  Biso   1.000  O
  O65      1.0000 0.21940  0.64360  0.86690  Biso   1.000  O
  O66      1.0000 0.78060  0.14360  0.63310  Biso   1.000  O
  O67      1.0000 0.78060  0.35640  0.13310  Biso   1.000  O
  O68      1.0000 0.21940  0.85640  0.36690  Biso   1.000  O
  O69      1.0000 0.02510  0.33610  0.93610  Biso   1.000  O
  O70      1.0000 0.97490  0.83610  0.56390  Biso   1.000  O
  O71      1.0000 0.97490  0.66390  0.06390  Biso   1.000  O
  O72      1.0000 0.02510  0.16390  0.43610  Biso   1.000  O
  O73      1.0000 0.44030  0.51510  0.22180  Biso   1.000  O
  O74      1.0000 0.55970  0.01510  0.27820  Biso   1.000  O
  O75      1.0000 0.55970  0.48490  0.77820  Biso   1.000  O
  O76      1.0000 0.44030  0.98490  0.72180  Biso   1.000  O
  O77      1.0000 0.89610  0.52350  0.71140  Biso   1.000  O
  O78      1.0000 0.10390  0.02350  0.78860  Biso   1.000  O
  O79      1.0000 0.10390  0.47650  0.28860  Biso   1.000  O
  O80      1.0000 0.89610  0.97650  0.21140  Biso   1.000  O
  O81      1.0000 0.78430  0.63790  0.65810  Biso   1.000  O
  O82      1.0000 0.21570  0.13790  0.84190  Biso   1.000  O
  O83      1.0000 0.21570  0.36210  0.34190  Biso   1.000  O
  O84      1.0000 0.78430  0.86210  0.15810  Biso   1.000  O
  O85      1.0000 0.12460  0.40870  0.85990  Biso   1.000  O
  O86      1.0000 0.87540  0.90870  0.64010  Biso   1.000  O
  O87      1.0000 0.87540  0.59130  0.14010  Biso   1.000  O
  O88      1.0000 0.12460  0.09130  0.35990  Biso   1.000  O
  Cu1      1.0000 0.23740  0.17691  0.15367  Biso   1.000  Cu
  Cu2      1.0000 0.76260  0.67691  0.34633  Biso   1.000  Cu
  Cu3      1.0000 0.76260  0.82309  0.84633  Biso   1.000  Cu
  Cu4      1.0000 0.23740  0.32309  0.65367  Biso   1.000  Cu
  Cu5      1.0000 0.69300  0.14028  0.82295  Biso   1.000  Cu
  Cu6      1.0000 0.30700  0.64028  0.67705  Biso   1.000  Cu
  Cu7      1.0000 0.30700  0.85972  0.17705  Biso   1.000  Cu
  Cu8      1.0000 0.69300  0.35972  0.32295  Biso   1.000  Cu
  N1       1.0000 0.07640  0.19310  0.05380  Biso   1.000  N
  N2       1.0000 0.92360  0.69310  0.44620  Biso   1.000  N
  N3       1.0000 0.92360  0.80690  0.94620  Biso   1.000  N
  N4       1.0000 0.07640  0.30690  0.55380  Biso   1.000  N
  C1       1.0000 0.03810  0.17880  0.95120  Biso   1.000  C
  C2       1.0000 0.96190  0.67880  0.54880  Biso   1.000  C
  C3       1.0000 0.96190  0.82120  0.04880  Biso   1.000  C
  C4       1.0000 0.03810  0.32120  0.45120  Biso   1.000  C
  H1       1.0000 0.09120  0.17510  0.92460  Biso   1.000  H
  H2       1.0000 0.90880  0.67510  0.57540  Biso   1.000  H
  H3       1.0000 0.90880  0.82490  0.07540  Biso   1.000  H
  H4       1.0000 0.09120  0.32490  0.42460  Biso   1.000  H
  C5       1.0000 0.93000  0.16950  0.88410  Biso   1.000  C
  C6       1.0000 0.07000  0.66950  0.61590  Biso   1.000  C
  C7       1.0000 0.07000  0.83050  0.11590  Biso   1.000  C
  C8       1.0000 0.93000  0.33050  0.38410  Biso   1.000  C
  H5       1.0000 0.90730  0.16030  0.81070  Biso   1.000  H
  H6       1.0000 0.09270  0.66030  0.68930  Biso   1.000  H
  H7       1.0000 0.09270  0.83970  0.18930  Biso   1.000  H
  H8       1.0000 0.90730  0.33970  0.31070  Biso   1.000  H
  C9       1.0000 0.88340  0.19370  0.01620  Biso   1.000  C
  C10      1.0000 0.11660  0.69370  0.48380  Biso   1.000  C
  C11      1.0000 0.11660  0.80630  0.98380  Biso   1.000  C
  C12      1.0000 0.88340  0.30630  0.51620  Biso   1.000  C
  C13      1.0000 0.00340  0.20140  0.08580  Biso   1.000  C
  C14      1.0000 0.99660  0.70140  0.41420  Biso   1.000  C
  C15      1.0000 0.99660  0.79860  0.91420  Biso   1.000  C
  C16      1.0000 0.00340  0.29860  0.58580  Biso   1.000  C
  C17      1.0000 0.79870  0.20040  0.05030  Biso   1.000  C
  C18      1.0000 0.20130  0.70040  0.44970  Biso   1.000  C
  C19      1.0000 0.20130  0.79960  0.94970  Biso   1.000  C
  C20      1.0000 0.79870  0.29960  0.55030  Biso   1.000  C
  H9       1.0000 0.72350  0.19190  0.98930  Biso   1.000  H
  H10      1.0000 0.27650  0.69190  0.51070  Biso   1.000  H
  H11      1.0000 0.27650  0.80810  0.01070  Biso   1.000  H
  H12      1.0000 0.72350  0.30810  0.48930  Biso   1.000  H
  H13      1.0000 0.81390  0.17020  0.10840  Biso   1.000  H
  H14      1.0000 0.18610  0.67020  0.39160  Biso   1.000  H
  H15      1.0000 0.18610  0.82980  0.89160  Biso   1.000  H
  H16      1.0000 0.81390  0.32980  0.60840  Biso   1.000  H
  H17      1.0000 0.80070  0.24360  0.07650  Biso   1.000  H
  H18      1.0000 0.19930  0.74360  0.42350  Biso   1.000  H
  H19      1.0000 0.19930  0.75640  0.92350  Biso   1.000  H
  H20      1.0000 0.80070  0.25640  0.57650  Biso   1.000  H
  C21      1.0000 0.04450  0.22320  0.20060  Biso   1.000  C
  C22      1.0000 0.95550  0.72320  0.29940  Biso   1.000  C
  C23      1.0000 0.95550  0.77680  0.79940  Biso   1.000  C
  C24      1.0000 0.04450  0.27680  0.70060  Biso   1.000  C
  H21      1.0000 0.12750  0.22650  0.23750  Biso   1.000  H
  H22      1.0000 0.87250  0.72650  0.26250  Biso   1.000  H
  H23      1.0000 0.87250  0.77350  0.76250  Biso   1.000  H
  H24      1.0000 0.12750  0.27350  0.73750  Biso   1.000  H
  H25      1.0000 0.01140  0.26460  0.20040  Biso   1.000  H
  H26      1.0000 0.98860  0.76460  0.29960  Biso   1.000  H
  H27      1.0000 0.98860  0.73540  0.79960  Biso   1.000  H
  H28      1.0000 0.01140  0.23540  0.70040  Biso   1.000  H
  H29      1.0000 0.02110  0.19250  0.23840  Biso   1.000  H
  H30      1.0000 0.97890  0.69250  0.26160  Biso   1.000  H
  H31      1.0000 0.97890  0.80750  0.76160  Biso   1.000  H
  H32      1.0000 0.02110  0.30750  0.73840  Biso   1.000  H
  N5       1.0000 0.84990  0.17260  0.91710  Biso   1.000  N
  N6       1.0000 0.15010  0.67260  0.58290  Biso   1.000  N
  N7       1.0000 0.15010  0.82740  0.08290  Biso   1.000  N
  N8       1.0000 0.84990  0.32740  0.41710  Biso   1.000  N
  N9       1.0000 0.55410  0.31050  0.26430  Biso   1.000  N
  N10      1.0000 0.44590  0.81050  0.23570  Biso   1.000  N
  N11      1.0000 0.44590  0.68950  0.73570  Biso   1.000  N
  N12      1.0000 0.55410  0.18950  0.76430  Biso   1.000  N
  C25      1.0000 0.48940  0.31280  0.31230  Biso   1.000  C
  C26      1.0000 0.51060  0.81280  0.18770  Biso   1.000  C
  C27      1.0000 0.51060  0.68720  0.68770  Biso   1.000  C
  C28      1.0000 0.48940  0.18720  0.81230  Biso   1.000  C
  H33      1.0000 0.50900  0.34110  0.37100  Biso   1.000  H
  H34      1.0000 0.49100  0.84110  0.12900  Biso   1.000  H
  H35      1.0000 0.49100  0.65890  0.62900  Biso   1.000  H
  H36      1.0000 0.50900  0.15890  0.87100  Biso   1.000  H
  C29      1.0000 0.39620  0.27580  0.27950  Biso   1.000  C
  C30      1.0000 0.60380  0.77580  0.22050  Biso   1.000  C
  C31      1.0000 0.60380  0.72420  0.72050  Biso   1.000  C
  C32      1.0000 0.39620  0.22420  0.77950  Biso   1.000  C
  H37      1.0000 0.34830  0.28160  0.31150  Biso   1.000  H
  H38      1.0000 0.65170  0.78160  0.18850  Biso   1.000  H
  H39      1.0000 0.65170  0.71840  0.68850  Biso   1.000  H
  H40      1.0000 0.34830  0.21840  0.81150  Biso   1.000  H
  C33      1.0000 0.43550  0.22870  0.15910  Biso   1.000  C
  C34      1.0000 0.56450  0.72870  0.34090  Biso   1.000  C
  C35      1.0000 0.56450  0.77130  0.84090  Biso   1.000  C
  C36      1.0000 0.43550  0.27130  0.65910  Biso   1.000  C
  C37      1.0000 0.52500  0.26840  0.18560  Biso   1.000  C
  C38      1.0000 0.47500  0.76840  0.31440  Biso   1.000  C
  C39      1.0000 0.47500  0.73160  0.81440  Biso   1.000  C
  C40      1.0000 0.52500  0.23160  0.68560  Biso   1.000  C
  C41      1.0000 0.40700  0.18080  0.07320  Biso   1.000  C
  C42      1.0000 0.59300  0.68080  0.42680  Biso   1.000  C
  C43      1.0000 0.59300  0.81920  0.92680  Biso   1.000  C
  C44      1.0000 0.40700  0.31920  0.57320  Biso   1.000  C
  H41      1.0000 0.34170  0.15580  0.06520  Biso   1.000  H
  H42      1.0000 0.65830  0.65580  0.43480  Biso   1.000  H
  H43      1.0000 0.65830  0.84420  0.93480  Biso   1.000  H
  H44      1.0000 0.34170  0.34420  0.56520  Biso   1.000  H
  H45      1.0000 0.47230  0.15280  0.09270  Biso   1.000  H
  H46      1.0000 0.52770  0.65280  0.40730  Biso   1.000  H
  H47      1.0000 0.52770  0.84720  0.90730  Biso   1.000  H
  H48      1.0000 0.47230  0.34720  0.59270  Biso   1.000  H
  H49      1.0000 0.38800  0.20220  0.00500  Biso   1.000  H
  H50      1.0000 0.61200  0.70220  0.49500  Biso   1.000  H
  H51      1.0000 0.61200  0.79780  0.99500  Biso   1.000  H
  H52      1.0000 0.38800  0.29780  0.50500  Biso   1.000  H
  C45      1.0000 0.59100  0.26990  0.12720  Biso   1.000  C
  C46      1.0000 0.40900  0.76990  0.37280  Biso   1.000  C
  C47      1.0000 0.40900  0.73010  0.87280  Biso   1.000  C
  C48      1.0000 0.59100  0.23010  0.62720  Biso   1.000  C
  H53      1.0000 0.65050  0.30220  0.15890  Biso   1.000  H
  H54      1.0000 0.34950  0.80220  0.34110  Biso   1.000  H
  H55      1.0000 0.34950  0.69780  0.84110  Biso   1.000  H
  H56      1.0000 0.65050  0.19780  0.65890  Biso   1.000  H
  H57      1.0000 0.54070  0.28010  0.05120  Biso   1.000  H
  H58      1.0000 0.45930  0.78010  0.44880  Biso   1.000  H
  H59      1.0000 0.45930  0.71990  0.94880  Biso   1.000  H
  H60      1.0000 0.54070  0.21990  0.55120  Biso   1.000  H
  H61      1.0000 0.62600  0.22840  0.13230  Biso   1.000  H
  H62      1.0000 0.37400  0.72840  0.36770  Biso   1.000  H
  H63      1.0000 0.37400  0.77160  0.86770  Biso   1.000  H
  H64      1.0000 0.62600  0.27160  0.63230  Biso   1.000  H
  N13      1.0000 0.36910  0.23110  0.20340  Biso   1.000  N
  N14      1.0000 0.63090  0.73110  0.29660  Biso   1.000  N
  N15      1.0000 0.63090  0.76890  0.79660  Biso   1.000  N
  N16      1.0000 0.36910  0.26890  0.70340  Biso   1.000  N
  N17      1.0000 0.25290  0.08320  0.17090  Biso   1.000  N
  N18      1.0000 0.74710  0.58320  0.32910  Biso   1.000  N
  N19      1.0000 0.74710  0.91680  0.82910  Biso   1.000  N
  N20      1.0000 0.25290  0.41680  0.67090  Biso   1.000  N
  C49      1.0000 0.19900  0.04690  0.08220  Biso   1.000  C
  C50      1.0000 0.80100  0.54690  0.41780  Biso   1.000  C
  C51      1.0000 0.80100  0.95310  0.91780  Biso   1.000  C
  C52      1.0000 0.19900  0.45310  0.58220  Biso   1.000  C
  H65      1.0000 0.14980  0.06610  0.01500  Biso   1.000  H
  H66      1.0000 0.85020  0.56610  0.48500  Biso   1.000  H
  H67      1.0000 0.85020  0.93390  0.98500  Biso   1.000  H
  H68      1.0000 0.14980  0.43390  0.51500  Biso   1.000  H
  C53      1.0000 0.21460  0.98060  0.08790  Biso   1.000  C
  C54      1.0000 0.78540  0.48060  0.41210  Biso   1.000  C
  C55      1.0000 0.78540  0.01940  0.91210  Biso   1.000  C
  C56      1.0000 0.21460  0.51940  0.58790  Biso   1.000  C
  H69      1.0000 0.17490  0.95570  0.02460  Biso   1.000  H
  H70      1.0000 0.82510  0.45570  0.47540  Biso   1.000  H
  H71      1.0000 0.82510  0.04430  0.97540  Biso   1.000  H
  H72      1.0000 0.17490  0.54430  0.52460  Biso   1.000  H
  C57      1.0000 0.33750  0.98840  0.27280  Biso   1.000  C
  C58      1.0000 0.66250  0.48840  0.22720  Biso   1.000  C
  C59      1.0000 0.66250  0.01160  0.72720  Biso   1.000  C
  C60      1.0000 0.33750  0.51160  0.77280  Biso   1.000  C
  C61      1.0000 0.32000  0.05410  0.26340  Biso   1.000  C
  C62      1.0000 0.68000  0.55410  0.23660  Biso   1.000  C
  C63      1.0000 0.68000  0.94590  0.73660  Biso   1.000  C
  C64      1.0000 0.32000  0.44590  0.76340  Biso   1.000  C
  C65      1.0000 0.41110  0.95860  0.37530  Biso   1.000  C
  C66      1.0000 0.58890  0.45860  0.12470  Biso   1.000  C
  C67      1.0000 0.58890  0.04140  0.62470  Biso   1.000  C
  C68      1.0000 0.41110  0.54140  0.87530  Biso   1.000  C
  H73      1.0000 0.41210  0.91280  0.36520  Biso   1.000  H
  H74      1.0000 0.58790  0.41280  0.13480  Biso   1.000  H
  H75      1.0000 0.58790  0.08720  0.63480  Biso   1.000  H
  H76      1.0000 0.41210  0.58720  0.86520  Biso   1.000  H
  H77      1.0000 0.38260  0.96750  0.42650  Biso   1.000  H
  H78      1.0000 0.61740  0.46750  0.07350  Biso   1.000  H
  H79      1.0000 0.61740  0.03250  0.57350  Biso   1.000  H
  H80      1.0000 0.38260  0.53250  0.92650  Biso   1.000  H
  H81      1.0000 0.48830  0.97550  0.40360  Biso   1.000  H
  H82      1.0000 0.51170  0.47550  0.09640  Biso   1.000  H
  H83      1.0000 0.51170  0.02450  0.59640  Biso   1.000  H
  H84      1.0000 0.48830  0.52450  0.90360  Biso   1.000  H
  C69      1.0000 0.37610  0.09520  0.36340  Biso   1.000  C
  C70      1.0000 0.62390  0.59520  0.13660  Biso   1.000  C
  C71      1.0000 0.62390  0.90480  0.63660  Biso   1.000  C
  C72      1.0000 0.37610  0.40480  0.86340  Biso   1.000  C
  H85      1.0000 0.35580  0.13960  0.34340  Biso   1.000  H
  H86      1.0000 0.64420  0.63960  0.15660  Biso   1.000  H
  H87      1.0000 0.64420  0.86040  0.65660  Biso   1.000  H
  H88      1.0000 0.35580  0.36040  0.84340  Biso   1.000  H
  H89      1.0000 0.45880  0.09030  0.39670  Biso   1.000  H
  H90      1.0000 0.54120  0.59030  0.10330  Biso   1.000  H
  H91      1.0000 0.54120  0.90970  0.60330  Biso   1.000  H
  H92      1.0000 0.45880  0.40970  0.89670  Biso   1.000  H
  H93      1.0000 0.35000  0.08220  0.41480  Biso   1.000  H
  H94      1.0000 0.65000  0.58220  0.08520  Biso   1.000  H
  H95      1.0000 0.65000  0.91780  0.58520  Biso   1.000  H
  H96      1.0000 0.35000  0.41780  0.91480  Biso   1.000  H
  N21      1.0000 0.28490  0.95210  0.18140  Biso   1.000  N
  N22      1.0000 0.71510  0.45210  0.31860  Biso   1.000  N
  N23      1.0000 0.71510  0.04790  0.81860  Biso   1.000  N
  N24      1.0000 0.28490  0.54790  0.68140  Biso   1.000  N
