data_image0
_cell_length_a       11.818
_cell_length_b       12.13
_cell_length_c       12.237
_cell_angle_alpha    114.618
_cell_angle_beta     99.606
_cell_angle_gamma    95.554

_symmetry_space_group_name_H-M    "P 1"
_symmetry_int_tables_number       1

loop_
  _symmetry_equiv_pos_as_xyz
  'x, y, z'

loop_
  _atom_site_label
  _atom_site_occupancy
  _atom_site_fract_x
  _atom_site_fract_y
  _atom_site_fract_z
  _atom_site_thermal_displace_type
  _atom_site_B_iso_or_equiv
  _atom_site_type_symbol
  Cu1      1.0000 0.28810  0.48950  0.77790  Biso   1.000  Cu
  Cu2      1.0000 0.71190  0.51050  0.22210  Biso   1.000  Cu
  Cu3      1.0000 0.74620  0.19330  0.56660  Biso   1.000  Cu
  Cu4      1.0000 0.25380  0.80670  0.43340  Biso   1.000  Cu
  N1       1.0000 0.13780  0.38540  0.73970  Biso   1.000  N
  N2       1.0000 0.86220  0.61460  0.26030  Biso   1.000  N
  C1       1.0000 0.04700  0.41800  0.79300  Biso   1.000  C
  C2       1.0000 0.95300  0.58200  0.20700  Biso   1.000  C
  H1       1.0000 0.06500  0.49180  0.86790  Biso   1.000  H
  H2       1.0000 0.93500  0.50820  0.13210  Biso   1.000  H
  C3       1.0000 0.93900  0.36300  0.75500  Biso   1.000  C
  C4       1.0000 0.06100  0.63700  0.24500  Biso   1.000  C
  H3       1.0000 0.88220  0.39880  0.79780  Biso   1.000  H
  H4       1.0000 0.11780  0.60120  0.20220  Biso   1.000  H
  C5       1.0000 0.98700  0.20800  0.60100  Biso   1.000  C
  C6       1.0000 0.01300  0.79200  0.39900  Biso   1.000  C
  H5       1.0000 0.96940  0.12640  0.53570  Biso   1.000  H
  H6       1.0000 0.03060  0.87360  0.46430  Biso   1.000  H
  C7       1.0000 0.11000  0.28200  0.64390  Biso   1.000  C
  C8       1.0000 0.89000  0.71800  0.35610  Biso   1.000  C
  H7       1.0000 0.16690  0.25160  0.59830  Biso   1.000  H
  H8       1.0000 0.83310  0.74840  0.40170  Biso   1.000  H
  N3       1.0000 0.90870  0.25300  0.65300  Biso   1.000  N
  N4       1.0000 0.09130  0.74700  0.34700  Biso   1.000  N
  N5       1.0000 0.27210  0.71680  0.54150  Biso   1.000  N
  N6       1.0000 0.72790  0.28320  0.45850  Biso   1.000  N
  C9       1.0000 0.33200  0.76810  0.66820  Biso   1.000  C
  C10      1.0000 0.66800  0.23190  0.33180  Biso   1.000  C
  H9       1.0000 0.37010  0.85190  0.70720  Biso   1.000  H
  H10      1.0000 0.62990  0.14810  0.29280  Biso   1.000  H
  C11      1.0000 0.33580  0.70780  0.73150  Biso   1.000  C
  C12      1.0000 0.66420  0.29220  0.26850  Biso   1.000  C
  H11      1.0000 0.37240  0.74970  0.81700  Biso   1.000  H
  H12      1.0000 0.62760  0.25030  0.18300  Biso   1.000  H
  C13      1.0000 0.23500  0.53300  0.56290  Biso   1.000  C
  C14      1.0000 0.76500  0.46700  0.43710  Biso   1.000  C
  H13      1.0000 0.19680  0.44940  0.52660  Biso   1.000  H
  H14      1.0000 0.80320  0.55060  0.47340  Biso   1.000  H
  C15      1.0000 0.22910  0.59390  0.49020  Biso   1.000  C
  C16      1.0000 0.77090  0.40610  0.50980  Biso   1.000  C
  H15      1.0000 0.19530  0.55010  0.40420  Biso   1.000  H
  H16      1.0000 0.80470  0.44990  0.59580  Biso   1.000  H
  N7       1.0000 0.29000  0.58520  0.68180  Biso   1.000  N
  N8       1.0000 0.71000  0.41480  0.31820  Biso   1.000  N
  N9       1.0000 0.61000  0.08000  0.52900  Biso   1.000  N
  N10      1.0000 0.39000  0.92000  0.47100  Biso   1.000  N
  C17      1.0000 0.57500  0.98500  0.41500  Biso   1.000  C
  C18      1.0000 0.42500  0.01500  0.58500  Biso   1.000  C
  H17      1.0000 0.62200  0.96710  0.35580  Biso   1.000  H
  H18      1.0000 0.37800  0.03290  0.64420  Biso   1.000  H
  C19      1.0000 0.54500  0.09000  0.61100  Biso   1.000  C
  C20      1.0000 0.45500  0.91000  0.38900  Biso   1.000  C
  H19      1.0000 0.57710  0.14960  0.69390  Biso   1.000  H
  H20      1.0000 0.42290  0.85040  0.30610  Biso   1.000  H
  N11      1.0000 0.41180  0.49460  0.90730  Biso   1.000  N
  N12      1.0000 0.58820  0.50540  0.09270  Biso   1.000  N
  C21      1.0000 0.50000  0.60200  0.98100  Biso   1.000  C
  C22      1.0000 0.50000  0.39800  0.01900  Biso   1.000  C
  H21      1.0000 0.50080  0.67320  0.96640  Biso   1.000  H
  H22      1.0000 0.49920  0.32680  0.03360  Biso   1.000  H
  C23      1.0000 0.42360  0.39960  0.93300  Biso   1.000  C
  C24      1.0000 0.57640  0.60040  0.06700  Biso   1.000  C
  H23      1.0000 0.36930  0.32510  0.88210  Biso   1.000  H
  H24      1.0000 0.63070  0.67490  0.11790  Biso   1.000  H
  O1       1.0000 0.65710  0.36830  0.74270  Biso   1.000  O
  O2       1.0000 0.34290  0.63170  0.25730  Biso   1.000  O
  W1       1.0000 0.17773  0.79506  0.03447  Biso   1.000  W
  W2       1.0000 0.82227  0.20494  0.96553  Biso   1.000  W
  W3       1.0000 0.00537  0.72720  0.74302  Biso   1.000  W
  W4       1.0000 0.99463  0.27280  0.25698  Biso   1.000  W
  W5       1.0000 0.30524  0.07530  0.04834  Biso   1.000  W
  W6       1.0000 0.69476  0.92470  0.95166  Biso   1.000  W
  W7       1.0000 0.18080  0.07345  0.28918  Biso   1.000  W
  W8       1.0000 0.81920  0.92655  0.71082  Biso   1.000  W
  W9       1.0000 0.12360  0.01475  0.76368  Biso   1.000  W
  W10      1.0000 0.87640  0.98525  0.23632  Biso   1.000  W
  W11      1.0000 0.12825  0.28675  0.02605  Biso   1.000  W
  W12      1.0000 0.87175  0.71325  0.97395  Biso   1.000  W
  Si1      1.0000 0.00000  0.00000  0.00000  Biso   1.000  Si
  O3       1.0000 0.09720  0.06800  0.97110  Biso   1.000  O
  O4       1.0000 0.90280  0.93200  0.02890  Biso   1.000  O
  O5       1.0000 0.00900  0.86720  0.95630  Biso   1.000  O
  O6       1.0000 0.99100  0.13280  0.04370  Biso   1.000  O
  O7       1.0000 0.12300  0.17800  0.85990  Biso   1.000  O
  O8       1.0000 0.87700  0.82200  0.14010  Biso   1.000  O
  O9       1.0000 0.20200  0.90630  0.20200  Biso   1.000  O
  O10      1.0000 0.79800  0.09370  0.79800  Biso   1.000  O
  O11      1.0000 0.26000  0.02470  0.87400  Biso   1.000  O
  O12      1.0000 0.74000  0.97530  0.12600  Biso   1.000  O
  O13      1.0000 0.25600  0.23000  0.07290  Biso   1.000  O
  O14      1.0000 0.74400  0.77000  0.92710  Biso   1.000  O
  O15      1.0000 0.03010  0.71500  0.03320  Biso   1.000  O
  O16      1.0000 0.96990  0.28500  0.96680  Biso   1.000  O
  O17      1.0000 0.09880  0.84600  0.72500  Biso   1.000  O
  O18      1.0000 0.90120  0.15400  0.27500  Biso   1.000  O
  O19      1.0000 0.03720  0.00860  0.30600  Biso   1.000  O
  O20      1.0000 0.96280  0.99140  0.69400  Biso   1.000  O
  O21      1.0000 0.87700  0.78000  0.68200  Biso   1.000  O
  O22      1.0000 0.12300  0.22000  0.31800  Biso   1.000  O
  O23      1.0000 0.90020  0.66800  0.81860  Biso   1.000  O
  O24      1.0000 0.09980  0.33200  0.18140  Biso   1.000  O
  O25      1.0000 0.26390  0.69730  0.04720  Biso   1.000  O
  O26      1.0000 0.73610  0.30270  0.95280  Biso   1.000  O
  O27      1.0000 0.00420  0.59560  0.62120  Biso   1.000  O
  O28      1.0000 0.99580  0.40440  0.37880  Biso   1.000  O
  O29      1.0000 0.12700  0.72400  0.85790  Biso   1.000  O
  O30      1.0000 0.87300  0.27600  0.14210  Biso   1.000  O
  O31      1.0000 0.29160  0.11690  0.21160  Biso   1.000  O
  O32      1.0000 0.70840  0.88310  0.78840  Biso   1.000  O
  O33      1.0000 0.26790  0.10660  0.42590  Biso   1.000  O
  O34      1.0000 0.73210  0.89340  0.57410  Biso   1.000  O
  O35      1.0000 0.45120  0.11800  0.07390  Biso   1.000  O
  O36      1.0000 0.54880  0.88200  0.92610  Biso   1.000  O
  O37      1.0000 0.28900  0.91130  0.02180  Biso   1.000  O
  O38      1.0000 0.71100  0.08870  0.97820  Biso   1.000  O
  O39      1.0000 0.18890  0.42490  0.03770  Biso   1.000  O
  O40      1.0000 0.81110  0.57510  0.96230  Biso   1.000  O
  O41      1.0000 0.17970  0.01590  0.64950  Biso   1.000  O
  O42      1.0000 0.82030  0.98410  0.35050  Biso   1.000  O
  O43      1.0000 0.01100  0.06060  0.13770  Biso   1.000  O
  O44      1.0000 0.98900  0.93940  0.86230  Biso   1.000  O
  O45      1.0000 0.88660  0.01610  0.93600  Biso   1.000  O
  O46      1.0000 0.11340  0.98390  0.06400  Biso   1.000  O
