data_image0
_cell_length_a       15.035
_cell_length_b       20.369
_cell_length_c       11.504
_cell_angle_alpha    90
_cell_angle_beta     122.455
_cell_angle_gamma    90

_symmetry_space_group_name_H-M    "P 1"
_symmetry_int_tables_number       1

loop_
  _symmetry_equiv_pos_as_xyz
  'x, y, z'

loop_
  _atom_site_label
  _atom_site_occupancy
  _atom_site_fract_x
  _atom_site_fract_y
  _atom_site_fract_z
  _atom_site_thermal_displace_type
  _atom_site_B_iso_or_equiv
  _atom_site_type_symbol
  Cu1      1.0000 0.20960  0.66540  0.72150  Biso   1.000  Cu
  Cu2      1.0000 0.79040  0.66540  0.27850  Biso   1.000  Cu
  Cu3      1.0000 0.70960  0.16540  0.72150  Biso   1.000  Cu
  Cu4      1.0000 0.29040  0.16540  0.27850  Biso   1.000  Cu
  Cu5      1.0000 0.79040  0.33460  0.27850  Biso   1.000  Cu
  Cu6      1.0000 0.20960  0.33460  0.72150  Biso   1.000  Cu
  Cu7      1.0000 0.29040  0.83460  0.27850  Biso   1.000  Cu
  Cu8      1.0000 0.70960  0.83460  0.72150  Biso   1.000  Cu
  N1       1.0000 0.23500  0.71860  0.88400  Biso   1.000  N
  N2       1.0000 0.76500  0.71860  0.11600  Biso   1.000  N
  N3       1.0000 0.73500  0.21860  0.88400  Biso   1.000  N
  N4       1.0000 0.26500  0.21860  0.11600  Biso   1.000  N
  N5       1.0000 0.76500  0.28140  0.11600  Biso   1.000  N
  N6       1.0000 0.23500  0.28140  0.88400  Biso   1.000  N
  N7       1.0000 0.26500  0.78140  0.11600  Biso   1.000  N
  N8       1.0000 0.73500  0.78140  0.88400  Biso   1.000  N
  N9       1.0000 0.23400  0.71160  0.59500  Biso   1.000  N
  N10      1.0000 0.76600  0.71160  0.40500  Biso   1.000  N
  N11      1.0000 0.73400  0.21160  0.59500  Biso   1.000  N
  N12      1.0000 0.26600  0.21160  0.40500  Biso   1.000  N
  N13      1.0000 0.76600  0.28840  0.40500  Biso   1.000  N
  N14      1.0000 0.23400  0.28840  0.59500  Biso   1.000  N
  N15      1.0000 0.26600  0.78840  0.40500  Biso   1.000  N
  N16      1.0000 0.73400  0.78840  0.59500  Biso   1.000  N
  N17      1.0000 0.19100  0.56880  0.75300  Biso   1.000  N
  N18      1.0000 0.80900  0.56880  0.24700  Biso   1.000  N
  N19      1.0000 0.69100  0.06880  0.75300  Biso   1.000  N
  N20      1.0000 0.30900  0.06880  0.24700  Biso   1.000  N
  N21      1.0000 0.80900  0.43120  0.24700  Biso   1.000  N
  N22      1.0000 0.19100  0.43120  0.75300  Biso   1.000  N
  N23      1.0000 0.30900  0.93120  0.24700  Biso   1.000  N
  N24      1.0000 0.69100  0.93120  0.75300  Biso   1.000  N
  C1       1.0000 0.33100  0.72130  0.99400  Biso   1.000  C
  C2       1.0000 0.66900  0.72130  0.00600  Biso   1.000  C
  C3       1.0000 0.83100  0.22130  0.99400  Biso   1.000  C
  C4       1.0000 0.16900  0.22130  0.00600  Biso   1.000  C
  C5       1.0000 0.66900  0.27870  0.00600  Biso   1.000  C
  C6       1.0000 0.33100  0.27870  0.99400  Biso   1.000  C
  C7       1.0000 0.16900  0.77870  0.00600  Biso   1.000  C
  C8       1.0000 0.83100  0.77870  0.99400  Biso   1.000  C
  H1       1.0000 0.38800  0.70150  0.99700  Biso   1.000  H
  H2       1.0000 0.61200  0.70150  0.00300  Biso   1.000  H
  H3       1.0000 0.88800  0.20150  0.99700  Biso   1.000  H
  H4       1.0000 0.11200  0.20150  0.00300  Biso   1.000  H
  H5       1.0000 0.61200  0.29850  0.00300  Biso   1.000  H
  H6       1.0000 0.38800  0.29850  0.99700  Biso   1.000  H
  H7       1.0000 0.11200  0.79850  0.00300  Biso   1.000  H
  H8       1.0000 0.88800  0.79850  0.99700  Biso   1.000  H
  C9       1.0000 0.29900  0.76460  0.63500  Biso   1.000  C
  C10      1.0000 0.70100  0.76460  0.36500  Biso   1.000  C
  C11      1.0000 0.79900  0.26460  0.63500  Biso   1.000  C
  C12      1.0000 0.20100  0.26460  0.36500  Biso   1.000  C
  C13      1.0000 0.70100  0.23540  0.36500  Biso   1.000  C
  C14      1.0000 0.29900  0.23540  0.63500  Biso   1.000  C
  C15      1.0000 0.20100  0.73540  0.36500  Biso   1.000  C
  C16      1.0000 0.79900  0.73540  0.63500  Biso   1.000  C
  H9       1.0000 0.33520  0.77750  0.72680  Biso   1.000  H
  H10      1.0000 0.66480  0.77750  0.27320  Biso   1.000  H
  H11      1.0000 0.83520  0.27750  0.72680  Biso   1.000  H
  H12      1.0000 0.16480  0.27750  0.27320  Biso   1.000  H
  H13      1.0000 0.66480  0.22250  0.27320  Biso   1.000  H
  H14      1.0000 0.33520  0.22250  0.72680  Biso   1.000  H
  H15      1.0000 0.16480  0.72250  0.27320  Biso   1.000  H
  H16      1.0000 0.83520  0.72250  0.72680  Biso   1.000  H
  C17      1.0000 0.18600  0.69830  0.46200  Biso   1.000  C
  C18      1.0000 0.81400  0.69830  0.53800  Biso   1.000  C
  C19      1.0000 0.68600  0.19830  0.46200  Biso   1.000  C
  C20      1.0000 0.31400  0.19830  0.53800  Biso   1.000  C
  C21      1.0000 0.81400  0.30170  0.53800  Biso   1.000  C
  C22      1.0000 0.18600  0.30170  0.46200  Biso   1.000  C
  C23      1.0000 0.31400  0.80170  0.53800  Biso   1.000  C
  C24      1.0000 0.68600  0.80170  0.46200  Biso   1.000  C
  H17      1.0000 0.13980  0.66290  0.42750  Biso   1.000  H
  H18      1.0000 0.86020  0.66290  0.57250  Biso   1.000  H
  H19      1.0000 0.63980  0.16290  0.42750  Biso   1.000  H
  H20      1.0000 0.36020  0.16290  0.57250  Biso   1.000  H
  H21      1.0000 0.86020  0.33710  0.57250  Biso   1.000  H
  H22      1.0000 0.13980  0.33710  0.42750  Biso   1.000  H
  H23      1.0000 0.36020  0.83710  0.57250  Biso   1.000  H
  H24      1.0000 0.63980  0.83710  0.42750  Biso   1.000  H
  C25      1.0000 0.27100  0.53670  0.85200  Biso   1.000  C
  C26      1.0000 0.72900  0.53670  0.14800  Biso   1.000  C
  C27      1.0000 0.77100  0.03670  0.85200  Biso   1.000  C
  C28      1.0000 0.22900  0.03670  0.14800  Biso   1.000  C
  C29      1.0000 0.72900  0.46330  0.14800  Biso   1.000  C
  C30      1.0000 0.27100  0.46330  0.85200  Biso   1.000  C
  C31      1.0000 0.22900  0.96330  0.14800  Biso   1.000  C
  C32      1.0000 0.77100  0.96330  0.85200  Biso   1.000  C
  H25      1.0000 0.32840  0.55950  0.92180  Biso   1.000  H
  H26      1.0000 0.67160  0.55950  0.07820  Biso   1.000  H
  H27      1.0000 0.82840  0.05950  0.92180  Biso   1.000  H
  H28      1.0000 0.17160  0.05950  0.07820  Biso   1.000  H
  H29      1.0000 0.67160  0.44050  0.07820  Biso   1.000  H
  H30      1.0000 0.32840  0.44050  0.92180  Biso   1.000  H
  H31      1.0000 0.17160  0.94050  0.07820  Biso   1.000  H
  H32      1.0000 0.82840  0.94050  0.92180  Biso   1.000  H
  C33      1.0000 0.15600  0.74350  0.88900  Biso   1.000  C
  C34      1.0000 0.84400  0.74350  0.11100  Biso   1.000  C
  C35      1.0000 0.65600  0.24350  0.88900  Biso   1.000  C
  C36      1.0000 0.34400  0.24350  0.11100  Biso   1.000  C
  C37      1.0000 0.84400  0.25650  0.11100  Biso   1.000  C
  C38      1.0000 0.15600  0.25650  0.88900  Biso   1.000  C
  C39      1.0000 0.34400  0.75650  0.11100  Biso   1.000  C
  C40      1.0000 0.65600  0.75650  0.88900  Biso   1.000  C
  H33      1.0000 0.08840  0.73800  0.81240  Biso   1.000  H
  H34      1.0000 0.91160  0.73800  0.18760  Biso   1.000  H
  H35      1.0000 0.58840  0.23800  0.81240  Biso   1.000  H
  H36      1.0000 0.41160  0.23800  0.18760  Biso   1.000  H
  H37      1.0000 0.91160  0.26200  0.18760  Biso   1.000  H
  H38      1.0000 0.08840  0.26200  0.81240  Biso   1.000  H
  H39      1.0000 0.41160  0.76200  0.18760  Biso   1.000  H
  H40      1.0000 0.58840  0.76200  0.81240  Biso   1.000  H
  C41      1.0000 0.10600  0.53680  0.66500  Biso   1.000  C
  C42      1.0000 0.89400  0.53680  0.33500  Biso   1.000  C
  C43      1.0000 0.60600  0.03680  0.66500  Biso   1.000  C
  C44      1.0000 0.39400  0.03680  0.33500  Biso   1.000  C
  C45      1.0000 0.89400  0.46320  0.33500  Biso   1.000  C
  C46      1.0000 0.10600  0.46320  0.66500  Biso   1.000  C
  C47      1.0000 0.39400  0.96320  0.33500  Biso   1.000  C
  C48      1.0000 0.60600  0.96320  0.66500  Biso   1.000  C
  H41      1.0000 0.04570  0.55960  0.60110  Biso   1.000  H
  H42      1.0000 0.95430  0.55960  0.39890  Biso   1.000  H
  H43      1.0000 0.54570  0.05960  0.60110  Biso   1.000  H
  H44      1.0000 0.45430  0.05960  0.39890  Biso   1.000  H
  H45      1.0000 0.95430  0.44040  0.39890  Biso   1.000  H
  H46      1.0000 0.04570  0.44040  0.60110  Biso   1.000  H
  H47      1.0000 0.45430  0.94040  0.39890  Biso   1.000  H
  H48      1.0000 0.54570  0.94040  0.60110  Biso   1.000  H
  O1       1.0000 0.49900  0.87800  0.18700  Biso   1.000  O
  O2       1.0000 0.50100  0.87800  0.81300  Biso   1.000  O
  O3       1.0000 0.99900  0.37800  0.18700  Biso   1.000  O
  O4       1.0000 0.00100  0.37800  0.81300  Biso   1.000  O
  O5       1.0000 0.50100  0.12200  0.81300  Biso   1.000  O
  O6       1.0000 0.49900  0.12200  0.18700  Biso   1.000  O
  O7       1.0000 0.00100  0.62200  0.81300  Biso   1.000  O
  O8       1.0000 0.99900  0.62200  0.18700  Biso   1.000  O
  W1       1.0000 0.00000  0.82686  0.50000  Biso   1.000  W
  W2       1.0000 0.50000  0.32686  0.50000  Biso   1.000  W
  W3       1.0000 0.00000  0.17314  0.50000  Biso   1.000  W
  W4       1.0000 0.50000  0.67314  0.50000  Biso   1.000  W
  W5       1.0000 0.25333  0.00000  0.55230  Biso   1.000  W
  W6       1.0000 0.74667  0.00000  0.44770  Biso   1.000  W
  W7       1.0000 0.75333  0.50000  0.55230  Biso   1.000  W
  W8       1.0000 0.24667  0.50000  0.44770  Biso   1.000  W
  W9       1.0000 0.04671  0.08666  0.27178  Biso   1.000  W
  W10      1.0000 0.95329  0.08666  0.72822  Biso   1.000  W
  W11      1.0000 0.54671  0.58666  0.27178  Biso   1.000  W
  W12      1.0000 0.45329  0.58666  0.72822  Biso   1.000  W
  W13      1.0000 0.95329  0.91334  0.72822  Biso   1.000  W
  W14      1.0000 0.04671  0.91334  0.27178  Biso   1.000  W
  W15      1.0000 0.45329  0.41334  0.72822  Biso   1.000  W
  W16      1.0000 0.54671  0.41334  0.27178  Biso   1.000  W
  W17      1.0000 0.20731  0.91380  0.78039  Biso   1.000  W
  W18      1.0000 0.79269  0.91380  0.21961  Biso   1.000  W
  W19      1.0000 0.70731  0.41380  0.78039  Biso   1.000  W
  W20      1.0000 0.29269  0.41380  0.21961  Biso   1.000  W
  W21      1.0000 0.79269  0.08620  0.21961  Biso   1.000  W
  W22      1.0000 0.20731  0.08620  0.78039  Biso   1.000  W
  W23      1.0000 0.29269  0.58620  0.21961  Biso   1.000  W
  W24      1.0000 0.70731  0.58620  0.78039  Biso   1.000  W
  Si1      1.0000 0.00000  0.00000  0.50000  Biso   1.000  Si
  Si2      1.0000 0.50000  0.50000  0.50000  Biso   1.000  Si
  O9       1.0000 0.05900  0.00000  0.41800  Biso   1.000  O
  O10      1.0000 0.94100  0.00000  0.58200  Biso   1.000  O
  O11      1.0000 0.55900  0.50000  0.41800  Biso   1.000  O
  O12      1.0000 0.44100  0.50000  0.58200  Biso   1.000  O
  O13      1.0000 0.12900  0.00000  0.61700  Biso   1.000  O
  O14      1.0000 0.87100  0.00000  0.38300  Biso   1.000  O
  O15      1.0000 0.62900  0.50000  0.61700  Biso   1.000  O
  O16      1.0000 0.37100  0.50000  0.38300  Biso   1.000  O
  O17      1.0000 0.37100  0.00000  0.57600  Biso   1.000  O
  O18      1.0000 0.62900  0.00000  0.42400  Biso   1.000  O
  O19      1.0000 0.87100  0.50000  0.57600  Biso   1.000  O
  O20      1.0000 0.12900  0.50000  0.42400  Biso   1.000  O
  O21      1.0000 0.06890  0.12860  0.16500  Biso   1.000  O
  O22      1.0000 0.93110  0.12860  0.83500  Biso   1.000  O
  O23      1.0000 0.56890  0.62860  0.16500  Biso   1.000  O
  O24      1.0000 0.43110  0.62860  0.83500  Biso   1.000  O
  O25      1.0000 0.93110  0.87140  0.83500  Biso   1.000  O
  O26      1.0000 0.06890  0.87140  0.16500  Biso   1.000  O
  O27      1.0000 0.43110  0.37140  0.83500  Biso   1.000  O
  O28      1.0000 0.56890  0.37140  0.16500  Biso   1.000  O
  O29      1.0000 0.89500  0.09140  0.17300  Biso   1.000  O
  O30      1.0000 0.10500  0.09140  0.82700  Biso   1.000  O
  O31      1.0000 0.39500  0.59140  0.17300  Biso   1.000  O
  O32      1.0000 0.60500  0.59140  0.82700  Biso   1.000  O
  O33      1.0000 0.10500  0.90860  0.82700  Biso   1.000  O
  O34      1.0000 0.89500  0.90860  0.17300  Biso   1.000  O
  O35      1.0000 0.60500  0.40860  0.82700  Biso   1.000  O
  O36      1.0000 0.39500  0.40860  0.17300  Biso   1.000  O
  O37      1.0000 0.01100  0.74300  0.52500  Biso   1.000  O
  O38      1.0000 0.98900  0.74300  0.47500  Biso   1.000  O
  O39      1.0000 0.51100  0.24300  0.52500  Biso   1.000  O
  O40      1.0000 0.48900  0.24300  0.47500  Biso   1.000  O
  O41      1.0000 0.98900  0.25700  0.47500  Biso   1.000  O
  O42      1.0000 0.01100  0.25700  0.52500  Biso   1.000  O
  O43      1.0000 0.48900  0.75700  0.47500  Biso   1.000  O
  O44      1.0000 0.51100  0.75700  0.52500  Biso   1.000  O
  O45      1.0000 0.26500  0.93500  0.67700  Biso   1.000  O
  O46      1.0000 0.73500  0.93500  0.32300  Biso   1.000  O
  O47      1.0000 0.76500  0.43500  0.67700  Biso   1.000  O
  O48      1.0000 0.23500  0.43500  0.32300  Biso   1.000  O
  O49      1.0000 0.73500  0.06500  0.32300  Biso   1.000  O
  O50      1.0000 0.26500  0.06500  0.67700  Biso   1.000  O
  O51      1.0000 0.23500  0.56500  0.32300  Biso   1.000  O
  O52      1.0000 0.76500  0.56500  0.67700  Biso   1.000  O
  O53      1.0000 0.13600  0.84550  0.65100  Biso   1.000  O
  O54      1.0000 0.86400  0.84550  0.34900  Biso   1.000  O
  O55      1.0000 0.63600  0.34550  0.65100  Biso   1.000  O
  O56      1.0000 0.36400  0.34550  0.34900  Biso   1.000  O
  O57      1.0000 0.86400  0.15450  0.34900  Biso   1.000  O
  O58      1.0000 0.13600  0.15450  0.65100  Biso   1.000  O
  O59      1.0000 0.36400  0.65450  0.34900  Biso   1.000  O
  O60      1.0000 0.63600  0.65450  0.65100  Biso   1.000  O
  O61      1.0000 0.02700  0.00000  0.19300  Biso   1.000  O
  O62      1.0000 0.97300  0.00000  0.80700  Biso   1.000  O
  O63      1.0000 0.52700  0.50000  0.19300  Biso   1.000  O
  O64      1.0000 0.47300  0.50000  0.80700  Biso   1.000  O
  O65      1.0000 0.30230  0.87190  0.90800  Biso   1.000  O
  O66      1.0000 0.69770  0.87190  0.09200  Biso   1.000  O
  O67      1.0000 0.80230  0.37190  0.90800  Biso   1.000  O
  O68      1.0000 0.19770  0.37190  0.09200  Biso   1.000  O
  O69      1.0000 0.69770  0.12810  0.09200  Biso   1.000  O
  O70      1.0000 0.30230  0.12810  0.90800  Biso   1.000  O
  O71      1.0000 0.19770  0.62810  0.09200  Biso   1.000  O
  O72      1.0000 0.80230  0.62810  0.90800  Biso   1.000  O
  O73      1.0000 0.05200  0.84620  0.38900  Biso   1.000  O
  O74      1.0000 0.94800  0.84620  0.61100  Biso   1.000  O
  O75      1.0000 0.55200  0.34620  0.38900  Biso   1.000  O
  O76      1.0000 0.44800  0.34620  0.61100  Biso   1.000  O
  O77      1.0000 0.94800  0.15380  0.61100  Biso   1.000  O
  O78      1.0000 0.05200  0.15380  0.38900  Biso   1.000  O
  O79      1.0000 0.44800  0.65380  0.61100  Biso   1.000  O
  O80      1.0000 0.55200  0.65380  0.38900  Biso   1.000  O
  O81      1.0000 0.02900  0.93490  0.59400  Biso   1.000  O
  O82      1.0000 0.97100  0.93490  0.40600  Biso   1.000  O
  O83      1.0000 0.52900  0.43490  0.59400  Biso   1.000  O
  O84      1.0000 0.47100  0.43490  0.40600  Biso   1.000  O
  O85      1.0000 0.97100  0.06510  0.40600  Biso   1.000  O
  O86      1.0000 0.02900  0.06510  0.59400  Biso   1.000  O
  O87      1.0000 0.47100  0.56510  0.40600  Biso   1.000  O
  O88      1.0000 0.52900  0.56510  0.59400  Biso   1.000  O
  O89      1.0000 0.23600  0.00000  0.85100  Biso   1.000  O
  O90      1.0000 0.76400  0.00000  0.14900  Biso   1.000  O
  O91      1.0000 0.73600  0.50000  0.85100  Biso   1.000  O
  O92      1.0000 0.26400  0.50000  0.14900  Biso   1.000  O
  O93      1.0000 0.18500  0.06220  0.41400  Biso   1.000  O
  O94      1.0000 0.81500  0.06220  0.58600  Biso   1.000  O
  O95      1.0000 0.68500  0.56220  0.41400  Biso   1.000  O
  O96      1.0000 0.31500  0.56220  0.58600  Biso   1.000  O
  O97      1.0000 0.81500  0.93780  0.58600  Biso   1.000  O
  O98      1.0000 0.18500  0.93780  0.41400  Biso   1.000  O
  O99      1.0000 0.31500  0.43780  0.58600  Biso   1.000  O
  O100     1.0000 0.68500  0.43780  0.41400  Biso   1.000  O
