data_image0
_cell_length_a       11.28
_cell_length_b       14.974
_cell_length_c       15.557
_cell_angle_alpha    105.665
_cell_angle_beta     102.262
_cell_angle_gamma    106.328

_symmetry_space_group_name_H-M    "P 1"
_symmetry_int_tables_number       1

loop_
  _symmetry_equiv_pos_as_xyz
  'x, y, z'

loop_
  _atom_site_label
  _atom_site_occupancy
  _atom_site_fract_x
  _atom_site_fract_y
  _atom_site_fract_z
  _atom_site_thermal_displace_type
  _atom_site_B_iso_or_equiv
  _atom_site_type_symbol
  W1       1.0000 0.82341  0.61569  0.65276  Biso   1.000  W
  W2       1.0000 0.17659  0.38431  0.34724  Biso   1.000  W
  W3       1.0000 0.57601  0.69607  0.71181  Biso   1.000  W
  W4       1.0000 0.42399  0.30393  0.28819  Biso   1.000  W
  W5       1.0000 0.49512  0.73265  0.49611  Biso   1.000  W
  W6       1.0000 0.50488  0.26735  0.50389  Biso   1.000  W
  W7       1.0000 0.74818  0.41952  0.44032  Biso   1.000  W
  W8       1.0000 0.25182  0.58048  0.55968  Biso   1.000  W
  W9       1.0000 0.74296  0.65237  0.43613  Biso   1.000  W
  W10      1.0000 0.25704  0.34763  0.56387  Biso   1.000  W
  W11      1.0000 0.58051  0.46362  0.71663  Biso   1.000  W
  W12      1.0000 0.41949  0.53638  0.28337  Biso   1.000  W
  Si1      1.0000 0.50000  0.50000  0.50000  Biso   1.000  Si
  O1       1.0000 0.46990  0.58950  0.54720  Biso   1.000  O
  O2       1.0000 0.53010  0.41050  0.45280  Biso   1.000  O
  O3       1.0000 0.47140  0.42590  0.55050  Biso   1.000  O
  O4       1.0000 0.52860  0.57410  0.44950  Biso   1.000  O
  O5       1.0000 0.41610  0.44980  0.39800  Biso   1.000  O
  O6       1.0000 0.58390  0.55020  0.60200  Biso   1.000  O
  O7       1.0000 0.64270  0.53350  0.50530  Biso   1.000  O
  O8       1.0000 0.35730  0.46650  0.49470  Biso   1.000  O
  O9       1.0000 0.74540  0.70370  0.70770  Biso   1.000  O
  O10      1.0000 0.25460  0.29630  0.29230  Biso   1.000  O
  O11      1.0000 0.74730  0.52950  0.71160  Biso   1.000  O
  O12      1.0000 0.25270  0.47050  0.28840  Biso   1.000  O
  O13      1.0000 0.60300  0.59230  0.32120  Biso   1.000  O
  O14      1.0000 0.39700  0.40770  0.67880  Biso   1.000  O
  O15      1.0000 0.57510  0.76600  0.62490  Biso   1.000  O
  O16      1.0000 0.42490  0.23400  0.37510  Biso   1.000  O
  O17      1.0000 0.56720  0.58750  0.75760  Biso   1.000  O
  O18      1.0000 0.43280  0.41250  0.24240  Biso   1.000  O
  O19      1.0000 0.39210  0.65210  0.67370  Biso   1.000  O
  O20      1.0000 0.60790  0.34790  0.32630  Biso   1.000  O
  O21      1.0000 0.65860  0.74310  0.47960  Biso   1.000  O
  O22      1.0000 0.34140  0.25690  0.52040  Biso   1.000  O
  O23      1.0000 0.58110  0.34510  0.63420  Biso   1.000  O
  O24      1.0000 0.41890  0.65490  0.36580  Biso   1.000  O
  O25      1.0000 0.83190  0.67800  0.56110  Biso   1.000  O
  O26      1.0000 0.16810  0.32200  0.43890  Biso   1.000  O
  O27      1.0000 0.83470  0.50560  0.56740  Biso   1.000  O
  O28      1.0000 0.16530  0.49440  0.43260  Biso   1.000  O
  O29      1.0000 0.97810  0.67130  0.72660  Biso   1.000  O
  O30      1.0000 0.02190  0.32870  0.27340  Biso   1.000  O
  O31      1.0000 0.77250  0.53470  0.40420  Biso   1.000  O
  O32      1.0000 0.22750  0.46530  0.59580  Biso   1.000  O
  O33      1.0000 0.86210  0.37600  0.41250  Biso   1.000  O
  O34      1.0000 0.13790  0.62400  0.58750  Biso   1.000  O
  O35      1.0000 0.62060  0.44670  0.81880  Biso   1.000  O
  O36      1.0000 0.37940  0.55330  0.18120  Biso   1.000  O
  O37      1.0000 0.49000  0.84350  0.49090  Biso   1.000  O
  O38      1.0000 0.51000  0.15650  0.50910  Biso   1.000  O
  O39      1.0000 0.61240  0.79150  0.81340  Biso   1.000  O
  O40      1.0000 0.38760  0.20850  0.18660  Biso   1.000  O
  O41      1.0000 0.85600  0.72660  0.40570  Biso   1.000  O
  O42      1.0000 0.14400  0.27340  0.59430  Biso   1.000  O
  O43      1.0000 0.66500  0.32110  0.48840  Biso   1.000  O
  O44      1.0000 0.33500  0.67890  0.51160  Biso   1.000  O
  Cu1      1.0000 0.71280  0.13152  0.59844  Biso   1.000  Cu
  Cu2      1.0000 0.28720  0.86848  0.40156  Biso   1.000  Cu
  Cu3      1.0000 0.13070  0.90407  0.03723  Biso   1.000  Cu
  Cu4      1.0000 0.86930  0.09593  0.96277  Biso   1.000  Cu
  N1       1.0000 0.44690  0.67430  0.97230  Biso   1.000  N
  N2       1.0000 0.55310  0.32570  0.02770  Biso   1.000  N
  C1       1.0000 0.41000  0.58940  0.99050  Biso   1.000  C
  C2       1.0000 0.59000  0.41060  0.00950  Biso   1.000  C
  H1       1.0000 0.46020  0.58680  0.04480  Biso   1.000  H
  H2       1.0000 0.53980  0.41320  0.95520  Biso   1.000  H
  C3       1.0000 0.30320  0.50690  0.93450  Biso   1.000  C
  C4       1.0000 0.69680  0.49310  0.06550  Biso   1.000  C
  H3       1.0000 0.28430  0.44980  0.94990  Biso   1.000  H
  H4       1.0000 0.71570  0.55020  0.05010  Biso   1.000  H
  C5       1.0000 0.22150  0.50950  0.85250  Biso   1.000  C
  C6       1.0000 0.77850  0.49050  0.14750  Biso   1.000  C
  C7       1.0000 0.26250  0.59860  0.83640  Biso   1.000  C
  C8       1.0000 0.73750  0.40140  0.16360  Biso   1.000  C
  H5       1.0000 0.21320  0.60590  0.78450  Biso   1.000  H
  H6       1.0000 0.78680  0.39410  0.21550  Biso   1.000  H
  C9       1.0000 0.37100  0.67350  0.89360  Biso   1.000  C
  C10      1.0000 0.62900  0.32650  0.10640  Biso   1.000  C
  H7       1.0000 0.39540  0.72980  0.87730  Biso   1.000  H
  H8       1.0000 0.60460  0.27020  0.12270  Biso   1.000  H
  C11      1.0000 0.10160  0.42560  0.79470  Biso   1.000  C
  C12      1.0000 0.89840  0.57440  0.20530  Biso   1.000  C
  C13      1.0000 0.07900  0.32980  0.79700  Biso   1.000  C
  C14      1.0000 0.92100  0.67020  0.20300  Biso   1.000  C
  H9       1.0000 0.14090  0.31740  0.83720  Biso   1.000  H
  H10      1.0000 0.85910  0.68260  0.16280  Biso   1.000  H
  C15      1.0000 0.96560  0.25450  0.73980  Biso   1.000  C
  C16      1.0000 0.03440  0.74550  0.26020  Biso   1.000  C
  H11      1.0000 0.95510  0.19090  0.74050  Biso   1.000  H
  H12      1.0000 0.04490  0.80910  0.25950  Biso   1.000  H
  C17      1.0000 0.88860  0.35700  0.67930  Biso   1.000  C
  C18      1.0000 0.11140  0.64300  0.32070  Biso   1.000  C
  H13      1.0000 0.82540  0.36710  0.63780  Biso   1.000  H
  H14      1.0000 0.17460  0.63290  0.36220  Biso   1.000  H
  C19      1.0000 0.99890  0.43530  0.73500  Biso   1.000  C
  C20      1.0000 0.00110  0.56470  0.26500  Biso   1.000  C
  H15      1.0000 0.00610  0.49810  0.73300  Biso   1.000  H
  H16      1.0000 0.99390  0.50190  0.26700  Biso   1.000  H
  N3       1.0000 0.86870  0.26590  0.68290  Biso   1.000  N
  N4       1.0000 0.13130  0.73410  0.31710  Biso   1.000  N
  N5       1.0000 0.61070  0.08970  0.67850  Biso   1.000  N
  N6       1.0000 0.38930  0.91030  0.32150  Biso   1.000  N
  C21      1.0000 0.59520  0.00270  0.69100  Biso   1.000  C
  C22      1.0000 0.40480  0.99730  0.30900  Biso   1.000  C
  H17      1.0000 0.63360  0.96120  0.66140  Biso   1.000  H
  H18      1.0000 0.36640  0.03880  0.33860  Biso   1.000  H
  C23      1.0000 0.52400  0.97320  0.74650  Biso   1.000  C
  C24      1.0000 0.47600  0.02680  0.25350  Biso   1.000  C
  H19      1.0000 0.51160  0.91100  0.75180  Biso   1.000  H
  H20      1.0000 0.48840  0.08900  0.24820  Biso   1.000  H
  C25      1.0000 0.47220  0.03350  0.79320  Biso   1.000  C
  C26      1.0000 0.52780  0.96650  0.20680  Biso   1.000  C
  C27      1.0000 0.48670  0.12470  0.78060  Biso   1.000  C
  C28      1.0000 0.51330  0.87530  0.21940  Biso   1.000  C
  H21      1.0000 0.45220  0.16840  0.81150  Biso   1.000  H
  H22      1.0000 0.54780  0.83160  0.18850  Biso   1.000  H
  C29      1.0000 0.55500  0.14720  0.71990  Biso   1.000  C
  C30      1.0000 0.44500  0.85280  0.28010  Biso   1.000  C
  H23      1.0000 0.56160  0.20570  0.70800  Biso   1.000  H
  H24      1.0000 0.43840  0.79430  0.29200  Biso   1.000  H
  C31      1.0000 0.39200  0.00170  0.85230  Biso   1.000  C
  C32      1.0000 0.60800  0.99830  0.14770  Biso   1.000  C
  C33      1.0000 0.31380  0.90320  0.82870  Biso   1.000  C
  C34      1.0000 0.68620  0.09680  0.17130  Biso   1.000  C
  H25      1.0000 0.31110  0.85480  0.77550  Biso   1.000  H
  H26      1.0000 0.68890  0.14520  0.22450  Biso   1.000  H
  C35      1.0000 0.24160  0.87810  0.88370  Biso   1.000  C
  C36      1.0000 0.75840  0.12190  0.11630  Biso   1.000  C
  H27      1.0000 0.19090  0.81140  0.86660  Biso   1.000  H
  H28      1.0000 0.80910  0.18860  0.13340  Biso   1.000  H
  C37      1.0000 0.31570  0.03560  0.98500  Biso   1.000  C
  C38      1.0000 0.68430  0.96440  0.01500  Biso   1.000  C
  H29      1.0000 0.31780  0.08160  0.03970  Biso   1.000  H
  H30      1.0000 0.68220  0.91840  0.96030  Biso   1.000  H
  C39      1.0000 0.39380  0.06860  0.93340  Biso   1.000  C
  C40      1.0000 0.60620  0.93140  0.06660  Biso   1.000  C
  H31      1.0000 0.44660  0.13520  0.95350  Biso   1.000  H
  H32      1.0000 0.55340  0.86480  0.04650  Biso   1.000  H
  N7       1.0000 0.23830  0.94170  0.95980  Biso   1.000  N
  N8       1.0000 0.76170  0.05830  0.04020  Biso   1.000  N
  N9       1.0000 0.08530  0.75090  0.01120  Biso   1.000  N
  N10      1.0000 0.91470  0.24910  0.98880  Biso   1.000  N
  C41      1.0000 0.16000  0.72510  0.06700  Biso   1.000  C
  C42      1.0000 0.84000  0.27490  0.93300  Biso   1.000  C
  H33      1.0000 0.23620  0.77390  0.11050  Biso   1.000  H
  H34      1.0000 0.76380  0.22610  0.88950  Biso   1.000  H
  C43      1.0000 0.13130  0.62700  0.06550  Biso   1.000  C
  C44      1.0000 0.86870  0.37300  0.93450  Biso   1.000  C
  H35      1.0000 0.18850  0.61260  0.10740  Biso   1.000  H
  H36      1.0000 0.81150  0.38740  0.89260  Biso   1.000  H
  C45      1.0000 0.01860  0.55140  0.00190  Biso   1.000  C
  C46      1.0000 0.98140  0.44860  0.99810  Biso   1.000  C
  C47      1.0000 0.94500  0.57940  0.94140  Biso   1.000  C
  C48      1.0000 0.05500  0.42060  0.05860  Biso   1.000  C
  H37      1.0000 0.87130  0.53170  0.89410  Biso   1.000  H
  H38      1.0000 0.12870  0.46830  0.10590  Biso   1.000  H
  C49      1.0000 0.97930  0.68270  0.94930  Biso   1.000  C
  C50      1.0000 0.02070  0.31730  0.05070  Biso   1.000  C
  H39      1.0000 0.92440  0.70070  0.90930  Biso   1.000  H
  H40      1.0000 0.07560  0.29930  0.09070  Biso   1.000  H
  N11      1.0000 0.05410  0.95270  0.13220  Biso   1.000  N
  N12      1.0000 0.94590  0.04730  0.86780  Biso   1.000  N
  C51      1.0000 0.11400  0.04130  0.20500  Biso   1.000  C
  C52      1.0000 0.88600  0.95870  0.79500  Biso   1.000  C
  H41      1.0000 0.19220  0.08450  0.20540  Biso   1.000  H
  H42      1.0000 0.80780  0.91550  0.79460  Biso   1.000  H
  C53      1.0000 0.06720  0.07030  0.27750  Biso   1.000  C
  C54      1.0000 0.93280  0.92970  0.72250  Biso   1.000  C
  H43      1.0000 0.11240  0.13170  0.32540  Biso   1.000  H
  H44      1.0000 0.88760  0.86830  0.67460  Biso   1.000  H
  C55      1.0000 0.94900  0.00650  0.27950  Biso   1.000  C
  C56      1.0000 0.05100  0.99350  0.72050  Biso   1.000  C
  C57      1.0000 0.88560  0.91530  0.20290  Biso   1.000  C
  C58      1.0000 0.11440  0.08470  0.79710  Biso   1.000  C
  H45      1.0000 0.80630  0.87110  0.19920  Biso   1.000  H
  H46      1.0000 0.19370  0.12890  0.80080  Biso   1.000  H
  C59      1.0000 0.94320  0.89240  0.13320  Biso   1.000  C
  C60      1.0000 0.05680  0.10760  0.86680  Biso   1.000  C
  H47      1.0000 0.90150  0.83130  0.08450  Biso   1.000  H
  H48      1.0000 0.09850  0.16870  0.91550  Biso   1.000  H
  C61      1.0000 0.89210  0.03450  0.35410  Biso   1.000  C
  C62      1.0000 0.10790  0.96550  0.64590  Biso   1.000  C
  C63      1.0000 0.82900  0.96540  0.38990  Biso   1.000  C
  C64      1.0000 0.17100  0.03460  0.61010  Biso   1.000  C
  H49      1.0000 0.82340  0.89980  0.36700  Biso   1.000  H
  H50      1.0000 0.17660  0.10020  0.63300  Biso   1.000  H
  C65      1.0000 0.77490  0.99380  0.45790  Biso   1.000  C
  C66      1.0000 0.22510  0.00620  0.54210  Biso   1.000  C
  H51      1.0000 0.73780  0.94750  0.48320  Biso   1.000  H
  H52      1.0000 0.26220  0.05250  0.51680  Biso   1.000  H
  C67      1.0000 0.83250  0.15260  0.45700  Biso   1.000  C
  C68      1.0000 0.16750  0.84740  0.54300  Biso   1.000  C
  H53      1.0000 0.83560  0.21760  0.48020  Biso   1.000  H
  H54      1.0000 0.16440  0.78240  0.51980  Biso   1.000  H
  C69      1.0000 0.88890  0.12710  0.38940  Biso   1.000  C
  C70      1.0000 0.11110  0.87290  0.61060  Biso   1.000  C
  H55      1.0000 0.92690  0.17530  0.36640  Biso   1.000  H
  H56      1.0000 0.07310  0.82470  0.63360  Biso   1.000  H
  N13      1.0000 0.77320  0.08570  0.49000  Biso   1.000  N
  N14      1.0000 0.22680  0.91430  0.51000  Biso   1.000  N
  O45      1.0000 0.34200  0.28600  0.79500  Biso   1.000  O
  O46      1.0000 0.65800  0.71400  0.20500  Biso   1.000  O
  O47      1.0000 0.28870  0.30130  0.01640  Biso   1.000  O
  O48      1.0000 0.71130  0.69870  0.98360  Biso   1.000  O
