data_image0
_cell_length_a       13.0496
_cell_length_b       7.662
_cell_length_c       11.2523
_cell_angle_alpha    90
_cell_angle_beta     90
_cell_angle_gamma    90

_symmetry_space_group_name_H-M    "P 1"
_symmetry_int_tables_number       1

loop_
  _symmetry_equiv_pos_as_xyz
  'x, y, z'

loop_
  _atom_site_label
  _atom_site_occupancy
  _atom_site_fract_x
  _atom_site_fract_y
  _atom_site_fract_z
  _atom_site_thermal_displace_type
  _atom_site_B_iso_or_equiv
  _atom_site_type_symbol
  Cu1      1.0000 0.60563  0.19862  0.50000  Biso   1.000  Cu
  Cu2      1.0000 0.39437  0.80138  0.50000  Biso   1.000  Cu
  Cu3      1.0000 0.89437  0.69862  0.00000  Biso   1.000  Cu
  Cu4      1.0000 0.10563  0.30138  0.00000  Biso   1.000  Cu
  Cu5      1.0000 0.83458  0.45772  0.50000  Biso   1.000  Cu
  Cu6      1.0000 0.16542  0.54228  0.50000  Biso   1.000  Cu
  Cu7      1.0000 0.66542  0.95772  0.00000  Biso   1.000  Cu
  Cu8      1.0000 0.33458  0.04228  0.00000  Biso   1.000  Cu
  Cu9      1.0000 0.50000  0.50000  0.31993  Biso   1.000  Cu
  Cu10     1.0000 0.00000  0.00000  0.18007  Biso   1.000  Cu
  Cu11     1.0000 0.50000  0.50000  0.68007  Biso   1.000  Cu
  Cu12     1.0000 0.00000  0.00000  0.81993  Biso   1.000  Cu
  Cu13     1.0000 0.50904  0.31815  0.00000  Biso   1.000  Cu
  Cu14     1.0000 0.49096  0.68185  0.00000  Biso   1.000  Cu
  Cu15     1.0000 0.99096  0.81815  0.50000  Biso   1.000  Cu
  Cu16     1.0000 0.00904  0.18185  0.50000  Biso   1.000  Cu
  Cl1      1.0000 0.63237  0.52160  0.50000  Biso   1.000  Cl
  Cl2      1.0000 0.36763  0.47840  0.50000  Biso   1.000  Cl
  Cl3      1.0000 0.86763  0.02160  0.00000  Biso   1.000  Cl
  Cl4      1.0000 0.13237  0.97840  0.00000  Biso   1.000  Cl
  Cl5      1.0000 0.83890  0.14560  0.50000  Biso   1.000  Cl
  Cl6      1.0000 0.16110  0.85440  0.50000  Biso   1.000  Cl
  Cl7      1.0000 0.66110  0.64560  0.00000  Biso   1.000  Cl
  Cl8      1.0000 0.33890  0.35440  0.00000  Biso   1.000  Cl
  N1       1.0000 0.55430  0.27870  0.73930  Biso   1.000  N
  N2       1.0000 0.44570  0.72130  0.73930  Biso   1.000  N
  N3       1.0000 0.94570  0.77870  0.76070  Biso   1.000  N
  N4       1.0000 0.05430  0.22130  0.76070  Biso   1.000  N
  N5       1.0000 0.44570  0.72130  0.26070  Biso   1.000  N
  N6       1.0000 0.55430  0.27870  0.26070  Biso   1.000  N
  N7       1.0000 0.05430  0.22130  0.23930  Biso   1.000  N
  N8       1.0000 0.94570  0.77870  0.23930  Biso   1.000  N
  N9       1.0000 0.59660  0.15790  0.66620  Biso   1.000  N
  N10      1.0000 0.40340  0.84210  0.66620  Biso   1.000  N
  N11      1.0000 0.90340  0.65790  0.83380  Biso   1.000  N
  N12      1.0000 0.09660  0.34210  0.83380  Biso   1.000  N
  N13      1.0000 0.40340  0.84210  0.33380  Biso   1.000  N
  N14      1.0000 0.59660  0.15790  0.33380  Biso   1.000  N
  N15      1.0000 0.09660  0.34210  0.16620  Biso   1.000  N
  N16      1.0000 0.90340  0.65790  0.16620  Biso   1.000  N
  N17      1.0000 0.56870  0.22760  0.84980  Biso   1.000  N
  N18      1.0000 0.43130  0.77240  0.84980  Biso   1.000  N
  N19      1.0000 0.93130  0.72760  0.65020  Biso   1.000  N
  N20      1.0000 0.06870  0.27240  0.65020  Biso   1.000  N
  N21      1.0000 0.43130  0.77240  0.15020  Biso   1.000  N
  N22      1.0000 0.56870  0.22760  0.15020  Biso   1.000  N
  N23      1.0000 0.06870  0.27240  0.34980  Biso   1.000  N
  N24      1.0000 0.93130  0.72760  0.34980  Biso   1.000  N
  N25      1.0000 0.61970  0.07560  0.85000  Biso   1.000  N
  N26      1.0000 0.38030  0.92440  0.85000  Biso   1.000  N
  N27      1.0000 0.88030  0.57560  0.65000  Biso   1.000  N
  N28      1.0000 0.11970  0.42440  0.65000  Biso   1.000  N
  N29      1.0000 0.38030  0.92440  0.15000  Biso   1.000  N
  N30      1.0000 0.61970  0.07560  0.15000  Biso   1.000  N
  N31      1.0000 0.11970  0.42440  0.35000  Biso   1.000  N
  N32      1.0000 0.88030  0.57560  0.35000  Biso   1.000  N
  C1       1.0000 0.63570  0.03430  0.73680  Biso   1.000  C
  C2       1.0000 0.36430  0.96570  0.73680  Biso   1.000  C
  C3       1.0000 0.86430  0.53430  0.76320  Biso   1.000  C
  C4       1.0000 0.13570  0.46570  0.76320  Biso   1.000  C
  C5       1.0000 0.36430  0.96570  0.26320  Biso   1.000  C
  C6       1.0000 0.63570  0.03430  0.26320  Biso   1.000  C
  C7       1.0000 0.13570  0.46570  0.23680  Biso   1.000  C
  C8       1.0000 0.86430  0.53430  0.23680  Biso   1.000  C
  C9       1.0000 0.69010  0.87700  0.69490  Biso   1.000  C
  C10      1.0000 0.30990  0.12300  0.69490  Biso   1.000  C
  C11      1.0000 0.80990  0.37700  0.80510  Biso   1.000  C
  C12      1.0000 0.19010  0.62300  0.80510  Biso   1.000  C
  C13      1.0000 0.30990  0.12300  0.30510  Biso   1.000  C
  C14      1.0000 0.69010  0.87700  0.30510  Biso   1.000  C
  C15      1.0000 0.19010  0.62300  0.19490  Biso   1.000  C
  C16      1.0000 0.80990  0.37700  0.19490  Biso   1.000  C
  H1       1.0000 0.71080  0.80810  0.76200  Biso   1.000  H
  H2       1.0000 0.28920  0.19190  0.76200  Biso   1.000  H
  H3       1.0000 0.78920  0.30810  0.73800  Biso   1.000  H
  H4       1.0000 0.21080  0.69190  0.73800  Biso   1.000  H
  H5       1.0000 0.28920  0.19190  0.23800  Biso   1.000  H
  H6       1.0000 0.71080  0.80810  0.23800  Biso   1.000  H
  H7       1.0000 0.21080  0.69190  0.26200  Biso   1.000  H
  H8       1.0000 0.78920  0.30810  0.26200  Biso   1.000  H
  H9       1.0000 0.64530  0.80960  0.64510  Biso   1.000  H
  H10      1.0000 0.35470  0.19040  0.64510  Biso   1.000  H
  H11      1.0000 0.85470  0.30960  0.85490  Biso   1.000  H
  H12      1.0000 0.14530  0.69040  0.85490  Biso   1.000  H
  H13      1.0000 0.35470  0.19040  0.35490  Biso   1.000  H
  H14      1.0000 0.64530  0.80960  0.35490  Biso   1.000  H
  H15      1.0000 0.14530  0.69040  0.14510  Biso   1.000  H
  H16      1.0000 0.85470  0.30960  0.14510  Biso   1.000  H
  H17      1.0000 0.74950  0.91110  0.65030  Biso   1.000  H
  H18      1.0000 0.25050  0.08890  0.65030  Biso   1.000  H
  H19      1.0000 0.75050  0.41110  0.84970  Biso   1.000  H
  H20      1.0000 0.24950  0.58890  0.84970  Biso   1.000  H
  H21      1.0000 0.25050  0.08890  0.34970  Biso   1.000  H
  H22      1.0000 0.74950  0.91110  0.34970  Biso   1.000  H
  H23      1.0000 0.24950  0.58890  0.15030  Biso   1.000  H
  H24      1.0000 0.75050  0.41110  0.15030  Biso   1.000  H
