data_image0
_cell_length_a       3.5874
_cell_length_b       8.674
_cell_length_c       9.791
_cell_angle_alpha    90
_cell_angle_beta     97.989
_cell_angle_gamma    90

_symmetry_space_group_name_H-M    "P 1"
_symmetry_int_tables_number       1

loop_
  _symmetry_equiv_pos_as_xyz
  'x, y, z'

loop_
  _atom_site_label
  _atom_site_occupancy
  _atom_site_fract_x
  _atom_site_fract_y
  _atom_site_fract_z
  _atom_site_thermal_displace_type
  _atom_site_B_iso_or_equiv
  _atom_site_type_symbol
  Cu1      1.0000 0.95090  0.41885  0.11146  Biso   1.000  Cu
  Cu2      1.0000 0.04910  0.91885  0.88854  Biso   1.000  Cu
  Cu3      1.0000 0.04910  0.58115  0.88854  Biso   1.000  Cu
  Cu4      1.0000 0.95090  0.08115  0.11146  Biso   1.000  Cu
  Cl1      1.0000 0.50150  0.25000  0.24835  Biso   1.000  Cl
  Cl2      1.0000 0.49850  0.75000  0.75165  Biso   1.000  Cl
  C1       1.0000 0.97620  0.75000  0.14550  Biso   1.000  C
  C2       1.0000 0.02380  0.25000  0.85450  Biso   1.000  C
  C3       1.0000 0.84130  0.61540  0.33460  Biso   1.000  C
  C4       1.0000 0.15870  0.11540  0.66540  Biso   1.000  C
  C5       1.0000 0.15870  0.38460  0.66540  Biso   1.000  C
  C6       1.0000 0.84130  0.88460  0.33460  Biso   1.000  C
  H1       1.0000 0.80630  0.52230  0.37800  Biso   1.000  H
  H2       1.0000 0.19370  0.02230  0.62200  Biso   1.000  H
  H3       1.0000 0.19370  0.47770  0.62200  Biso   1.000  H
  H4       1.0000 0.80630  0.97770  0.37800  Biso   1.000  H
  N1       1.0000 0.92410  0.61260  0.20520  Biso   1.000  N
  N2       1.0000 0.07590  0.11260  0.79480  Biso   1.000  N
  N3       1.0000 0.07590  0.38740  0.79480  Biso   1.000  N
  N4       1.0000 0.92410  0.88740  0.20520  Biso   1.000  N
  C7       1.0000 0.80600  0.75000  0.40600  Biso   1.000  C
  C8       1.0000 0.19400  0.25000  0.59400  Biso   1.000  C
  H5       1.0000 0.76070  0.75000  0.49720  Biso   1.000  H
  H6       1.0000 0.23930  0.25000  0.50280  Biso   1.000  H
  O1       1.0000 0.08210  0.75000  0.02480  Biso   1.000  O
  O2       1.0000 0.91790  0.25000  0.97520  Biso   1.000  O
