data_image0
_cell_length_a       14.0222
_cell_length_b       14.2408
_cell_length_c       24.6917
_cell_angle_alpha    78.144
_cell_angle_beta     87.007
_cell_angle_gamma    82.187

_symmetry_space_group_name_H-M    "P 1"
_symmetry_int_tables_number       1

loop_
  _symmetry_equiv_pos_as_xyz
  'x, y, z'

loop_
  _atom_site_label
  _atom_site_occupancy
  _atom_site_fract_x
  _atom_site_fract_y
  _atom_site_fract_z
  _atom_site_thermal_displace_type
  _atom_site_B_iso_or_equiv
  _atom_site_type_symbol
  Se1      1.0000 0.65220  0.80968  0.73540  Biso   1.000  Se
  Se2      1.0000 0.34780  0.19032  0.26460  Biso   1.000  Se
  Se3      1.0000 0.77688  0.48922  0.74670  Biso   1.000  Se
  Se4      1.0000 0.22312  0.51078  0.25330  Biso   1.000  Se
  Se5      1.0000 0.52494  0.58196  0.82002  Biso   1.000  Se
  Se6      1.0000 0.47506  0.41804  0.17998  Biso   1.000  Se
  Se7      1.0000 0.58917  0.64464  0.62938  Biso   1.000  Se
  Se8      1.0000 0.41083  0.35536  0.37062  Biso   1.000  Se
  Cu1      1.0000 0.70102  0.56122  0.82540  Biso   1.000  Cu
  Cu2      1.0000 0.29898  0.43878  0.17460  Biso   1.000  Cu
  Cu3      1.0000 0.71079  0.73454  0.65440  Biso   1.000  Cu
  Cu4      1.0000 0.28921  0.26546  0.34560  Biso   1.000  Cu
  Cu5      1.0000 0.49996  0.74400  0.75660  Biso   1.000  Cu
  Cu6      1.0000 0.50004  0.25600  0.24340  Biso   1.000  Cu
  Cu7      1.0000 0.63436  0.48867  0.69479  Biso   1.000  Cu
  Cu8      1.0000 0.36564  0.51133  0.30521  Biso   1.000  Cu
  P1       1.0000 0.75319  0.70667  0.79355  Biso   1.000  P
  P2       1.0000 0.24681  0.29333  0.20645  Biso   1.000  P
  P3       1.0000 0.82600  0.62856  0.70242  Biso   1.000  P
  P4       1.0000 0.17400  0.37144  0.29758  Biso   1.000  P
  P5       1.0000 0.50574  0.50547  0.75140  Biso   1.000  P
  P6       1.0000 0.49426  0.49453  0.24860  Biso   1.000  P
  P7       1.0000 0.46331  0.68689  0.68300  Biso   1.000  P
  P8       1.0000 0.53669  0.31311  0.31700  Biso   1.000  P
  P9       1.0000 0.75585  0.46492  0.90437  Biso   1.000  P
  P10      1.0000 0.24415  0.53508  0.09563  Biso   1.000  P
  P11      1.0000 0.75111  0.86296  0.59260  Biso   1.000  P
  P12      1.0000 0.24889  0.13704  0.40740  Biso   1.000  P
  P13      1.0000 0.39378  0.83540  0.80157  Biso   1.000  P
  P14      1.0000 0.60622  0.16460  0.19843  Biso   1.000  P
  P15      1.0000 0.64877  0.36913  0.64769  Biso   1.000  P
  P16      1.0000 0.35123  0.63087  0.35231  Biso   1.000  P
  O1       1.0000 0.84820  0.68140  0.75348  Biso   1.000  O
  O2       1.0000 0.15180  0.31860  0.24652  Biso   1.000  O
  O3       1.0000 0.42510  0.58100  0.71176  Biso   1.000  O
  O4       1.0000 0.57490  0.41900  0.28824  Biso   1.000  O
  C1       1.0000 0.79850  0.79240  0.82880  Biso   1.000  C
  C2       1.0000 0.20150  0.20760  0.17120  Biso   1.000  C
  C3       1.0000 0.88980  0.81980  0.81630  Biso   1.000  C
  C4       1.0000 0.11020  0.18020  0.18370  Biso   1.000  C
  H1       1.0000 0.92960  0.79400  0.78910  Biso   1.000  H
  H2       1.0000 0.07040  0.20600  0.21090  Biso   1.000  H
  C5       1.0000 0.92280  0.88480  0.84360  Biso   1.000  C
  C6       1.0000 0.07720  0.11520  0.15640  Biso   1.000  C
  H3       1.0000 0.98520  0.90350  0.83510  Biso   1.000  H
  H4       1.0000 0.01480  0.09650  0.16490  Biso   1.000  H
  C7       1.0000 0.86450  0.92240  0.88340  Biso   1.000  C
  C8       1.0000 0.13550  0.07760  0.11660  Biso   1.000  C
  H5       1.0000 0.88710  0.96690  0.90200  Biso   1.000  H
  H6       1.0000 0.11290  0.03310  0.09800  Biso   1.000  H
  C9       1.0000 0.77320  0.89500  0.89580  Biso   1.000  C
  C10      1.0000 0.22680  0.10500  0.10420  Biso   1.000  C
  H7       1.0000 0.73340  0.92080  0.92300  Biso   1.000  H
  H8       1.0000 0.26660  0.07920  0.07700  Biso   1.000  H
  C11      1.0000 0.74020  0.83000  0.86850  Biso   1.000  C
  C12      1.0000 0.25980  0.17000  0.13150  Biso   1.000  C
  H9       1.0000 0.67780  0.81130  0.87710  Biso   1.000  H
  H10      1.0000 0.32220  0.18870  0.12290  Biso   1.000  H
  C13      1.0000 0.82120  0.77690  0.83010  Biso   1.000  C
  C14      1.0000 0.17880  0.22310  0.16990  Biso   1.000  C
  C15      1.0000 0.85770  0.85980  0.80180  Biso   1.000  C
  C16      1.0000 0.14230  0.14020  0.19820  Biso   1.000  C
  H11      1.0000 0.85310  0.87790  0.76270  Biso   1.000  H
  H12      1.0000 0.14690  0.12210  0.23730  Biso   1.000  H
  C17      1.0000 0.90090  0.91620  0.83060  Biso   1.000  C
  C18      1.0000 0.09910  0.08380  0.16940  Biso   1.000  C
  H13      1.0000 0.92580  0.97290  0.81120  Biso   1.000  H
  H14      1.0000 0.07420  0.02710  0.18880  Biso   1.000  H
  C19      1.0000 0.90760  0.88970  0.88780  Biso   1.000  C
  C20      1.0000 0.09240  0.11030  0.11220  Biso   1.000  C
  H15      1.0000 0.93710  0.92820  0.90760  Biso   1.000  H
  H16      1.0000 0.06290  0.07180  0.09240  Biso   1.000  H
  C21      1.0000 0.87120  0.80680  0.91620  Biso   1.000  C
  C22      1.0000 0.12880  0.19320  0.08380  Biso   1.000  C
  H17      1.0000 0.87580  0.78870  0.95530  Biso   1.000  H
  H18      1.0000 0.12420  0.21130  0.04470  Biso   1.000  H
  C23      1.0000 0.82800  0.75040  0.88730  Biso   1.000  C
  C24      1.0000 0.17200  0.24960  0.11270  Biso   1.000  C
  H19      1.0000 0.80310  0.69370  0.90670  Biso   1.000  H
  H20      1.0000 0.19690  0.30630  0.09330  Biso   1.000  H
  C25      1.0000 0.95050  0.59250  0.68140  Biso   1.000  C
  C26      1.0000 0.04950  0.40750  0.31860  Biso   1.000  C
  C27      1.0000 0.96490  0.52980  0.64460  Biso   1.000  C
  C28      1.0000 0.03510  0.47020  0.35540  Biso   1.000  C
  H21      1.0000 0.91150  0.50590  0.63230  Biso   1.000  H
  H22      1.0000 0.08850  0.49410  0.36770  Biso   1.000  H
  C29      1.0000 0.05750  0.50180  0.62570  Biso   1.000  C
  C30      1.0000 0.94250  0.49820  0.37430  Biso   1.000  C
  H23      1.0000 0.06740  0.45890  0.60060  Biso   1.000  H
  H24      1.0000 0.93260  0.54110  0.39940  Biso   1.000  H
  C31      1.0000 0.13560  0.53670  0.64370  Biso   1.000  C
  C32      1.0000 0.86440  0.46330  0.35630  Biso   1.000  C
  H25      1.0000 0.19890  0.51770  0.63080  Biso   1.000  H
  H26      1.0000 0.80110  0.48230  0.36920  Biso   1.000  H
  C33      1.0000 0.12110  0.59950  0.68050  Biso   1.000  C
  C34      1.0000 0.87890  0.40050  0.31950  Biso   1.000  C
  H27      1.0000 0.17450  0.62340  0.69280  Biso   1.000  H
  H28      1.0000 0.82550  0.37660  0.30720  Biso   1.000  H
  C35      1.0000 0.02860  0.62740  0.69940  Biso   1.000  C
  C36      1.0000 0.97140  0.37260  0.30060  Biso   1.000  C
  H29      1.0000 0.01870  0.67040  0.72450  Biso   1.000  H
  H30      1.0000 0.98130  0.32960  0.27550  Biso   1.000  H
  C37      1.0000 0.42870  0.41310  0.78060  Biso   1.000  C
  C38      1.0000 0.57130  0.58690  0.21940  Biso   1.000  C
  C39      1.0000 0.32890  0.43180  0.78370  Biso   1.000  C
  C40      1.0000 0.67110  0.56820  0.21630  Biso   1.000  C
  H31      1.0000 0.29770  0.49580  0.77180  Biso   1.000  H
  H32      1.0000 0.70230  0.50420  0.22820  Biso   1.000  H
  C41      1.0000 0.27470  0.35680  0.80410  Biso   1.000  C
  C42      1.0000 0.72530  0.64320  0.19590  Biso   1.000  C
  H33      1.0000 0.20640  0.36960  0.80620  Biso   1.000  H
  H34      1.0000 0.79360  0.63040  0.19380  Biso   1.000  H
  C43      1.0000 0.32020  0.26320  0.82150  Biso   1.000  C
  C44      1.0000 0.67980  0.73680  0.17850  Biso   1.000  C
  H35      1.0000 0.28320  0.21200  0.83550  Biso   1.000  H
  H36      1.0000 0.71680  0.78800  0.16450  Biso   1.000  H
  C45      1.0000 0.42010  0.24460  0.81850  Biso   1.000  C
  C46      1.0000 0.57990  0.75540  0.18150  Biso   1.000  C
  H37      1.0000 0.45120  0.18060  0.83040  Biso   1.000  H
  H38      1.0000 0.54880  0.81940  0.16960  Biso   1.000  H
  C47      1.0000 0.47430  0.31950  0.79800  Biso   1.000  C
  C48      1.0000 0.52570  0.68050  0.20200  Biso   1.000  C
  H39      1.0000 0.54260  0.30670  0.79590  Biso   1.000  H
  H40      1.0000 0.45740  0.69330  0.20410  Biso   1.000  H
  C49      1.0000 0.36490  0.73160  0.63516  Biso   1.000  C
  C50      1.0000 0.63510  0.26840  0.36484  Biso   1.000  C
  C51      1.0000 0.31160  0.82020  0.63818  Biso   1.000  C
  C52      1.0000 0.68840  0.17980  0.36182  Biso   1.000  C
  H41      1.0000 0.32860  0.85680  0.66350  Biso   1.000  H
  H42      1.0000 0.67140  0.14320  0.33650  Biso   1.000  H
  C53      1.0000 0.23340  0.85530  0.60415  Biso   1.000  C
  C54      1.0000 0.76660  0.14470  0.39585  Biso   1.000  C
  H43      1.0000 0.19700  0.91590  0.60620  Biso   1.000  H
  H44      1.0000 0.80300  0.08410  0.39380  Biso   1.000  H
  C55      1.0000 0.20850  0.80180  0.56711  Biso   1.000  C
  C56      1.0000 0.79150  0.19820  0.43289  Biso   1.000  C
  H45      1.0000 0.15510  0.82580  0.54390  Biso   1.000  H
  H46      1.0000 0.84490  0.17420  0.45610  Biso   1.000  H
  C57      1.0000 0.26180  0.71320  0.56409  Biso   1.000  C
  C58      1.0000 0.73820  0.28680  0.43591  Biso   1.000  C
  H47      1.0000 0.24470  0.67660  0.53880  Biso   1.000  H
  H48      1.0000 0.75530  0.32340  0.46120  Biso   1.000  H
  C59      1.0000 0.33990  0.67810  0.59812  Biso   1.000  C
  C60      1.0000 0.66010  0.32190  0.40188  Biso   1.000  C
  H49      1.0000 0.37630  0.61760  0.59610  Biso   1.000  H
  H50      1.0000 0.62370  0.38240  0.40390  Biso   1.000  H
  C61      1.0000 0.71290  0.51180  0.96800  Biso   1.000  C
  C62      1.0000 0.28710  0.48820  0.03200  Biso   1.000  C
  C63      1.0000 0.72290  0.60750  0.96830  Biso   1.000  C
  C64      1.0000 0.27710  0.39250  0.03170  Biso   1.000  C
  H51      1.0000 0.75130  0.64590  0.93720  Biso   1.000  H
  H52      1.0000 0.24870  0.35410  0.06280  Biso   1.000  H
  C65      1.0000 0.69130  0.64690  0.01410  Biso   1.000  C
  C66      1.0000 0.30870  0.35310  0.98590  Biso   1.000  C
  H53      1.0000 0.69810  0.71230  0.01430  Biso   1.000  H
  H54      1.0000 0.30190  0.28770  0.98570  Biso   1.000  H
  C67      1.0000 0.64970  0.59070  0.05960  Biso   1.000  C
  C68      1.0000 0.35030  0.40930  0.94040  Biso   1.000  C
  H55      1.0000 0.62810  0.61770  0.09090  Biso   1.000  H
  H56      1.0000 0.37190  0.38230  0.90910  Biso   1.000  H
  C69      1.0000 0.63970  0.49500  0.05930  Biso   1.000  C
  C70      1.0000 0.36030  0.50500  0.94070  Biso   1.000  C
  H57      1.0000 0.61130  0.45660  0.09040  Biso   1.000  H
  H58      1.0000 0.38870  0.54340  0.90960  Biso   1.000  H
  C71      1.0000 0.67140  0.45560  0.01350  Biso   1.000  C
  C72      1.0000 0.32860  0.54440  0.98650  Biso   1.000  C
  H59      1.0000 0.66460  0.39020  0.01330  Biso   1.000  H
  H60      1.0000 0.33540  0.60980  0.98670  Biso   1.000  H
  C73      1.0000 0.70540  0.49090  0.96890  Biso   1.000  C
  C74      1.0000 0.29460  0.50910  0.03110  Biso   1.000  C
  C75      1.0000 0.67000  0.58740  0.96730  Biso   1.000  C
  C76      1.0000 0.33000  0.41260  0.03270  Biso   1.000  C
  H61      1.0000 0.67050  0.63310  0.93330  Biso   1.000  H
  H62      1.0000 0.32950  0.36690  0.06670  Biso   1.000  H
  C77      1.0000 0.63400  0.61720  0.01530  Biso   1.000  C
  C78      1.0000 0.36600  0.38280  0.98470  Biso   1.000  C
  H63      1.0000 0.60980  0.68320  0.01420  Biso   1.000  H
  H64      1.0000 0.39020  0.31680  0.98580  Biso   1.000  H
  C79      1.0000 0.63320  0.55050  0.06510  Biso   1.000  C
  C80      1.0000 0.36680  0.44950  0.93490  Biso   1.000  C
  H65      1.0000 0.60860  0.57080  0.09790  Biso   1.000  H
  H66      1.0000 0.39140  0.42920  0.90210  Biso   1.000  H
  C81      1.0000 0.66860  0.45390  0.06670  Biso   1.000  C
  C82      1.0000 0.33140  0.54610  0.93330  Biso   1.000  C
  H67      1.0000 0.66810  0.40830  0.10060  Biso   1.000  H
  H68      1.0000 0.33190  0.59170  0.89940  Biso   1.000  H
  C83      1.0000 0.70470  0.42410  0.01860  Biso   1.000  C
  C84      1.0000 0.29530  0.57590  0.98140  Biso   1.000  C
  H69      1.0000 0.72890  0.35810  0.01970  Biso   1.000  H
  H70      1.0000 0.27110  0.64190  0.98030  Biso   1.000  H
  C85      1.0000 0.73230  0.34000  0.91530  Biso   1.000  C
  C86      1.0000 0.26770  0.66000  0.08470  Biso   1.000  C
  C87      1.0000 0.80290  0.26190  0.92620  Biso   1.000  C
  C88      1.0000 0.19710  0.73810  0.07380  Biso   1.000  C
  H71      1.0000 0.86780  0.27280  0.92860  Biso   1.000  H
  H72      1.0000 0.13220  0.72720  0.07140  Biso   1.000  H
  C89      1.0000 0.78130  0.16650  0.93410  Biso   1.000  C
  C90      1.0000 0.21870  0.83350  0.06590  Biso   1.000  C
  H73      1.0000 0.83140  0.11370  0.94060  Biso   1.000  H
  H74      1.0000 0.16860  0.88630  0.05940  Biso   1.000  H
  C91      1.0000 0.68670  0.14960  0.93230  Biso   1.000  C
  C92      1.0000 0.31330  0.85040  0.06770  Biso   1.000  C
  H75      1.0000 0.67070  0.08540  0.94080  Biso   1.000  H
  H76      1.0000 0.32930  0.91460  0.05920  Biso   1.000  H
  C93      1.0000 0.61730  0.22570  0.91830  Biso   1.000  C
  C94      1.0000 0.38270  0.77430  0.08170  Biso   1.000  C
  H77      1.0000 0.55340  0.21430  0.91360  Biso   1.000  H
  H78      1.0000 0.44660  0.78570  0.08640  Biso   1.000  H
  C95      1.0000 0.63870  0.32100  0.91060  Biso   1.000  C
  C96      1.0000 0.36130  0.67900  0.08940  Biso   1.000  C
  H79      1.0000 0.58850  0.37330  0.90210  Biso   1.000  H
  H80      1.0000 0.41150  0.62670  0.09790  Biso   1.000  H
  C97      1.0000 0.88760  0.45400  0.91188  Biso   1.000  C
  C98      1.0000 0.11240  0.54600  0.08812  Biso   1.000  C
  C99      1.0000 0.93170  0.41890  0.96245  Biso   1.000  C
  C100     1.0000 0.06830  0.58110  0.03755  Biso   1.000  C
  H81      1.0000 0.89370  0.40180  0.99510  Biso   1.000  H
  H82      1.0000 0.10630  0.59820  0.00490  Biso   1.000  H
  C101     1.0000 0.03140  0.40870  0.96529  Biso   1.000  C
  C102     1.0000 0.96860  0.59130  0.03471  Biso   1.000  C
  H83      1.0000 0.06160  0.38470  0.99990  Biso   1.000  H
  H84      1.0000 0.93840  0.61530  0.00010  Biso   1.000  H
  C103     1.0000 0.08710  0.43370  0.91750  Biso   1.000  C
  C104     1.0000 0.91290  0.56630  0.08250  Biso   1.000  C
  H85      1.0000 0.15520  0.42680  0.91950  Biso   1.000  H
  H86      1.0000 0.84480  0.57320  0.08050  Biso   1.000  H
  C105     1.0000 0.04300  0.46890  0.86696  Biso   1.000  C
  C106     1.0000 0.95700  0.53110  0.13304  Biso   1.000  C
  H87      1.0000 0.08100  0.48600  0.83430  Biso   1.000  H
  H88      1.0000 0.91900  0.51400  0.16570  Biso   1.000  H
  C107     1.0000 0.94320  0.47900  0.86413  Biso   1.000  C
  C108     1.0000 0.05680  0.52100  0.13587  Biso   1.000  C
  H89      1.0000 0.91310  0.50310  0.82960  Biso   1.000  H
  H90      1.0000 0.08690  0.49690  0.17040  Biso   1.000  H
  C109     1.0000 0.81620  0.85460  0.52630  Biso   1.000  C
  C110     1.0000 0.18380  0.14540  0.47370  Biso   1.000  C
  C111     1.0000 0.77840  0.79580  0.49660  Biso   1.000  C
  C112     1.0000 0.22160  0.20420  0.50340  Biso   1.000  C
  H91      1.0000 0.73090  0.75670  0.51330  Biso   1.000  H
  H92      1.0000 0.26910  0.24330  0.48670  Biso   1.000  H
  C113     1.0000 0.81000  0.79440  0.44250  Biso   1.000  C
  C114     1.0000 0.19000  0.20560  0.55750  Biso   1.000  C
  H93      1.0000 0.78410  0.75420  0.42220  Biso   1.000  H
  H94      1.0000 0.21590  0.24580  0.57780  Biso   1.000  H
  C115     1.0000 0.87950  0.85170  0.41800  Biso   1.000  C
  C116     1.0000 0.12050  0.14830  0.58200  Biso   1.000  C
  H95      1.0000 0.90110  0.85070  0.38100  Biso   1.000  H
  H96      1.0000 0.09890  0.14930  0.61900  Biso   1.000  H
  C117     1.0000 0.91730  0.91040  0.44760  Biso   1.000  C
  C118     1.0000 0.08270  0.08960  0.55240  Biso   1.000  C
  H97      1.0000 0.96480  0.94960  0.43090  Biso   1.000  H
  H98      1.0000 0.03520  0.05040  0.56910  Biso   1.000  H
  C119     1.0000 0.88570  0.91190  0.50180  Biso   1.000  C
  C120     1.0000 0.11430  0.08810  0.49820  Biso   1.000  C
  H99      1.0000 0.91160  0.95210  0.52210  Biso   1.000  H
  H100     1.0000 0.08840  0.04790  0.47790  Biso   1.000  H
  C121     1.0000 0.77570  0.83480  0.52190  Biso   1.000  C
  C122     1.0000 0.22430  0.16520  0.47810  Biso   1.000  C
  C123     1.0000 0.75040  0.89710  0.47210  Biso   1.000  C
  C124     1.0000 0.24960  0.10290  0.52790  Biso   1.000  C
  H101     1.0000 0.71220  0.95750  0.47230  Biso   1.000  H
  H102     1.0000 0.28780  0.04250  0.52770  Biso   1.000  H
  C125     1.0000 0.78100  0.87100  0.42220  Biso   1.000  C
  C126     1.0000 0.21900  0.12900  0.57780  Biso   1.000  C
  H103     1.0000 0.76370  0.91360  0.38820  Biso   1.000  H
  H104     1.0000 0.23630  0.08640  0.61180  Biso   1.000  H
  C127     1.0000 0.83680  0.78260  0.42200  Biso   1.000  C
  C128     1.0000 0.16320  0.21740  0.57800  Biso   1.000  C
  H105     1.0000 0.85770  0.76480  0.38780  Biso   1.000  H
  H106     1.0000 0.14230  0.23520  0.61220  Biso   1.000  H
  C129     1.0000 0.86210  0.72040  0.47170  Biso   1.000  C
  C130     1.0000 0.13790  0.27960  0.52830  Biso   1.000  C
  H107     1.0000 0.90030  0.66000  0.47150  Biso   1.000  H
  H108     1.0000 0.09970  0.34000  0.52850  Biso   1.000  H
  C131     1.0000 0.83160  0.74650  0.52160  Biso   1.000  C
  C132     1.0000 0.16840  0.25350  0.47840  Biso   1.000  C
  H109     1.0000 0.84890  0.70390  0.55560  Biso   1.000  H
  H110     1.0000 0.15110  0.29610  0.44440  Biso   1.000  H
  C133     1.0000 0.85250  0.91110  0.62730  Biso   1.000  C
  C134     1.0000 0.14750  0.08890  0.37270  Biso   1.000  C
  C135     1.0000 0.83430  0.99940  0.64400  Biso   1.000  C
  C136     1.0000 0.16570  0.00060  0.35600  Biso   1.000  C
  H111     1.0000 0.77470  0.03930  0.63560  Biso   1.000  H
  H112     1.0000 0.22530  0.96070  0.36440  Biso   1.000  H
  C137     1.0000 0.90310  0.02940  0.67280  Biso   1.000  C
  C138     1.0000 0.09690  0.97060  0.32720  Biso   1.000  C
  H113     1.0000 0.89070  0.08970  0.68430  Biso   1.000  H
  H114     1.0000 0.10930  0.91030  0.31570  Biso   1.000  H
  C139     1.0000 0.99020  0.97100  0.68500  Biso   1.000  C
  C140     1.0000 0.00980  0.02900  0.31500  Biso   1.000  C
  H115     1.0000 0.03730  0.99150  0.70480  Biso   1.000  H
  H116     1.0000 0.96270  0.00850  0.29520  Biso   1.000  H
  C141     1.0000 0.00840  0.88270  0.66830  Biso   1.000  C
  C142     1.0000 0.99160  0.11730  0.33170  Biso   1.000  C
  H117     1.0000 0.06790  0.84280  0.67670  Biso   1.000  H
  H118     1.0000 0.93210  0.15720  0.32330  Biso   1.000  H
  C143     1.0000 0.93960  0.85270  0.63950  Biso   1.000  C
  C144     1.0000 0.06040  0.14730  0.36050  Biso   1.000  C
  H119     1.0000 0.95200  0.79240  0.62800  Biso   1.000  H
  H120     1.0000 0.04800  0.20760  0.37200  Biso   1.000  H
  C145     1.0000 0.83980  0.92680  0.60550  Biso   1.000  C
  C146     1.0000 0.16020  0.07320  0.39450  Biso   1.000  C
  C147     1.0000 0.85020  0.93400  0.66010  Biso   1.000  C
  C148     1.0000 0.14980  0.06600  0.33990  Biso   1.000  C
  H121     1.0000 0.80770  0.90610  0.68820  Biso   1.000  H
  H122     1.0000 0.19230  0.09390  0.31180  Biso   1.000  H
  C149     1.0000 0.92280  0.98190  0.67360  Biso   1.000  C
  C150     1.0000 0.07720  0.01810  0.32640  Biso   1.000  C
  H123     1.0000 0.92990  0.98680  0.71090  Biso   1.000  H
  H124     1.0000 0.07010  0.01320  0.28910  Biso   1.000  H
  C151     1.0000 0.98500  0.02270  0.63250  Biso   1.000  C
  C152     1.0000 0.01500  0.97730  0.36750  Biso   1.000  C
  H125     1.0000 0.03470  0.05540  0.64170  Biso   1.000  H
  H126     1.0000 0.96530  0.94460  0.35830  Biso   1.000  H
  C153     1.0000 0.97470  0.01550  0.57790  Biso   1.000  C
  C154     1.0000 0.02530  0.98450  0.42210  Biso   1.000  C
  H127     1.0000 0.01720  0.04330  0.54980  Biso   1.000  H
  H128     1.0000 0.98280  0.95670  0.45020  Biso   1.000  H
  C155     1.0000 0.90200  0.96750  0.56440  Biso   1.000  C
  C156     1.0000 0.09800  0.03250  0.43560  Biso   1.000  C
  H129     1.0000 0.89490  0.96260  0.52700  Biso   1.000  H
  H130     1.0000 0.10510  0.03740  0.47300  Biso   1.000  H
  C157     1.0000 0.65140  0.96120  0.57524  Biso   1.000  C
  C158     1.0000 0.34860  0.03880  0.42476  Biso   1.000  C
  C159     1.0000 0.55860  0.94180  0.59172  Biso   1.000  C
  C160     1.0000 0.44140  0.05820  0.40828  Biso   1.000  C
  H131     1.0000 0.54840  0.88000  0.61270  Biso   1.000  H
  H132     1.0000 0.45160  0.12000  0.38730  Biso   1.000  H
  C161     1.0000 0.48070  0.01280  0.57750  Biso   1.000  C
  C162     1.0000 0.51930  0.98720  0.42250  Biso   1.000  C
  H133     1.0000 0.41730  0.99950  0.58880  Biso   1.000  H
  H134     1.0000 0.58270  0.00050  0.41120  Biso   1.000  H
  C163     1.0000 0.49560  0.10320  0.54680  Biso   1.000  C
  C164     1.0000 0.50440  0.89680  0.45320  Biso   1.000  C
  H135     1.0000 0.44240  0.15170  0.53710  Biso   1.000  H
  H136     1.0000 0.55760  0.84830  0.46290  Biso   1.000  H
  C165     1.0000 0.58840  0.12270  0.53035  Biso   1.000  C
  C166     1.0000 0.41160  0.87730  0.46965  Biso   1.000  C
  H137     1.0000 0.59860  0.18450  0.50940  Biso   1.000  H
  H138     1.0000 0.40140  0.81550  0.49060  Biso   1.000  H
  C167     1.0000 0.66630  0.05170  0.54456  Biso   1.000  C
  C168     1.0000 0.33370  0.94830  0.45544  Biso   1.000  C
  H139     1.0000 0.72980  0.06500  0.53330  Biso   1.000  H
  H140     1.0000 0.27020  0.93500  0.46670  Biso   1.000  H
  C169     1.0000 0.43930  0.86160  0.86060  Biso   1.000  C
  C170     1.0000 0.56070  0.13840  0.13940  Biso   1.000  C
  C171     1.0000 0.46120  0.95320  0.86260  Biso   1.000  C
  C172     1.0000 0.53880  0.04680  0.13740  Biso   1.000  C
  H141     1.0000 0.44810  0.00510  0.83180  Biso   1.000  H
  H142     1.0000 0.55190  0.99490  0.16820  Biso   1.000  H
  C173     1.0000 0.50200  0.96880  0.90950  Biso   1.000  C
  C174     1.0000 0.49800  0.03120  0.09050  Biso   1.000  C
  H143     1.0000 0.51690  0.03140  0.91090  Biso   1.000  H
  H144     1.0000 0.48310  0.96860  0.08910  Biso   1.000  H
  C175     1.0000 0.52110  0.89290  0.95450  Biso   1.000  C
  C176     1.0000 0.47890  0.10710  0.04550  Biso   1.000  C
  H145     1.0000 0.54900  0.90360  0.98660  Biso   1.000  H
  H146     1.0000 0.45100  0.09640  0.01340  Biso   1.000  H
  C177     1.0000 0.49930  0.80130  0.95250  Biso   1.000  C
  C178     1.0000 0.50070  0.19870  0.04750  Biso   1.000  C
  H147     1.0000 0.51230  0.74940  0.98320  Biso   1.000  H
  H148     1.0000 0.48770  0.25060  0.01680  Biso   1.000  H
  C179     1.0000 0.45840  0.78570  0.90550  Biso   1.000  C
  C180     1.0000 0.54160  0.21430  0.09450  Biso   1.000  C
  H149     1.0000 0.44350  0.72310  0.90420  Biso   1.000  H
  H150     1.0000 0.55650  0.27690  0.09580  Biso   1.000  H
  C181     1.0000 0.45830  0.87780  0.86170  Biso   1.000  C
  C182     1.0000 0.54170  0.12220  0.13830  Biso   1.000  C
  C183     1.0000 0.41750  0.95960  0.88100  Biso   1.000  C
  C184     1.0000 0.58250  0.04040  0.11900  Biso   1.000  C
  H151     1.0000 0.35970  0.99560  0.86560  Biso   1.000  H
  H152     1.0000 0.64030  0.00440  0.13440  Biso   1.000  H
  C185     1.0000 0.46130  0.98880  0.92300  Biso   1.000  C
  C186     1.0000 0.53870  0.01120  0.07700  Biso   1.000  C
  H153     1.0000 0.43340  0.04470  0.93620  Biso   1.000  H
  H154     1.0000 0.56660  0.95530  0.06380  Biso   1.000  H
  C187     1.0000 0.54580  0.93620  0.94550  Biso   1.000  C
  C188     1.0000 0.45420  0.06380  0.05450  Biso   1.000  C
  H155     1.0000 0.57570  0.95620  0.97410  Biso   1.000  H
  H156     1.0000 0.42430  0.04380  0.02590  Biso   1.000  H
  C189     1.0000 0.58660  0.85440  0.92610  Biso   1.000  C
  C190     1.0000 0.41340  0.14560  0.07390  Biso   1.000  C
  H157     1.0000 0.64440  0.81850  0.94150  Biso   1.000  H
  H158     1.0000 0.35560  0.18150  0.05850  Biso   1.000  H
  C191     1.0000 0.54290  0.82520  0.88420  Biso   1.000  C
  C192     1.0000 0.45710  0.17480  0.11580  Biso   1.000  C
  H159     1.0000 0.57070  0.76930  0.87100  Biso   1.000  H
  H160     1.0000 0.42930  0.23070  0.12900  Biso   1.000  H
  C193     1.0000 0.28600  0.77970  0.83100  Biso   1.000  C
  C194     1.0000 0.71400  0.22030  0.16900  Biso   1.000  C
  C195     1.0000 0.24910  0.72080  0.80099  Biso   1.000  C
  C196     1.0000 0.75090  0.27920  0.19901  Biso   1.000  C
  H161     1.0000 0.28060  0.70870  0.76770  Biso   1.000  H
  H162     1.0000 0.71940  0.29130  0.23230  Biso   1.000  H
  C197     1.0000 0.16600  0.67970  0.81980  Biso   1.000  C
  C198     1.0000 0.83400  0.32030  0.18020  Biso   1.000  C
  H163     1.0000 0.14080  0.63950  0.79930  Biso   1.000  H
  H164     1.0000 0.85920  0.36050  0.20070  Biso   1.000  H
  C199     1.0000 0.11980  0.69750  0.86850  Biso   1.000  C
  C200     1.0000 0.88020  0.30250  0.13150  Biso   1.000  C
  H165     1.0000 0.06300  0.66940  0.88140  Biso   1.000  H
  H166     1.0000 0.93700  0.33060  0.11860  Biso   1.000  H
  C201     1.0000 0.15670  0.75640  0.89850  Biso   1.000  C
  C202     1.0000 0.84330  0.24360  0.10150  Biso   1.000  C
  H167     1.0000 0.12520  0.76860  0.93180  Biso   1.000  H
  H168     1.0000 0.87480  0.23140  0.06820  Biso   1.000  H
  C203     1.0000 0.23980  0.79750  0.87970  Biso   1.000  C
  C204     1.0000 0.76020  0.20250  0.12030  Biso   1.000  C
  H169     1.0000 0.26500  0.83780  0.90020  Biso   1.000  H
  H170     1.0000 0.73500  0.16220  0.09980  Biso   1.000  H
  C205     1.0000 0.34140  0.95300  0.76291  Biso   1.000  C
  C206     1.0000 0.65860  0.04700  0.23709  Biso   1.000  C
  C207     1.0000 0.40360  0.00800  0.72850  Biso   1.000  C
  C208     1.0000 0.59640  0.99200  0.27150  Biso   1.000  C
  H171     1.0000 0.46910  0.98230  0.72420  Biso   1.000  H
  H172     1.0000 0.53090  0.01770  0.27580  Biso   1.000  H
  C209     1.0000 0.37000  0.10060  0.70040  Biso   1.000  C
  C210     1.0000 0.63000  0.89940  0.29960  Biso   1.000  C
  H173     1.0000 0.41260  0.13830  0.67690  Biso   1.000  H
  H174     1.0000 0.58740  0.86170  0.32310  Biso   1.000  H
  C211     1.0000 0.27430  0.13820  0.70670  Biso   1.000  C
  C212     1.0000 0.72570  0.86180  0.29330  Biso   1.000  C
  H175     1.0000 0.25130  0.20150  0.68750  Biso   1.000  H
  H176     1.0000 0.74870  0.79850  0.31250  Biso   1.000  H
  C213     1.0000 0.21200  0.08320  0.74110  Biso   1.000  C
  C214     1.0000 0.78800  0.91680  0.25890  Biso   1.000  C
  H177     1.0000 0.14660  0.10890  0.74550  Biso   1.000  H
  H178     1.0000 0.85340  0.89110  0.25450  Biso   1.000  H
  C215     1.0000 0.24560  0.99060  0.76920  Biso   1.000  C
  C216     1.0000 0.75440  0.00940  0.23080  Biso   1.000  C
  H179     1.0000 0.20310  0.95290  0.79270  Biso   1.000  H
  H180     1.0000 0.79690  0.04710  0.20730  Biso   1.000  H
  C217     1.0000 0.66240  0.24730  0.69091  Biso   1.000  C
  C218     1.0000 0.33760  0.75270  0.30909  Biso   1.000  C
  C219     1.0000 0.62970  0.17030  0.67396  Biso   1.000  C
  C220     1.0000 0.37030  0.82970  0.32604  Biso   1.000  C
  H181     1.0000 0.60100  0.17990  0.63890  Biso   1.000  H
  H182     1.0000 0.39900  0.82010  0.36110  Biso   1.000  H
  C221     1.0000 0.63900  0.07920  0.70829  Biso   1.000  C
  C222     1.0000 0.36100  0.92080  0.29171  Biso   1.000  C
  H183     1.0000 0.61670  0.02660  0.69670  Biso   1.000  H
  H184     1.0000 0.38330  0.97340  0.30330  Biso   1.000  H
  C223     1.0000 0.68110  0.06510  0.75957  Biso   1.000  C
  C224     1.0000 0.31890  0.93490  0.24043  Biso   1.000  C
  H185     1.0000 0.68750  0.00280  0.78300  Biso   1.000  H
  H186     1.0000 0.31250  0.99720  0.21700  Biso   1.000  H
  C225     1.0000 0.71380  0.14200  0.77652  Biso   1.000  C
  C226     1.0000 0.28620  0.85800  0.22348  Biso   1.000  C
  H187     1.0000 0.74250  0.13240  0.81160  Biso   1.000  H
  H188     1.0000 0.25750  0.86760  0.18840  Biso   1.000  H
  C227     1.0000 0.70450  0.23310  0.74219  Biso   1.000  C
  C228     1.0000 0.29550  0.76690  0.25781  Biso   1.000  C
  H189     1.0000 0.72680  0.28570  0.75380  Biso   1.000  H
  H190     1.0000 0.27320  0.71430  0.24620  Biso   1.000  H
  C229     1.0000 0.75040  0.36700  0.59758  Biso   1.000  C
  C230     1.0000 0.24960  0.63300  0.40242  Biso   1.000  C
  C231     1.0000 0.76760  0.45540  0.56517  Biso   1.000  C
  C232     1.0000 0.23240  0.54460  0.43483  Biso   1.000  C
  H191     1.0000 0.72730  0.51290  0.56920  Biso   1.000  H
  H192     1.0000 0.27270  0.48710  0.43080  Biso   1.000  H
  C233     1.0000 0.84380  0.45960  0.52679  Biso   1.000  C
  C234     1.0000 0.15620  0.54040  0.47321  Biso   1.000  C
  H193     1.0000 0.85560  0.52000  0.50460  Biso   1.000  H
  H194     1.0000 0.14440  0.48000  0.49540  Biso   1.000  H
  C235     1.0000 0.90280  0.37550  0.52083  Biso   1.000  C
  C236     1.0000 0.09720  0.62450  0.47917  Biso   1.000  C
  H195     1.0000 0.95490  0.37840  0.49460  Biso   1.000  H
  H196     1.0000 0.04510  0.62160  0.50540  Biso   1.000  H
  C237     1.0000 0.88560  0.28710  0.55320  Biso   1.000  C
  C238     1.0000 0.11440  0.71290  0.44680  Biso   1.000  C
  H197     1.0000 0.92590  0.22960  0.54920  Biso   1.000  H
  H198     1.0000 0.07410  0.77040  0.45080  Biso   1.000  H
  C239     1.0000 0.80930  0.28280  0.59161  Biso   1.000  C
  C240     1.0000 0.19070  0.71720  0.40839  Biso   1.000  C
  H199     1.0000 0.79760  0.22240  0.61380  Biso   1.000  H
  H200     1.0000 0.20240  0.77760  0.38620  Biso   1.000  H
  C241     1.0000 0.54310  0.37000  0.60647  Biso   1.000  C
  C242     1.0000 0.45690  0.63000  0.39353  Biso   1.000  C
  C243     1.0000 0.45500  0.36540  0.63475  Biso   1.000  C
  C244     1.0000 0.54500  0.63460  0.36525  Biso   1.000  C
  H201     1.0000 0.45150  0.36120  0.67370  Biso   1.000  H
  H202     1.0000 0.54850  0.63880  0.32630  Biso   1.000  H
  C245     1.0000 0.37190  0.36700  0.60606  Biso   1.000  C
  C246     1.0000 0.62810  0.63300  0.39394  Biso   1.000  C
  H203     1.0000 0.31170  0.36390  0.62540  Biso   1.000  H
  H204     1.0000 0.68830  0.63610  0.37460  Biso   1.000  H
  C247     1.0000 0.37690  0.37320  0.54909  Biso   1.000  C
  C248     1.0000 0.62310  0.62680  0.45091  Biso   1.000  C
  H205     1.0000 0.32020  0.37430  0.52950  Biso   1.000  H
  H206     1.0000 0.67980  0.62570  0.47050  Biso   1.000  H
  C249     1.0000 0.46510  0.37780  0.52081  Biso   1.000  C
  C250     1.0000 0.53490  0.62220  0.47919  Biso   1.000  C
  H207     1.0000 0.46850  0.38200  0.48190  Biso   1.000  H
  H208     1.0000 0.53150  0.61800  0.51810  Biso   1.000  H
  C251     1.0000 0.54820  0.37620  0.54950  Biso   1.000  C
  C252     1.0000 0.45180  0.62380  0.45050  Biso   1.000  C
  H209     1.0000 0.60840  0.37930  0.53020  Biso   1.000  H
  H210     1.0000 0.39160  0.62070  0.46980  Biso   1.000  H
  O5       1.0000 0.97080  0.18130  0.74070  Biso   1.000  O
  O6       1.0000 0.02920  0.81870  0.25930  Biso   1.000  O
  C253     1.0000 0.96650  0.19000  0.79640  Biso   1.000  C
  C254     1.0000 0.03350  0.81000  0.20360  Biso   1.000  C
  H211     1.0000 0.98630  0.12660  0.82070  Biso   1.000  H
  H212     1.0000 0.01370  0.87340  0.17930  Biso   1.000  H
  H213     1.0000 0.90030  0.21430  0.80730  Biso   1.000  H
  H214     1.0000 0.09970  0.78570  0.19270  Biso   1.000  H
  C255     1.0000 0.03130  0.25710  0.80080  Biso   1.000  C
  C256     1.0000 0.96870  0.74290  0.19920  Biso   1.000  C
  H215     1.0000 0.09500  0.22190  0.81270  Biso   1.000  H
  H216     1.0000 0.90500  0.77810  0.18730  Biso   1.000  H
  H217     1.0000 0.00620  0.29590  0.82870  Biso   1.000  H
  H218     1.0000 0.99380  0.70410  0.17130  Biso   1.000  H
  C257     1.0000 0.04080  0.32010  0.74720  Biso   1.000  C
  C258     1.0000 0.95920  0.67990  0.25280  Biso   1.000  C
  H219     1.0000 0.10900  0.31930  0.73460  Biso   1.000  H
  H220     1.0000 0.89100  0.68070  0.26540  Biso   1.000  H
  H221     1.0000 0.01270  0.38750  0.74800  Biso   1.000  H
  H222     1.0000 0.98730  0.61250  0.25200  Biso   1.000  H
  C259     1.0000 0.98350  0.27500  0.71060  Biso   1.000  C
  C260     1.0000 0.01650  0.72500  0.28940  Biso   1.000  C
  H223     1.0000 0.92030  0.31460  0.70220  Biso   1.000  H
  H224     1.0000 0.07970  0.68540  0.29780  Biso   1.000  H
  H225     1.0000 0.01910  0.27080  0.67530  Biso   1.000  H
  H226     1.0000 0.98090  0.72920  0.32470  Biso   1.000  H
  O7       1.0000 0.97060  0.92690  0.06630  Biso   1.000  O
  O8       1.0000 0.02940  0.07310  0.93370  Biso   1.000  O
  C261     1.0000 0.89600  0.99230  0.07920  Biso   1.000  C
  C262     1.0000 0.10400  0.00770  0.92080  Biso   1.000  C
  H227     1.0000 0.89660  0.05500  0.05300  Biso   1.000  H
  H228     1.0000 0.10340  0.94500  0.94700  Biso   1.000  H
  H229     1.0000 0.90330  0.00290  0.11700  Biso   1.000  H
  H230     1.0000 0.09670  0.99710  0.88300  Biso   1.000  H
  C263     1.0000 0.80820  0.95600  0.07590  Biso   1.000  C
  C264     1.0000 0.19180  0.04400  0.92410  Biso   1.000  C
  H231     1.0000 0.76260  0.00650  0.05340  Biso   1.000  H
  H232     1.0000 0.23740  0.99350  0.94660  Biso   1.000  H
  H233     1.0000 0.77920  0.93870  0.11350  Biso   1.000  H
  H234     1.0000 0.22080  0.06130  0.88650  Biso   1.000  H
  C265     1.0000 0.82530  0.87200  0.05090  Biso   1.000  C
  C266     1.0000 0.17470  0.12800  0.94910  Biso   1.000  C
  H235     1.0000 0.79540  0.88440  0.01430  Biso   1.000  H
  H236     1.0000 0.20460  0.11560  0.98570  Biso   1.000  H
  H237     1.0000 0.79980  0.81550  0.07500  Biso   1.000  H
  H238     1.0000 0.20020  0.18450  0.92500  Biso   1.000  H
  C267     1.0000 0.93470  0.85400  0.04540  Biso   1.000  C
  C268     1.0000 0.06530  0.14600  0.95460  Biso   1.000  C
  H239     1.0000 0.95930  0.78930  0.06680  Biso   1.000  H
  H240     1.0000 0.04070  0.21070  0.93320  Biso   1.000  H
  H241     1.0000 0.95490  0.85730  0.00610  Biso   1.000  H
  H242     1.0000 0.04510  0.14270  0.99390  Biso   1.000  H
  O9       1.0000 0.76240  0.90410  0.03320  Biso   1.000  O
  O10      1.0000 0.23760  0.09590  0.96680  Biso   1.000  O
  C269     1.0000 0.77300  0.96800  0.06770  Biso   1.000  C
  C270     1.0000 0.22700  0.03200  0.93230  Biso   1.000  C
  H243     1.0000 0.74760  0.94370  0.10540  Biso   1.000  H
  H244     1.0000 0.25240  0.05630  0.89460  Biso   1.000  H
  H245     1.0000 0.73720  0.03250  0.05310  Biso   1.000  H
  H246     1.0000 0.26280  0.96750  0.94690  Biso   1.000  H
  C271     1.0000 0.87400  0.97400  0.06870  Biso   1.000  C
  C272     1.0000 0.12600  0.02600  0.93130  Biso   1.000  C
  H247     1.0000 0.89460  0.96180  0.10740  Biso   1.000  H
  H248     1.0000 0.10540  0.03820  0.89260  Biso   1.000  H
  H249     1.0000 0.88710  0.03980  0.05030  Biso   1.000  H
  H250     1.0000 0.11290  0.96020  0.94970  Biso   1.000  H
  C273     1.0000 0.92570  0.90200  0.03980  Biso   1.000  C
  C274     1.0000 0.07430  0.09800  0.96020  Biso   1.000  C
  H251     1.0000 0.98470  0.86870  0.05920  Biso   1.000  H
  H252     1.0000 0.01530  0.13130  0.94080  Biso   1.000  H
  H253     1.0000 0.94230  0.93040  0.00100  Biso   1.000  H
  H254     1.0000 0.05770  0.06960  0.99900  Biso   1.000  H
  C275     1.0000 0.84660  0.83420  0.04380  Biso   1.000  C
  C276     1.0000 0.15340  0.16580  0.95620  Biso   1.000  C
  H255     1.0000 0.85690  0.79340  0.01550  Biso   1.000  H
  H256     1.0000 0.14310  0.20660  0.98450  Biso   1.000  H
  H257     1.0000 0.84320  0.79230  0.08100  Biso   1.000  H
  H258     1.0000 0.15680  0.20770  0.91900  Biso   1.000  H
