data_image0
_cell_length_a       4.2902
_cell_length_b       10.22
_cell_length_c       11.514
_cell_angle_alpha    112.31
_cell_angle_beta     95.55
_cell_angle_gamma    97.35

_symmetry_space_group_name_H-M    "P 1"
_symmetry_int_tables_number       1

loop_
  _symmetry_equiv_pos_as_xyz
  'x, y, z'

loop_
  _atom_site_label
  _atom_site_occupancy
  _atom_site_fract_x
  _atom_site_fract_y
  _atom_site_fract_z
  _atom_site_thermal_displace_type
  _atom_site_B_iso_or_equiv
  _atom_site_type_symbol
  Cu1      1.0000 0.32270  0.52030  0.59260  Biso   1.000  Cu
  Cu2      1.0000 0.67730  0.47970  0.40740  Biso   1.000  Cu
  I1       1.0000 0.12230  0.30840  0.36420  Biso   1.000  I
  I2       1.0000 0.87770  0.69160  0.63580  Biso   1.000  I
  S1       1.0000 0.13700  0.50630  0.85000  Biso   1.000  S
  S2       1.0000 0.86300  0.49370  0.15000  Biso   1.000  S
  N1       1.0000 0.30540  0.43310  0.72500  Biso   1.000  N
  N2       1.0000 0.69460  0.56690  0.27500  Biso   1.000  N
  N3       1.0000 0.16430  0.39210  0.91320  Biso   1.000  N
  N4       1.0000 0.83570  0.60790  0.08680  Biso   1.000  N
  C1       1.0000 0.39110  0.31350  0.72880  Biso   1.000  C
  C2       1.0000 0.60890  0.68650  0.27120  Biso   1.000  C
  C3       1.0000 0.54840  0.21660  0.64210  Biso   1.000  C
  C4       1.0000 0.45160  0.78340  0.35790  Biso   1.000  C
  C5       1.0000 0.61050  0.10050  0.66510  Biso   1.000  C
  C6       1.0000 0.38950  0.89950  0.33490  Biso   1.000  C
  C7       1.0000 0.51750  0.07360  0.77060  Biso   1.000  C
  C8       1.0000 0.48250  0.92640  0.22940  Biso   1.000  C
  C9       1.0000 0.36960  0.16500  0.85850  Biso   1.000  C
  C10      1.0000 0.63040  0.83500  0.14150  Biso   1.000  C
  C11      1.0000 0.30650  0.28900  0.83790  Biso   1.000  C
  C12      1.0000 0.69350  0.71100  0.16210  Biso   1.000  C
  C13      1.0000 0.27160  0.14110  0.97180  Biso   1.000  C
  C14      1.0000 0.72840  0.85890  0.02820  Biso   1.000  C
  H1       1.0000 0.61700  0.23400  0.56200  Biso   1.000  H
  H2       1.0000 0.38300  0.76600  0.43800  Biso   1.000  H
  H3       1.0000 0.73400  0.02700  0.60200  Biso   1.000  H
  H4       1.0000 0.26600  0.97300  0.39800  Biso   1.000  H
  H5       1.0000 0.56500  0.98000  0.78200  Biso   1.000  H
  H6       1.0000 0.43500  0.02000  0.21800  Biso   1.000  H
