data_image0
_cell_length_a       9.745
_cell_length_b       10.221
_cell_length_c       10.287
_cell_angle_alpha    60.877
_cell_angle_beta     61.959
_cell_angle_gamma    81.087

_symmetry_space_group_name_H-M    "P 1"
_symmetry_int_tables_number       1

loop_
  _symmetry_equiv_pos_as_xyz
  'x, y, z'

loop_
  _atom_site_label
  _atom_site_occupancy
  _atom_site_fract_x
  _atom_site_fract_y
  _atom_site_fract_z
  _atom_site_thermal_displace_type
  _atom_site_B_iso_or_equiv
  _atom_site_type_symbol
  I1       1.0000 0.02081  0.27119  0.13742  Biso   1.000  I
  I2       1.0000 0.97919  0.72881  0.86258  Biso   1.000  I
  I3       1.0000 0.45654  0.54524  0.77714  Biso   1.000  I
  I4       1.0000 0.54346  0.45476  0.22286  Biso   1.000  I
  I5       1.0000 0.22672  0.08820  0.77968  Biso   1.000  I
  I6       1.0000 0.77328  0.91180  0.22032  Biso   1.000  I
  Cu1      1.0000 0.16814  0.54999  0.97032  Biso   1.000  Cu
  Cu2      1.0000 0.83186  0.45001  0.02968  Biso   1.000  Cu
  Cu3      1.0000 0.41908  0.62287  0.01741  Biso   1.000  Cu
  Cu4      1.0000 0.58092  0.37713  0.98259  Biso   1.000  Cu
  Cu5      1.0000 0.96469  0.15266  0.97378  Biso   1.000  Cu
  Cu6      1.0000 0.03531  0.84734  0.02622  Biso   1.000  Cu
  S1       1.0000 0.16084  0.65331  0.15490  Biso   1.000  S
  S2       1.0000 0.83916  0.34669  0.84510  Biso   1.000  S
  N1       1.0000 0.83310  0.23550  0.56110  Biso   1.000  N
  N2       1.0000 0.16690  0.76450  0.43890  Biso   1.000  N
  N3       1.0000 0.55440  0.82490  0.86620  Biso   1.000  N
  N4       1.0000 0.44560  0.17510  0.13380  Biso   1.000  N
  C1       1.0000 0.98620  0.23590  0.52790  Biso   1.000  C
  C2       1.0000 0.01380  0.76410  0.47210  Biso   1.000  C
  H1       1.0000 0.02230  0.14850  0.58660  Biso   1.000  H
  H2       1.0000 0.97770  0.85150  0.41340  Biso   1.000  H
  C3       1.0000 0.08580  0.36150  0.41100  Biso   1.000  C
  C4       1.0000 0.91420  0.63850  0.58900  Biso   1.000  C
  H3       1.0000 0.18960  0.35950  0.39020  Biso   1.000  H
  H4       1.0000 0.81040  0.64050  0.60980  Biso   1.000  H
  C5       1.0000 0.03430  0.49540  0.32050  Biso   1.000  C
  C6       1.0000 0.96570  0.50460  0.67950  Biso   1.000  C
  C7       1.0000 0.87330  0.49350  0.36660  Biso   1.000  C
  C8       1.0000 0.12670  0.50650  0.63340  Biso   1.000  C
  H5       1.0000 0.83270  0.58140  0.31570  Biso   1.000  H
  H6       1.0000 0.16730  0.41860  0.68430  Biso   1.000  H
  C9       1.0000 0.77740  0.36530  0.48410  Biso   1.000  C
  C10      1.0000 0.22260  0.63470  0.51590  Biso   1.000  C
  H7       1.0000 0.67160  0.36600  0.51240  Biso   1.000  H
  H8       1.0000 0.32840  0.63400  0.48760  Biso   1.000  H
  C11      1.0000 0.73490  0.09650  0.66760  Biso   1.000  C
  C12      1.0000 0.26510  0.90350  0.33240  Biso   1.000  C
  C13      1.0000 0.70590  0.01220  0.83180  Biso   1.000  C
  C14      1.0000 0.29410  0.98780  0.16820  Biso   1.000  C
  H9       1.0000 0.74670  0.04460  0.87800  Biso   1.000  H
  H10      1.0000 0.25330  0.95540  0.12200  Biso   1.000  H
  C15      1.0000 0.61360  0.87730  0.92580  Biso   1.000  C
  C16      1.0000 0.38640  0.12270  0.07420  Biso   1.000  C
  H11      1.0000 0.59210  0.82010  0.03750  Biso   1.000  H
  H12      1.0000 0.40790  0.17990  0.96250  Biso   1.000  H
  C17      1.0000 0.58330  0.90830  0.70660  Biso   1.000  C
  C18      1.0000 0.41670  0.09170  0.29340  Biso   1.000  C
  H13      1.0000 0.54110  0.87320  0.66360  Biso   1.000  H
  H14      1.0000 0.45890  0.12680  0.33640  Biso   1.000  H
  C19      1.0000 0.67480  0.04640  0.60150  Biso   1.000  C
  C20      1.0000 0.32520  0.95360  0.39850  Biso   1.000  C
  H15      1.0000 0.69420  0.10240  0.49030  Biso   1.000  H
  H16      1.0000 0.30580  0.89760  0.50970  Biso   1.000  H
