data_image0
_cell_length_a       11.5166
_cell_length_b       4.1902
_cell_length_c       19.489
_cell_angle_alpha    90
_cell_angle_beta     107.034
_cell_angle_gamma    90

_symmetry_space_group_name_H-M    "P 1"
_symmetry_int_tables_number       1

loop_
  _symmetry_equiv_pos_as_xyz
  'x, y, z'

loop_
  _atom_site_label
  _atom_site_occupancy
  _atom_site_fract_x
  _atom_site_fract_y
  _atom_site_fract_z
  _atom_site_thermal_displace_type
  _atom_site_B_iso_or_equiv
  _atom_site_type_symbol
  Cu1      1.0000 0.96093  0.75000  0.45172  Biso   1.000  Cu
  Cu2      1.0000 0.03907  0.25000  0.54828  Biso   1.000  Cu
  Cu3      1.0000 0.47051  0.75000  0.03970  Biso   1.000  Cu
  Cu4      1.0000 0.52949  0.25000  0.96030  Biso   1.000  Cu
  I1       1.0000 0.81923  0.25000  0.45749  Biso   1.000  I
  I2       1.0000 0.18077  0.75000  0.54251  Biso   1.000  I
  I3       1.0000 0.60201  0.25000  0.10273  Biso   1.000  I
  I4       1.0000 0.39799  0.75000  0.89727  Biso   1.000  I
  S1       1.0000 0.97470  0.38430  0.12750  Biso   1.000  S
  S2       1.0000 0.02530  0.88430  0.87250  Biso   1.000  S
  S3       1.0000 0.02530  0.61570  0.87250  Biso   1.000  S
  S4       1.0000 0.97470  0.11570  0.12750  Biso   1.000  S
  N1       1.0000 0.97980  0.75000  0.34990  Biso   1.000  N
  N2       1.0000 0.02020  0.25000  0.65010  Biso   1.000  N
  C1       1.0000 0.88510  0.82200  0.28900  Biso   1.000  C
  C2       1.0000 0.11490  0.32200  0.71100  Biso   1.000  C
  C3       1.0000 0.11490  0.17800  0.71100  Biso   1.000  C
  C4       1.0000 0.88510  0.67800  0.28900  Biso   1.000  C
  H1       1.0000 0.82090  0.94830  0.29270  Biso   1.000  H
  H2       1.0000 0.17910  0.44830  0.70730  Biso   1.000  H
  H3       1.0000 0.17910  0.05170  0.70730  Biso   1.000  H
  H4       1.0000 0.82090  0.55170  0.29270  Biso   1.000  H
  C5       1.0000 0.88650  0.70500  0.22240  Biso   1.000  C
  C6       1.0000 0.11350  0.20500  0.77760  Biso   1.000  C
  C7       1.0000 0.11350  0.29500  0.77760  Biso   1.000  C
  C8       1.0000 0.88650  0.79500  0.22240  Biso   1.000  C
  H5       1.0000 0.82320  0.75000  0.18170  Biso   1.000  H
  H6       1.0000 0.17680  0.25000  0.81830  Biso   1.000  H
  C9       1.0000 0.98260  0.51600  0.21690  Biso   1.000  C
  C10      1.0000 0.01740  0.01600  0.78310  Biso   1.000  C
  C11      1.0000 0.01740  0.48400  0.78310  Biso   1.000  C
  C12      1.0000 0.98260  0.98400  0.21690  Biso   1.000  C
  C13      1.0000 0.07730  0.44400  0.27780  Biso   1.000  C
  C14      1.0000 0.92270  0.94400  0.72220  Biso   1.000  C
  C15      1.0000 0.92270  0.55600  0.72220  Biso   1.000  C
  C16      1.0000 0.07730  0.05600  0.27780  Biso   1.000  C
  H7       1.0000 0.14160  0.31800  0.27410  Biso   1.000  H
  H8       1.0000 0.85840  0.81800  0.72590  Biso   1.000  H
  H9       1.0000 0.85840  0.68200  0.72590  Biso   1.000  H
  H10      1.0000 0.14160  0.18200  0.27410  Biso   1.000  H
  C17      1.0000 0.07590  0.56120  0.34430  Biso   1.000  C
  C18      1.0000 0.92410  0.06120  0.65570  Biso   1.000  C
  C19      1.0000 0.92410  0.43880  0.65570  Biso   1.000  C
  C20      1.0000 0.07590  0.93880  0.34430  Biso   1.000  C
  H11      1.0000 0.13930  0.51310  0.38510  Biso   1.000  H
  H12      1.0000 0.86070  0.01310  0.61490  Biso   1.000  H
  H13      1.0000 0.86070  0.48690  0.61490  Biso   1.000  H
  H14      1.0000 0.13930  0.98690  0.38510  Biso   1.000  H
  C21      1.0000 0.11470  0.49600  0.11290  Biso   1.000  C
  C22      1.0000 0.88530  0.99600  0.88710  Biso   1.000  C
  C23      1.0000 0.88530  0.50400  0.88710  Biso   1.000  C
  C24      1.0000 0.11470  0.00400  0.11290  Biso   1.000  C
  C25      1.0000 0.12950  0.36900  0.05020  Biso   1.000  C
  C26      1.0000 0.87050  0.86900  0.94980  Biso   1.000  C
  C27      1.0000 0.87050  0.63100  0.94980  Biso   1.000  C
  C28      1.0000 0.12950  0.13100  0.05020  Biso   1.000  C
  H15      1.0000 0.07100  0.23220  0.02210  Biso   1.000  H
  H16      1.0000 0.92900  0.73220  0.97790  Biso   1.000  H
  H17      1.0000 0.92900  0.76780  0.97790  Biso   1.000  H
  H18      1.0000 0.07100  0.26780  0.02210  Biso   1.000  H
  C29      1.0000 0.23180  0.44500  0.02950  Biso   1.000  C
  C30      1.0000 0.76820  0.94500  0.97050  Biso   1.000  C
  C31      1.0000 0.76820  0.55500  0.97050  Biso   1.000  C
  C32      1.0000 0.23180  0.05500  0.02950  Biso   1.000  C
  H19      1.0000 0.24180  0.35950  0.98750  Biso   1.000  H
  H20      1.0000 0.75820  0.85950  0.01250  Biso   1.000  H
  H21      1.0000 0.75820  0.64050  0.01250  Biso   1.000  H
  H22      1.0000 0.24180  0.14050  0.98750  Biso   1.000  H
  N3       1.0000 0.31930  0.64900  0.07150  Biso   1.000  N
  N4       1.0000 0.68070  0.14900  0.92850  Biso   1.000  N
  N5       1.0000 0.68070  0.35100  0.92850  Biso   1.000  N
  N6       1.0000 0.31930  0.85100  0.07150  Biso   1.000  N
  C33      1.0000 0.30450  0.77600  0.13420  Biso   1.000  C
  C34      1.0000 0.69550  0.27600  0.86580  Biso   1.000  C
  C35      1.0000 0.69550  0.22400  0.86580  Biso   1.000  C
  C36      1.0000 0.30450  0.72400  0.13420  Biso   1.000  C
  H23      1.0000 0.36300  0.91290  0.16240  Biso   1.000  H
  H24      1.0000 0.63700  0.41290  0.83760  Biso   1.000  H
  H25      1.0000 0.63700  0.08710  0.83760  Biso   1.000  H
  H26      1.0000 0.36300  0.58710  0.16240  Biso   1.000  H
  C37      1.0000 0.20210  0.70000  0.15490  Biso   1.000  C
  C38      1.0000 0.79790  0.20000  0.84510  Biso   1.000  C
  C39      1.0000 0.79790  0.30000  0.84510  Biso   1.000  C
  C40      1.0000 0.20210  0.80000  0.15490  Biso   1.000  C
  H27      1.0000 0.19220  0.78560  0.19690  Biso   1.000  H
  H28      1.0000 0.80780  0.28560  0.80310  Biso   1.000  H
  H29      1.0000 0.80780  0.21440  0.80310  Biso   1.000  H
  H30      1.0000 0.19220  0.71440  0.19690  Biso   1.000  H
