data_image0
_cell_length_a       36.073
_cell_length_b       11.6925
_cell_length_c       14.6242
_cell_angle_alpha    90
_cell_angle_beta     96.524
_cell_angle_gamma    90

_symmetry_space_group_name_H-M    "P 1"
_symmetry_int_tables_number       1

loop_
  _symmetry_equiv_pos_as_xyz
  'x, y, z'

loop_
  _atom_site_label
  _atom_site_occupancy
  _atom_site_fract_x
  _atom_site_fract_y
  _atom_site_fract_z
  _atom_site_thermal_displace_type
  _atom_site_B_iso_or_equiv
  _atom_site_type_symbol
  I1       1.0000 0.40048  0.94833  0.50643  Biso   1.000  I
  I2       1.0000 0.90048  0.44833  0.50643  Biso   1.000  I
  I3       1.0000 0.59952  0.94833  0.99357  Biso   1.000  I
  I4       1.0000 0.09952  0.44833  0.99357  Biso   1.000  I
  I5       1.0000 0.59952  0.05167  0.49357  Biso   1.000  I
  I6       1.0000 0.09952  0.55167  0.49357  Biso   1.000  I
  I7       1.0000 0.40048  0.05167  0.00643  Biso   1.000  I
  I8       1.0000 0.90048  0.55167  0.00643  Biso   1.000  I
  I9       1.0000 0.37731  0.63595  0.65617  Biso   1.000  I
  I10      1.0000 0.87731  0.13595  0.65617  Biso   1.000  I
  I11      1.0000 0.62269  0.63595  0.84383  Biso   1.000  I
  I12      1.0000 0.12269  0.13595  0.84383  Biso   1.000  I
  I13      1.0000 0.62269  0.36405  0.34383  Biso   1.000  I
  I14      1.0000 0.12269  0.86405  0.34383  Biso   1.000  I
  I15      1.0000 0.37731  0.36405  0.15617  Biso   1.000  I
  I16      1.0000 0.87731  0.86405  0.15617  Biso   1.000  I
  I17      1.0000 0.30158  0.95231  0.64589  Biso   1.000  I
  I18      1.0000 0.80158  0.45231  0.64589  Biso   1.000  I
  I19      1.0000 0.69842  0.95231  0.85411  Biso   1.000  I
  I20      1.0000 0.19842  0.45231  0.85411  Biso   1.000  I
  I21      1.0000 0.69842  0.04769  0.35411  Biso   1.000  I
  I22      1.0000 0.19842  0.54769  0.35411  Biso   1.000  I
  I23      1.0000 0.30158  0.04769  0.14589  Biso   1.000  I
  I24      1.0000 0.80158  0.54769  0.14589  Biso   1.000  I
  I25      1.0000 0.25433  0.61270  0.61087  Biso   1.000  I
  I26      1.0000 0.75433  0.11270  0.61087  Biso   1.000  I
  I27      1.0000 0.74567  0.61270  0.88913  Biso   1.000  I
  I28      1.0000 0.24567  0.11270  0.88913  Biso   1.000  I
  I29      1.0000 0.74567  0.38730  0.38913  Biso   1.000  I
  I30      1.0000 0.24567  0.88730  0.38913  Biso   1.000  I
  I31      1.0000 0.25433  0.38730  0.11087  Biso   1.000  I
  I32      1.0000 0.75433  0.88730  0.11087  Biso   1.000  I
  I33      1.0000 0.54960  0.72647  0.35067  Biso   1.000  I
  I34      1.0000 0.04960  0.22647  0.35067  Biso   1.000  I
  I35      1.0000 0.45040  0.72647  0.14933  Biso   1.000  I
  I36      1.0000 0.95040  0.22647  0.14933  Biso   1.000  I
  I37      1.0000 0.45040  0.27353  0.64933  Biso   1.000  I
  I38      1.0000 0.95040  0.77353  0.64933  Biso   1.000  I
  I39      1.0000 0.54960  0.27353  0.85067  Biso   1.000  I
  I40      1.0000 0.04960  0.77353  0.85067  Biso   1.000  I
  Cu1      1.0000 0.39064  0.72225  0.47818  Biso   1.000  Cu
  Cu2      1.0000 0.89064  0.22225  0.47818  Biso   1.000  Cu
  Cu3      1.0000 0.60936  0.72225  0.02182  Biso   1.000  Cu
  Cu4      1.0000 0.10936  0.22225  0.02182  Biso   1.000  Cu
  Cu5      1.0000 0.60936  0.27775  0.52182  Biso   1.000  Cu
  Cu6      1.0000 0.10936  0.77775  0.52182  Biso   1.000  Cu
  Cu7      1.0000 0.39064  0.27775  0.97818  Biso   1.000  Cu
  Cu8      1.0000 0.89064  0.77775  0.97818  Biso   1.000  Cu
  Cu9      1.0000 0.35484  0.83865  0.59098  Biso   1.000  Cu
  Cu10     1.0000 0.85484  0.33865  0.59098  Biso   1.000  Cu
  Cu11     1.0000 0.64516  0.83865  0.90902  Biso   1.000  Cu
  Cu12     1.0000 0.14516  0.33865  0.90902  Biso   1.000  Cu
  Cu13     1.0000 0.64516  0.16135  0.40902  Biso   1.000  Cu
  Cu14     1.0000 0.14516  0.66135  0.40902  Biso   1.000  Cu
  Cu15     1.0000 0.35484  0.16135  0.09098  Biso   1.000  Cu
  Cu16     1.0000 0.85484  0.66135  0.09098  Biso   1.000  Cu
  Cu17     1.0000 0.31212  0.72958  0.68657  Biso   1.000  Cu
  Cu18     1.0000 0.81212  0.22958  0.68657  Biso   1.000  Cu
  Cu19     1.0000 0.68788  0.72958  0.81343  Biso   1.000  Cu
  Cu20     1.0000 0.18788  0.22958  0.81343  Biso   1.000  Cu
  Cu21     1.0000 0.68788  0.27042  0.31343  Biso   1.000  Cu
  Cu22     1.0000 0.18788  0.77042  0.31343  Biso   1.000  Cu
  Cu23     1.0000 0.31212  0.27042  0.18657  Biso   1.000  Cu
  Cu24     1.0000 0.81212  0.77042  0.18657  Biso   1.000  Cu
  Cu25     1.0000 0.28618  0.74320  0.49476  Biso   1.000  Cu
  Cu26     1.0000 0.78618  0.24320  0.49476  Biso   1.000  Cu
  Cu27     1.0000 0.71382  0.74320  0.00524  Biso   1.000  Cu
  Cu28     1.0000 0.21382  0.24320  0.00524  Biso   1.000  Cu
  Cu29     1.0000 0.71382  0.25680  0.50524  Biso   1.000  Cu
  Cu30     1.0000 0.21382  0.75680  0.50524  Biso   1.000  Cu
  Cu31     1.0000 0.28618  0.25680  0.99476  Biso   1.000  Cu
  Cu32     1.0000 0.78618  0.75680  0.99476  Biso   1.000  Cu
  Cu33     1.0000 0.47614  0.77331  0.32311  Biso   1.000  Cu
  Cu34     1.0000 0.97614  0.27331  0.32311  Biso   1.000  Cu
  Cu35     1.0000 0.52386  0.77331  0.17689  Biso   1.000  Cu
  Cu36     1.0000 0.02386  0.27331  0.17689  Biso   1.000  Cu
  Cu37     1.0000 0.52386  0.22669  0.67689  Biso   1.000  Cu
  Cu38     1.0000 0.02386  0.72669  0.67689  Biso   1.000  Cu
  Cu39     1.0000 0.47614  0.22669  0.82311  Biso   1.000  Cu
  Cu40     1.0000 0.97614  0.72669  0.82311  Biso   1.000  Cu
  S1       1.0000 0.33209  0.66629  0.42118  Biso   1.000  S
  S2       1.0000 0.83209  0.16629  0.42118  Biso   1.000  S
  S3       1.0000 0.66791  0.66629  0.07882  Biso   1.000  S
  S4       1.0000 0.16791  0.16629  0.07882  Biso   1.000  S
  S5       1.0000 0.66791  0.33371  0.57882  Biso   1.000  S
  S6       1.0000 0.16791  0.83371  0.57882  Biso   1.000  S
  S7       1.0000 0.33209  0.33371  0.92118  Biso   1.000  S
  S8       1.0000 0.83209  0.83371  0.92118  Biso   1.000  S
  S9       1.0000 0.44511  0.67506  0.42869  Biso   1.000  S
  S10      1.0000 0.94511  0.17506  0.42869  Biso   1.000  S
  S11      1.0000 0.55489  0.67506  0.07131  Biso   1.000  S
  S12      1.0000 0.05489  0.17506  0.07131  Biso   1.000  S
  S13      1.0000 0.55489  0.32494  0.57131  Biso   1.000  S
  S14      1.0000 0.05489  0.82494  0.57131  Biso   1.000  S
  S15      1.0000 0.44511  0.32494  0.92869  Biso   1.000  S
  S16      1.0000 0.94511  0.82494  0.92869  Biso   1.000  S
  N1       1.0000 0.31002  0.72810  0.82490  Biso   1.000  N
  N2       1.0000 0.81002  0.22810  0.82490  Biso   1.000  N
  N3       1.0000 0.68998  0.72810  0.67510  Biso   1.000  N
  N4       1.0000 0.18998  0.22810  0.67510  Biso   1.000  N
  N5       1.0000 0.68998  0.27190  0.17510  Biso   1.000  N
  N6       1.0000 0.18998  0.77190  0.17510  Biso   1.000  N
  N7       1.0000 0.31002  0.27190  0.32490  Biso   1.000  N
  N8       1.0000 0.81002  0.77190  0.32490  Biso   1.000  N
  N9       1.0000 0.31666  0.71400  0.11440  Biso   1.000  N
  N10      1.0000 0.81666  0.21400  0.11440  Biso   1.000  N
  N11      1.0000 0.68334  0.71400  0.38560  Biso   1.000  N
  N12      1.0000 0.18334  0.21400  0.38560  Biso   1.000  N
  N13      1.0000 0.68334  0.28600  0.88560  Biso   1.000  N
  N14      1.0000 0.18334  0.78600  0.88560  Biso   1.000  N
  N15      1.0000 0.31666  0.28600  0.61440  Biso   1.000  N
  N16      1.0000 0.81666  0.78600  0.61440  Biso   1.000  N
  N17      1.0000 0.47095  0.94660  0.33180  Biso   1.000  N
  N18      1.0000 0.97095  0.44660  0.33180  Biso   1.000  N
  N19      1.0000 0.52905  0.94660  0.16820  Biso   1.000  N
  N20      1.0000 0.02905  0.44660  0.16820  Biso   1.000  N
  N21      1.0000 0.52905  0.05340  0.66820  Biso   1.000  N
  N22      1.0000 0.02905  0.55340  0.66820  Biso   1.000  N
  N23      1.0000 0.47095  0.05340  0.83180  Biso   1.000  N
  N24      1.0000 0.97095  0.55340  0.83180  Biso   1.000  N
  N25      1.0000 0.45713  0.29810  0.37700  Biso   1.000  N
  N26      1.0000 0.95713  0.79810  0.37700  Biso   1.000  N
  N27      1.0000 0.54287  0.29810  0.12300  Biso   1.000  N
  N28      1.0000 0.04287  0.79810  0.12300  Biso   1.000  N
  N29      1.0000 0.54287  0.70190  0.62300  Biso   1.000  N
  N30      1.0000 0.04287  0.20190  0.62300  Biso   1.000  N
  N31      1.0000 0.45713  0.70190  0.87700  Biso   1.000  N
  N32      1.0000 0.95713  0.20190  0.87700  Biso   1.000  N
  C1       1.0000 0.32470  0.81390  0.87840  Biso   1.000  C
  C2       1.0000 0.82470  0.31390  0.87840  Biso   1.000  C
  C3       1.0000 0.67530  0.81390  0.62160  Biso   1.000  C
  C4       1.0000 0.17530  0.31390  0.62160  Biso   1.000  C
  C5       1.0000 0.67530  0.18610  0.12160  Biso   1.000  C
  C6       1.0000 0.17530  0.68610  0.12160  Biso   1.000  C
  C7       1.0000 0.32470  0.18610  0.37840  Biso   1.000  C
  C8       1.0000 0.82470  0.68610  0.37840  Biso   1.000  C
  H1       1.0000 0.33420  0.87710  0.85020  Biso   1.000  H
  H2       1.0000 0.83420  0.37710  0.85020  Biso   1.000  H
  H3       1.0000 0.66580  0.87710  0.64980  Biso   1.000  H
  H4       1.0000 0.16580  0.37710  0.64980  Biso   1.000  H
  H5       1.0000 0.66580  0.12290  0.14980  Biso   1.000  H
  H6       1.0000 0.16580  0.62290  0.14980  Biso   1.000  H
  H7       1.0000 0.33420  0.12290  0.35020  Biso   1.000  H
  H8       1.0000 0.83420  0.62290  0.35020  Biso   1.000  H
  C9       1.0000 0.32650  0.81260  0.97340  Biso   1.000  C
  C10      1.0000 0.82650  0.31260  0.97340  Biso   1.000  C
  C11      1.0000 0.67350  0.81260  0.52660  Biso   1.000  C
  C12      1.0000 0.17350  0.31260  0.52660  Biso   1.000  C
  C13      1.0000 0.67350  0.18740  0.02660  Biso   1.000  C
  C14      1.0000 0.17350  0.68740  0.02660  Biso   1.000  C
  C15      1.0000 0.32650  0.18740  0.47340  Biso   1.000  C
  C16      1.0000 0.82650  0.68740  0.47340  Biso   1.000  C
  H9       1.0000 0.33650  0.87430  0.00790  Biso   1.000  H
  H10      1.0000 0.83650  0.37430  0.00790  Biso   1.000  H
  H11      1.0000 0.66350  0.87430  0.49210  Biso   1.000  H
  H12      1.0000 0.16350  0.37430  0.49210  Biso   1.000  H
  H13      1.0000 0.66350  0.12570  0.99210  Biso   1.000  H
  H14      1.0000 0.16350  0.62570  0.99210  Biso   1.000  H
  H15      1.0000 0.33650  0.12570  0.50790  Biso   1.000  H
  H16      1.0000 0.83650  0.62570  0.50790  Biso   1.000  H
  C17      1.0000 0.31340  0.71990  0.01550  Biso   1.000  C
  C18      1.0000 0.81340  0.21990  0.01550  Biso   1.000  C
  C19      1.0000 0.68660  0.71990  0.48450  Biso   1.000  C
  C20      1.0000 0.18660  0.21990  0.48450  Biso   1.000  C
  C21      1.0000 0.68660  0.28010  0.98450  Biso   1.000  C
  C22      1.0000 0.18660  0.78010  0.98450  Biso   1.000  C
  C23      1.0000 0.31340  0.28010  0.51550  Biso   1.000  C
  C24      1.0000 0.81340  0.78010  0.51550  Biso   1.000  C
  C25      1.0000 0.29800  0.63020  0.96260  Biso   1.000  C
  C26      1.0000 0.79800  0.13020  0.96260  Biso   1.000  C
  C27      1.0000 0.70200  0.63020  0.53740  Biso   1.000  C
  C28      1.0000 0.20200  0.13020  0.53740  Biso   1.000  C
  C29      1.0000 0.70200  0.36980  0.03740  Biso   1.000  C
  C30      1.0000 0.20200  0.86980  0.03740  Biso   1.000  C
  C31      1.0000 0.29800  0.36980  0.46260  Biso   1.000  C
  C32      1.0000 0.79800  0.86980  0.46260  Biso   1.000  C
  H17      1.0000 0.28850  0.56600  0.98950  Biso   1.000  H
  H18      1.0000 0.78850  0.06600  0.98950  Biso   1.000  H
  H19      1.0000 0.71150  0.56600  0.51050  Biso   1.000  H
  H20      1.0000 0.21150  0.06600  0.51050  Biso   1.000  H
  H21      1.0000 0.71150  0.43400  0.01050  Biso   1.000  H
  H22      1.0000 0.21150  0.93400  0.01050  Biso   1.000  H
  H23      1.0000 0.28850  0.43400  0.48950  Biso   1.000  H
  H24      1.0000 0.78850  0.93400  0.48950  Biso   1.000  H
  C33      1.0000 0.29730  0.63940  0.86970  Biso   1.000  C
  C34      1.0000 0.79730  0.13940  0.86970  Biso   1.000  C
  C35      1.0000 0.70270  0.63940  0.63030  Biso   1.000  C
  C36      1.0000 0.20270  0.13940  0.63030  Biso   1.000  C
  C37      1.0000 0.70270  0.36060  0.13030  Biso   1.000  C
  C38      1.0000 0.20270  0.86060  0.13030  Biso   1.000  C
  C39      1.0000 0.29730  0.36060  0.36970  Biso   1.000  C
  C40      1.0000 0.79730  0.86060  0.36970  Biso   1.000  C
  H25      1.0000 0.28700  0.57870  0.83440  Biso   1.000  H
  H26      1.0000 0.78700  0.07870  0.83440  Biso   1.000  H
  H27      1.0000 0.71300  0.57870  0.66560  Biso   1.000  H
  H28      1.0000 0.21300  0.07870  0.66560  Biso   1.000  H
  H29      1.0000 0.71300  0.42130  0.16560  Biso   1.000  H
  H30      1.0000 0.21300  0.92130  0.16560  Biso   1.000  H
  H31      1.0000 0.28700  0.42130  0.33440  Biso   1.000  H
  H32      1.0000 0.78700  0.92130  0.33440  Biso   1.000  H
  C41      1.0000 0.34950  0.73800  0.16410  Biso   1.000  C
  C42      1.0000 0.84950  0.23800  0.16410  Biso   1.000  C
  C43      1.0000 0.65050  0.73800  0.33590  Biso   1.000  C
  C44      1.0000 0.15050  0.23800  0.33590  Biso   1.000  C
  C45      1.0000 0.65050  0.26200  0.83590  Biso   1.000  C
  C46      1.0000 0.15050  0.76200  0.83590  Biso   1.000  C
  C47      1.0000 0.34950  0.26200  0.66410  Biso   1.000  C
  C48      1.0000 0.84950  0.76200  0.66410  Biso   1.000  C
  H33      1.0000 0.36940  0.76330  0.13390  Biso   1.000  H
  H34      1.0000 0.86940  0.26330  0.13390  Biso   1.000  H
  H35      1.0000 0.63060  0.76330  0.36610  Biso   1.000  H
  H36      1.0000 0.13060  0.26330  0.36610  Biso   1.000  H
  H37      1.0000 0.63060  0.23670  0.86610  Biso   1.000  H
  H38      1.0000 0.13060  0.73670  0.86610  Biso   1.000  H
  H39      1.0000 0.36940  0.23670  0.63390  Biso   1.000  H
  H40      1.0000 0.86940  0.73670  0.63390  Biso   1.000  H
  C49      1.0000 0.35440  0.72640  0.25590  Biso   1.000  C
  C50      1.0000 0.85440  0.22640  0.25590  Biso   1.000  C
  C51      1.0000 0.64560  0.72640  0.24410  Biso   1.000  C
  C52      1.0000 0.14560  0.22640  0.24410  Biso   1.000  C
  C53      1.0000 0.64560  0.27360  0.74410  Biso   1.000  C
  C54      1.0000 0.14560  0.77360  0.74410  Biso   1.000  C
  C55      1.0000 0.35440  0.27360  0.75590  Biso   1.000  C
  C56      1.0000 0.85440  0.77360  0.75590  Biso   1.000  C
  H41      1.0000 0.37760  0.74200  0.28780  Biso   1.000  H
  H42      1.0000 0.87760  0.24200  0.28780  Biso   1.000  H
  H43      1.0000 0.62240  0.74200  0.21220  Biso   1.000  H
  H44      1.0000 0.12240  0.24200  0.21220  Biso   1.000  H
  H45      1.0000 0.62240  0.25800  0.71220  Biso   1.000  H
  H46      1.0000 0.12240  0.75800  0.71220  Biso   1.000  H
  H47      1.0000 0.37760  0.25800  0.78780  Biso   1.000  H
  H48      1.0000 0.87760  0.75800  0.78780  Biso   1.000  H
  C57      1.0000 0.32550  0.69180  0.30450  Biso   1.000  C
  C58      1.0000 0.82550  0.19180  0.30450  Biso   1.000  C
  C59      1.0000 0.67450  0.69180  0.19550  Biso   1.000  C
  C60      1.0000 0.17450  0.19180  0.19550  Biso   1.000  C
  C61      1.0000 0.67450  0.30820  0.69550  Biso   1.000  C
  C62      1.0000 0.17450  0.80820  0.69550  Biso   1.000  C
  C63      1.0000 0.32550  0.30820  0.80450  Biso   1.000  C
  C64      1.0000 0.82550  0.80820  0.80450  Biso   1.000  C
  C65      1.0000 0.29100  0.67240  0.25220  Biso   1.000  C
  C66      1.0000 0.79100  0.17240  0.25220  Biso   1.000  C
  C67      1.0000 0.70900  0.67240  0.24780  Biso   1.000  C
  C68      1.0000 0.20900  0.17240  0.24780  Biso   1.000  C
  C69      1.0000 0.70900  0.32760  0.74780  Biso   1.000  C
  C70      1.0000 0.20900  0.82760  0.74780  Biso   1.000  C
  C71      1.0000 0.29100  0.32760  0.75220  Biso   1.000  C
  C72      1.0000 0.79100  0.82760  0.75220  Biso   1.000  C
  H49      1.0000 0.27040  0.65240  0.28170  Biso   1.000  H
  H50      1.0000 0.77040  0.15240  0.28170  Biso   1.000  H
  H51      1.0000 0.72960  0.65240  0.21830  Biso   1.000  H
  H52      1.0000 0.22960  0.15240  0.21830  Biso   1.000  H
  H53      1.0000 0.72960  0.34760  0.71830  Biso   1.000  H
  H54      1.0000 0.22960  0.84760  0.71830  Biso   1.000  H
  H55      1.0000 0.27040  0.34760  0.78170  Biso   1.000  H
  H56      1.0000 0.77040  0.84760  0.78170  Biso   1.000  H
  C73      1.0000 0.28730  0.68240  0.15980  Biso   1.000  C
  C74      1.0000 0.78730  0.18240  0.15980  Biso   1.000  C
  C75      1.0000 0.71270  0.68240  0.34020  Biso   1.000  C
  C76      1.0000 0.21270  0.18240  0.34020  Biso   1.000  C
  C77      1.0000 0.71270  0.31760  0.84020  Biso   1.000  C
  C78      1.0000 0.21270  0.81760  0.84020  Biso   1.000  C
  C79      1.0000 0.28730  0.31760  0.65980  Biso   1.000  C
  C80      1.0000 0.78730  0.81760  0.65980  Biso   1.000  C
  H57      1.0000 0.26430  0.66750  0.12640  Biso   1.000  H
  H58      1.0000 0.76430  0.16750  0.12640  Biso   1.000  H
  H59      1.0000 0.73570  0.66750  0.37360  Biso   1.000  H
  H60      1.0000 0.23570  0.16750  0.37360  Biso   1.000  H
  H61      1.0000 0.73570  0.33250  0.87360  Biso   1.000  H
  H62      1.0000 0.23570  0.83250  0.87360  Biso   1.000  H
  H63      1.0000 0.26430  0.33250  0.62640  Biso   1.000  H
  H64      1.0000 0.76430  0.83250  0.62640  Biso   1.000  H
  C81      1.0000 0.44040  0.00170  0.29420  Biso   1.000  C
  C82      1.0000 0.94040  0.50170  0.29420  Biso   1.000  C
  C83      1.0000 0.55960  0.00170  0.20580  Biso   1.000  C
  C84      1.0000 0.05960  0.50170  0.20580  Biso   1.000  C
  C85      1.0000 0.55960  0.99830  0.70580  Biso   1.000  C
  C86      1.0000 0.05960  0.49830  0.70580  Biso   1.000  C
  C87      1.0000 0.44040  0.99830  0.79420  Biso   1.000  C
  C88      1.0000 0.94040  0.49830  0.79420  Biso   1.000  C
  H65      1.0000 0.42200  0.96040  0.25870  Biso   1.000  H
  H66      1.0000 0.92200  0.46040  0.25870  Biso   1.000  H
  H67      1.0000 0.57800  0.96040  0.24130  Biso   1.000  H
  H68      1.0000 0.07800  0.46040  0.24130  Biso   1.000  H
  H69      1.0000 0.57800  0.03960  0.74130  Biso   1.000  H
  H70      1.0000 0.07800  0.53960  0.74130  Biso   1.000  H
  H71      1.0000 0.42200  0.03960  0.75870  Biso   1.000  H
  H72      1.0000 0.92200  0.53960  0.75870  Biso   1.000  H
  C89      1.0000 0.43520  0.11770  0.30640  Biso   1.000  C
  C90      1.0000 0.93520  0.61770  0.30640  Biso   1.000  C
  C91      1.0000 0.56480  0.11770  0.19360  Biso   1.000  C
  C92      1.0000 0.06480  0.61770  0.19360  Biso   1.000  C
  C93      1.0000 0.56480  0.88230  0.69360  Biso   1.000  C
  C94      1.0000 0.06480  0.38230  0.69360  Biso   1.000  C
  C95      1.0000 0.43520  0.88230  0.80640  Biso   1.000  C
  C96      1.0000 0.93520  0.38230  0.80640  Biso   1.000  C
  H73      1.0000 0.41400  0.15420  0.27840  Biso   1.000  H
  H74      1.0000 0.91400  0.65420  0.27840  Biso   1.000  H
  H75      1.0000 0.58600  0.15420  0.22160  Biso   1.000  H
  H76      1.0000 0.08600  0.65420  0.22160  Biso   1.000  H
  H77      1.0000 0.58600  0.84580  0.72160  Biso   1.000  H
  H78      1.0000 0.08600  0.34580  0.72160  Biso   1.000  H
  H79      1.0000 0.41400  0.84580  0.77840  Biso   1.000  H
  H80      1.0000 0.91400  0.34580  0.77840  Biso   1.000  H
  C97      1.0000 0.46180  0.17770  0.36020  Biso   1.000  C
  C98      1.0000 0.96180  0.67770  0.36020  Biso   1.000  C
  C99      1.0000 0.53820  0.17770  0.13980  Biso   1.000  C
  C100     1.0000 0.03820  0.67770  0.13980  Biso   1.000  C
  C101     1.0000 0.53820  0.82230  0.63980  Biso   1.000  C
  C102     1.0000 0.03820  0.32230  0.63980  Biso   1.000  C
  C103     1.0000 0.46180  0.82230  0.86020  Biso   1.000  C
  C104     1.0000 0.96180  0.32230  0.86020  Biso   1.000  C
  C105     1.0000 0.49380  0.12400  0.39830  Biso   1.000  C
  C106     1.0000 0.99380  0.62400  0.39830  Biso   1.000  C
  C107     1.0000 0.50620  0.12400  0.10170  Biso   1.000  C
  C108     1.0000 0.00620  0.62400  0.10170  Biso   1.000  C
  C109     1.0000 0.50620  0.87600  0.60170  Biso   1.000  C
  C110     1.0000 0.00620  0.37600  0.60170  Biso   1.000  C
  C111     1.0000 0.49380  0.87600  0.89830  Biso   1.000  C
  C112     1.0000 0.99380  0.37600  0.89830  Biso   1.000  C
  H81      1.0000 0.51260  0.16400  0.43350  Biso   1.000  H
  H82      1.0000 0.01260  0.66400  0.43350  Biso   1.000  H
  H83      1.0000 0.48740  0.16400  0.06650  Biso   1.000  H
  H84      1.0000 0.98740  0.66400  0.06650  Biso   1.000  H
  H85      1.0000 0.48740  0.83600  0.56650  Biso   1.000  H
  H86      1.0000 0.98740  0.33600  0.56650  Biso   1.000  H
  H87      1.0000 0.51260  0.83600  0.93350  Biso   1.000  H
  H88      1.0000 0.01260  0.33600  0.93350  Biso   1.000  H
  C113     1.0000 0.49690  0.00720  0.38190  Biso   1.000  C
  C114     1.0000 0.99690  0.50720  0.38190  Biso   1.000  C
  C115     1.0000 0.50310  0.00720  0.11810  Biso   1.000  C
  C116     1.0000 0.00310  0.50720  0.11810  Biso   1.000  C
  C117     1.0000 0.50310  0.99280  0.61810  Biso   1.000  C
  C118     1.0000 0.00310  0.49280  0.61810  Biso   1.000  C
  C119     1.0000 0.49690  0.99280  0.88190  Biso   1.000  C
  C120     1.0000 0.99690  0.49280  0.88190  Biso   1.000  C
  H89      1.0000 0.51830  0.96970  0.40750  Biso   1.000  H
  H90      1.0000 0.01830  0.46970  0.40750  Biso   1.000  H
  H91      1.0000 0.48170  0.96970  0.09250  Biso   1.000  H
  H92      1.0000 0.98170  0.46970  0.09250  Biso   1.000  H
  H93      1.0000 0.48170  0.03030  0.59250  Biso   1.000  H
  H94      1.0000 0.98170  0.53030  0.59250  Biso   1.000  H
  H95      1.0000 0.51830  0.03030  0.90750  Biso   1.000  H
  H96      1.0000 0.01830  0.53030  0.90750  Biso   1.000  H
  C121     1.0000 0.42470  0.34040  0.40310  Biso   1.000  C
  C122     1.0000 0.92470  0.84040  0.40310  Biso   1.000  C
  C123     1.0000 0.57530  0.34040  0.09690  Biso   1.000  C
  C124     1.0000 0.07530  0.84040  0.09690  Biso   1.000  C
  C125     1.0000 0.57530  0.65960  0.59690  Biso   1.000  C
  C126     1.0000 0.07530  0.15960  0.59690  Biso   1.000  C
  C127     1.0000 0.42470  0.65960  0.90310  Biso   1.000  C
  C128     1.0000 0.92470  0.15960  0.90310  Biso   1.000  C
  H97      1.0000 0.40530  0.29040  0.41100  Biso   1.000  H
  H98      1.0000 0.90530  0.79040  0.41100  Biso   1.000  H
  H99      1.0000 0.59470  0.29040  0.08900  Biso   1.000  H
  H100     1.0000 0.09470  0.79040  0.08900  Biso   1.000  H
  H101     1.0000 0.59470  0.70960  0.58900  Biso   1.000  H
  H102     1.0000 0.09470  0.20960  0.58900  Biso   1.000  H
  H103     1.0000 0.40530  0.70960  0.91100  Biso   1.000  H
  H104     1.0000 0.90530  0.20960  0.91100  Biso   1.000  H
  C129     1.0000 0.42020  0.45270  0.41760  Biso   1.000  C
  C130     1.0000 0.92020  0.95270  0.41760  Biso   1.000  C
  C131     1.0000 0.57980  0.45270  0.08240  Biso   1.000  C
  C132     1.0000 0.07980  0.95270  0.08240  Biso   1.000  C
  C133     1.0000 0.57980  0.54730  0.58240  Biso   1.000  C
  C134     1.0000 0.07980  0.04730  0.58240  Biso   1.000  C
  C135     1.0000 0.42020  0.54730  0.91760  Biso   1.000  C
  C136     1.0000 0.92020  0.04730  0.91760  Biso   1.000  C
  H105     1.0000 0.39760  0.47890  0.43430  Biso   1.000  H
  H106     1.0000 0.89760  0.97890  0.43430  Biso   1.000  H
  H107     1.0000 0.60240  0.47890  0.06570  Biso   1.000  H
  H108     1.0000 0.10240  0.97890  0.06570  Biso   1.000  H
  H109     1.0000 0.60240  0.52110  0.56570  Biso   1.000  H
  H110     1.0000 0.10240  0.02110  0.56570  Biso   1.000  H
  H111     1.0000 0.39760  0.52110  0.93430  Biso   1.000  H
  H112     1.0000 0.89760  0.02110  0.93430  Biso   1.000  H
  C137     1.0000 0.44890  0.53140  0.40800  Biso   1.000  C
  C138     1.0000 0.94890  0.03140  0.40800  Biso   1.000  C
  C139     1.0000 0.55110  0.53140  0.09200  Biso   1.000  C
  C140     1.0000 0.05110  0.03140  0.09200  Biso   1.000  C
  C141     1.0000 0.55110  0.46860  0.59200  Biso   1.000  C
  C142     1.0000 0.05110  0.96860  0.59200  Biso   1.000  C
  C143     1.0000 0.44890  0.46860  0.90800  Biso   1.000  C
  C144     1.0000 0.94890  0.96860  0.90800  Biso   1.000  C
  C145     1.0000 0.48190  0.48460  0.38190  Biso   1.000  C
  C146     1.0000 0.98190  0.98460  0.38190  Biso   1.000  C
  C147     1.0000 0.51810  0.48460  0.11810  Biso   1.000  C
  C148     1.0000 0.01810  0.98460  0.11810  Biso   1.000  C
  C149     1.0000 0.51810  0.51540  0.61810  Biso   1.000  C
  C150     1.0000 0.01810  0.01540  0.61810  Biso   1.000  C
  C151     1.0000 0.48190  0.51540  0.88190  Biso   1.000  C
  C152     1.0000 0.98190  0.01540  0.88190  Biso   1.000  C
  H113     1.0000 0.50160  0.53320  0.37330  Biso   1.000  H
  H114     1.0000 0.00160  0.03320  0.37330  Biso   1.000  H
  H115     1.0000 0.49840  0.53320  0.12670  Biso   1.000  H
  H116     1.0000 0.99840  0.03320  0.12670  Biso   1.000  H
  H117     1.0000 0.49840  0.46680  0.62670  Biso   1.000  H
  H118     1.0000 0.99840  0.96680  0.62670  Biso   1.000  H
  H119     1.0000 0.50160  0.46680  0.87330  Biso   1.000  H
  H120     1.0000 0.00160  0.96680  0.87330  Biso   1.000  H
  C153     1.0000 0.48590  0.37110  0.36880  Biso   1.000  C
  C154     1.0000 0.98590  0.87110  0.36880  Biso   1.000  C
  C155     1.0000 0.51410  0.37110  0.13120  Biso   1.000  C
  C156     1.0000 0.01410  0.87110  0.13120  Biso   1.000  C
  C157     1.0000 0.51410  0.62890  0.63120  Biso   1.000  C
  C158     1.0000 0.01410  0.12890  0.63120  Biso   1.000  C
  C159     1.0000 0.48590  0.62890  0.86880  Biso   1.000  C
  C160     1.0000 0.98590  0.12890  0.86880  Biso   1.000  C
  H121     1.0000 0.50860  0.34270  0.35400  Biso   1.000  H
  H122     1.0000 0.00860  0.84270  0.35400  Biso   1.000  H
  H123     1.0000 0.49140  0.34270  0.14600  Biso   1.000  H
  H124     1.0000 0.99140  0.84270  0.14600  Biso   1.000  H
  H125     1.0000 0.49140  0.65730  0.64600  Biso   1.000  H
  H126     1.0000 0.99140  0.15730  0.64600  Biso   1.000  H
  H127     1.0000 0.50860  0.65730  0.85400  Biso   1.000  H
  H128     1.0000 0.00860  0.15730  0.85400  Biso   1.000  H
