data_image0
_cell_length_a       8.0037
_cell_length_b       10.3851
_cell_length_c       18.407
_cell_angle_alpha    90
_cell_angle_beta     93.33
_cell_angle_gamma    90

_symmetry_space_group_name_H-M    "P 1"
_symmetry_int_tables_number       1

loop_
  _symmetry_equiv_pos_as_xyz
  'x, y, z'

loop_
  _atom_site_label
  _atom_site_occupancy
  _atom_site_fract_x
  _atom_site_fract_y
  _atom_site_fract_z
  _atom_site_thermal_displace_type
  _atom_site_B_iso_or_equiv
  _atom_site_type_symbol
  I1       1.0000 0.93591  0.59124  0.84895  Biso   1.000  I
  I2       1.0000 0.56409  0.59124  0.65105  Biso   1.000  I
  I3       1.0000 0.06409  0.40876  0.15105  Biso   1.000  I
  I4       1.0000 0.43591  0.40876  0.34895  Biso   1.000  I
  I5       1.0000 0.53661  0.27969  0.82560  Biso   1.000  I
  I6       1.0000 0.96339  0.27969  0.67440  Biso   1.000  I
  I7       1.0000 0.46339  0.72031  0.17440  Biso   1.000  I
  I8       1.0000 0.03661  0.72031  0.32560  Biso   1.000  I
  Cu1      1.0000 0.85682  0.35108  0.81070  Biso   1.000  Cu
  Cu2      1.0000 0.64318  0.35108  0.68930  Biso   1.000  Cu
  Cu3      1.0000 0.14318  0.64892  0.18930  Biso   1.000  Cu
  Cu4      1.0000 0.35682  0.64892  0.31070  Biso   1.000  Cu
  Cu5      1.0000 0.61304  0.51900  0.78975  Biso   1.000  Cu
  Cu6      1.0000 0.88696  0.51900  0.71025  Biso   1.000  Cu
  Cu7      1.0000 0.38696  0.48100  0.21025  Biso   1.000  Cu
  Cu8      1.0000 0.11304  0.48100  0.28975  Biso   1.000  Cu
  S1       1.0000 0.28270  0.92783  0.01057  Biso   1.000  S
  S2       1.0000 0.21730  0.92783  0.48943  Biso   1.000  S
  S3       1.0000 0.71730  0.07217  0.98943  Biso   1.000  S
  S4       1.0000 0.78270  0.07217  0.51057  Biso   1.000  S
  N1       1.0000 0.48550  0.64070  0.85150  Biso   1.000  N
  N2       1.0000 0.01450  0.64070  0.64850  Biso   1.000  N
  N3       1.0000 0.51450  0.35930  0.14850  Biso   1.000  N
  N4       1.0000 0.98550  0.35930  0.35150  Biso   1.000  N
  N5       1.0000 0.99910  0.22640  0.87150  Biso   1.000  N
  N6       1.0000 0.50090  0.22640  0.62850  Biso   1.000  N
  N7       1.0000 0.00090  0.77360  0.12850  Biso   1.000  N
  N8       1.0000 0.49910  0.77360  0.37150  Biso   1.000  N
  C1       1.0000 0.42060  0.60450  0.91370  Biso   1.000  C
  C2       1.0000 0.07940  0.60450  0.58630  Biso   1.000  C
  C3       1.0000 0.57940  0.39550  0.08630  Biso   1.000  C
  C4       1.0000 0.92060  0.39550  0.41370  Biso   1.000  C
  H1       1.0000 0.42000  0.51730  0.92520  Biso   1.000  H
  H2       1.0000 0.08000  0.51730  0.57480  Biso   1.000  H
  H3       1.0000 0.58000  0.48270  0.07480  Biso   1.000  H
  H4       1.0000 0.92000  0.48270  0.42520  Biso   1.000  H
  C5       1.0000 0.35460  0.68990  0.96170  Biso   1.000  C
  C6       1.0000 0.14540  0.68990  0.53830  Biso   1.000  C
  C7       1.0000 0.64540  0.31010  0.03830  Biso   1.000  C
  C8       1.0000 0.85460  0.31010  0.46170  Biso   1.000  C
  H5       1.0000 0.30930  0.66030  0.00400  Biso   1.000  H
  H6       1.0000 0.19070  0.66030  0.49600  Biso   1.000  H
  H7       1.0000 0.69070  0.33970  0.99600  Biso   1.000  H
  H8       1.0000 0.80930  0.33970  0.50400  Biso   1.000  H
  C9       1.0000 0.35640  0.81850  0.94640  Biso   1.000  C
  C10      1.0000 0.14360  0.81850  0.55360  Biso   1.000  C
  C11      1.0000 0.64360  0.18150  0.05360  Biso   1.000  C
  C12      1.0000 0.85640  0.18150  0.44640  Biso   1.000  C
  C13      1.0000 0.42620  0.85790  0.88270  Biso   1.000  C
  C14      1.0000 0.07380  0.85790  0.61730  Biso   1.000  C
  C15      1.0000 0.57380  0.14210  0.11730  Biso   1.000  C
  C16      1.0000 0.92620  0.14210  0.38270  Biso   1.000  C
  H9       1.0000 0.43210  0.94490  0.87100  Biso   1.000  H
  H10      1.0000 0.06790  0.94490  0.62900  Biso   1.000  H
  H11      1.0000 0.56790  0.05510  0.12900  Biso   1.000  H
  H12      1.0000 0.93210  0.05510  0.37100  Biso   1.000  H
  C17      1.0000 0.48610  0.76590  0.83740  Biso   1.000  C
  C18      1.0000 0.01390  0.76590  0.66260  Biso   1.000  C
  C19      1.0000 0.51390  0.23410  0.16260  Biso   1.000  C
  C20      1.0000 0.98610  0.23410  0.33740  Biso   1.000  C
  H13      1.0000 0.52970  0.79310  0.79430  Biso   1.000  H
  H14      1.0000 0.97030  0.79310  0.70570  Biso   1.000  H
  H15      1.0000 0.47030  0.20690  0.20570  Biso   1.000  H
  H16      1.0000 0.02970  0.20690  0.29430  Biso   1.000  H
  C21      1.0000 0.17710  0.04230  0.95350  Biso   1.000  C
  C22      1.0000 0.32290  0.04230  0.54650  Biso   1.000  C
  C23      1.0000 0.82290  0.95770  0.04650  Biso   1.000  C
  C24      1.0000 0.67710  0.95770  0.45350  Biso   1.000  C
  C25      1.0000 0.17790  0.16960  0.97480  Biso   1.000  C
  C26      1.0000 0.32210  0.16960  0.52520  Biso   1.000  C
  C27      1.0000 0.82210  0.83040  0.02520  Biso   1.000  C
  C28      1.0000 0.67790  0.83040  0.47480  Biso   1.000  C
  H17      1.0000 0.23910  0.19580  0.01670  Biso   1.000  H
  H18      1.0000 0.26090  0.19580  0.48330  Biso   1.000  H
  H19      1.0000 0.76090  0.80420  0.98330  Biso   1.000  H
  H20      1.0000 0.73910  0.80420  0.51670  Biso   1.000  H
  C29      1.0000 0.08670  0.25690  0.93300  Biso   1.000  C
  C30      1.0000 0.41330  0.25690  0.56700  Biso   1.000  C
  C31      1.0000 0.91330  0.74310  0.06700  Biso   1.000  C
  C32      1.0000 0.58670  0.74310  0.43300  Biso   1.000  C
  H21      1.0000 0.08590  0.34210  0.94840  Biso   1.000  H
  H22      1.0000 0.41410  0.34210  0.55160  Biso   1.000  H
  H23      1.0000 0.91410  0.65790  0.05160  Biso   1.000  H
  H24      1.0000 0.58590  0.65790  0.44840  Biso   1.000  H
  C33      1.0000 0.99660  0.10250  0.85270  Biso   1.000  C
  C34      1.0000 0.50340  0.10250  0.64730  Biso   1.000  C
  C35      1.0000 0.00340  0.89750  0.14730  Biso   1.000  C
  C36      1.0000 0.49660  0.89750  0.35270  Biso   1.000  C
  H25      1.0000 0.93240  0.07810  0.81120  Biso   1.000  H
  H26      1.0000 0.56760  0.07810  0.68880  Biso   1.000  H
  H27      1.0000 0.06760  0.92190  0.18880  Biso   1.000  H
  H28      1.0000 0.43240  0.92190  0.31120  Biso   1.000  H
  C37      1.0000 0.08360  0.00950  0.89120  Biso   1.000  C
  C38      1.0000 0.41640  0.00950  0.60880  Biso   1.000  C
  C39      1.0000 0.91640  0.99050  0.10880  Biso   1.000  C
  C40      1.0000 0.58360  0.99050  0.39120  Biso   1.000  C
  H29      1.0000 0.07960  0.92450  0.87540  Biso   1.000  H
  H30      1.0000 0.42040  0.92450  0.62460  Biso   1.000  H
  H31      1.0000 0.92040  0.07550  0.12460  Biso   1.000  H
  H32      1.0000 0.57960  0.07550  0.37540  Biso   1.000  H
