data_image0
_cell_length_a       9.364
_cell_length_b       10.719
_cell_length_c       11.179
_cell_angle_alpha    76.506
_cell_angle_beta     85.625
_cell_angle_gamma    69.34

_symmetry_space_group_name_H-M    "P 1"
_symmetry_int_tables_number       1

loop_
  _symmetry_equiv_pos_as_xyz
  'x, y, z'

loop_
  _atom_site_label
  _atom_site_occupancy
  _atom_site_fract_x
  _atom_site_fract_y
  _atom_site_fract_z
  _atom_site_thermal_displace_type
  _atom_site_B_iso_or_equiv
  _atom_site_type_symbol
  Cu1      1.0000 0.41368  0.27607  0.76535  Biso   1.000  Cu
  Cu2      1.0000 0.58632  0.72393  0.23465  Biso   1.000  Cu
  Cu3      1.0000 0.10558  0.49418  0.59015  Biso   1.000  Cu
  Cu4      1.0000 0.89442  0.50582  0.40985  Biso   1.000  Cu
  Cu5      1.0000 0.20994  0.18139  0.69162  Biso   1.000  Cu
  Cu6      1.0000 0.79006  0.81861  0.30838  Biso   1.000  Cu
  I1       1.0000 0.50552  0.04667  0.70647  Biso   1.000  I
  I2       1.0000 0.49448  0.95333  0.29353  Biso   1.000  I
  I3       1.0000 0.12050  0.36705  0.83514  Biso   1.000  I
  I4       1.0000 0.87950  0.63295  0.16486  Biso   1.000  I
  I5       1.0000 0.15874  0.31531  0.45281  Biso   1.000  I
  I6       1.0000 0.84126  0.68469  0.54719  Biso   1.000  I
  S1       1.0000 0.20884  0.95459  0.55366  Biso   1.000  S
  S2       1.0000 0.79116  0.04541  0.44634  Biso   1.000  S
  N1       1.0000 0.54740  0.29850  0.89320  Biso   1.000  N
  N2       1.0000 0.45260  0.70150  0.10680  Biso   1.000  N
  N3       1.0000 0.51120  0.51620  0.66170  Biso   1.000  N
  N4       1.0000 0.48880  0.48380  0.33830  Biso   1.000  N
  N5       1.0000 0.41070  0.45810  0.64820  Biso   1.000  N
  N6       1.0000 0.58930  0.54190  0.35180  Biso   1.000  N
  N7       1.0000 0.28890  0.55670  0.59130  Biso   1.000  N
  N8       1.0000 0.71110  0.44330  0.40870  Biso   1.000  N
  N9       1.0000 0.07600  0.06070  0.73780  Biso   1.000  N
  N10      1.0000 0.92400  0.93930  0.26220  Biso   1.000  N
  C1       1.0000 0.53890  0.24130  0.01290  Biso   1.000  C
  C2       1.0000 0.46110  0.75870  0.98710  Biso   1.000  C
  H1       1.0000 0.47990  0.18330  0.03530  Biso   1.000  H
  H2       1.0000 0.52010  0.81670  0.96470  Biso   1.000  H
  C3       1.0000 0.61230  0.26310  0.10500  Biso   1.000  C
  C4       1.0000 0.38770  0.73690  0.89500  Biso   1.000  C
  H3       1.0000 0.60730  0.21760  0.18820  Biso   1.000  H
  H4       1.0000 0.39270  0.78240  0.81180  Biso   1.000  H
  C5       1.0000 0.69290  0.35180  0.07410  Biso   1.000  C
  C6       1.0000 0.30710  0.64820  0.92590  Biso   1.000  C
  H5       1.0000 0.73990  0.37200  0.13600  Biso   1.000  H
  H6       1.0000 0.26010  0.62800  0.86400  Biso   1.000  H
  C7       1.0000 0.70380  0.41060  0.95120  Biso   1.000  C
  C8       1.0000 0.29620  0.58940  0.04880  Biso   1.000  C
  H7       1.0000 0.75960  0.47110  0.92720  Biso   1.000  H
  H8       1.0000 0.24040  0.52890  0.07280  Biso   1.000  H
  C9       1.0000 0.63220  0.38020  0.86380  Biso   1.000  C
  C10      1.0000 0.36780  0.61980  0.13620  Biso   1.000  C
  C11      1.0000 0.65440  0.43140  0.72790  Biso   1.000  C
  C12      1.0000 0.34560  0.56860  0.27210  Biso   1.000  C
  H9       1.0000 0.72290  0.48540  0.71830  Biso   1.000  H
  H10      1.0000 0.27710  0.51460  0.28170  Biso   1.000  H
  H11      1.0000 0.70520  0.35200  0.69020  Biso   1.000  H
  H12      1.0000 0.29480  0.64800  0.30980  Biso   1.000  H
  C13      1.0000 0.45840  0.65060  0.61330  Biso   1.000  C
  C14      1.0000 0.54160  0.34940  0.38670  Biso   1.000  C
  H13      1.0000 0.50860  0.71430  0.61060  Biso   1.000  H
  H14      1.0000 0.49140  0.28570  0.38940  Biso   1.000  H
  C15      1.0000 0.31530  0.67670  0.56810  Biso   1.000  C
  C16      1.0000 0.68470  0.32330  0.43190  Biso   1.000  C
  C17      1.0000 0.20650  0.80830  0.49970  Biso   1.000  C
  C18      1.0000 0.79350  0.19170  0.50030  Biso   1.000  C
  H15      1.0000 0.10200  0.80440  0.50830  Biso   1.000  H
  H16      1.0000 0.89800  0.19560  0.49170  Biso   1.000  H
  H17      1.0000 0.23250  0.82040  0.41120  Biso   1.000  H
  H18      1.0000 0.76750  0.17960  0.58880  Biso   1.000  H
  C19      1.0000 0.08980  0.95640  0.68330  Biso   1.000  C
  C20      1.0000 0.91020  0.04360  0.31670  Biso   1.000  C
  C21      1.0000 0.01290  0.86470  0.72590  Biso   1.000  C
  C22      1.0000 0.98710  0.13530  0.27410  Biso   1.000  C
  H19      1.0000 0.02840  0.78980  0.68880  Biso   1.000  H
  H20      1.0000 0.97160  0.21020  0.31120  Biso   1.000  H
  C23      1.0000 0.91290  0.88520  0.82400  Biso   1.000  C
  C24      1.0000 0.08710  0.11480  0.17600  Biso   1.000  C
  H21      1.0000 0.85920  0.82410  0.85490  Biso   1.000  H
  H22      1.0000 0.14080  0.17590  0.14510  Biso   1.000  H
  C25      1.0000 0.89240  0.99520  0.87610  Biso   1.000  C
  C26      1.0000 0.10760  0.00480  0.12390  Biso   1.000  C
  H23      1.0000 0.82160  0.01310  0.94080  Biso   1.000  H
  H24      1.0000 0.17840  0.98690  0.05920  Biso   1.000  H
  C27      1.0000 0.97730  0.07830  0.83170  Biso   1.000  C
  C28      1.0000 0.02270  0.92170  0.16830  Biso   1.000  C
  H25      1.0000 0.96540  0.15200  0.86960  Biso   1.000  H
  H26      1.0000 0.03460  0.84800  0.13040  Biso   1.000  H
