data_image0
_cell_length_a       9.6153
_cell_length_b       14.644
_cell_length_c       11.579
_cell_angle_alpha    90
_cell_angle_beta     103.514
_cell_angle_gamma    90

_symmetry_space_group_name_H-M    "P 1"
_symmetry_int_tables_number       1

loop_
  _symmetry_equiv_pos_as_xyz
  'x, y, z'

loop_
  _atom_site_label
  _atom_site_occupancy
  _atom_site_fract_x
  _atom_site_fract_y
  _atom_site_fract_z
  _atom_site_thermal_displace_type
  _atom_site_B_iso_or_equiv
  _atom_site_type_symbol
  Cu1      1.0000 0.95984  0.98960  0.10415  Biso   1.000  Cu
  Cu2      1.0000 0.04016  0.48960  0.39585  Biso   1.000  Cu
  Cu3      1.0000 0.04016  0.01040  0.89585  Biso   1.000  Cu
  Cu4      1.0000 0.95984  0.51040  0.60415  Biso   1.000  Cu
  I1       1.0000 0.22162  0.95099  0.08425  Biso   1.000  I
  I2       1.0000 0.77838  0.45099  0.41575  Biso   1.000  I
  I3       1.0000 0.77838  0.04901  0.91575  Biso   1.000  I
  I4       1.0000 0.22162  0.54901  0.58425  Biso   1.000  I
  S1       1.0000 0.56514  0.83901  0.97513  Biso   1.000  S
  S2       1.0000 0.43486  0.33901  0.52487  Biso   1.000  S
  S3       1.0000 0.43486  0.16099  0.02487  Biso   1.000  S
  S4       1.0000 0.56514  0.66099  0.47513  Biso   1.000  S
  N1       1.0000 0.88480  0.88817  0.19702  Biso   1.000  N
  N2       1.0000 0.11520  0.38817  0.30298  Biso   1.000  N
  N3       1.0000 0.11520  0.11183  0.80298  Biso   1.000  N
  N4       1.0000 0.88480  0.61183  0.69702  Biso   1.000  N
  N5       1.0000 0.98060  0.84963  0.28445  Biso   1.000  N
  N6       1.0000 0.01940  0.34963  0.21555  Biso   1.000  N
  N7       1.0000 0.01940  0.15037  0.71555  Biso   1.000  N
  N8       1.0000 0.98060  0.65037  0.78445  Biso   1.000  N
  N9       1.0000 0.90770  0.79522  0.34210  Biso   1.000  N
  N10      1.0000 0.09230  0.29522  0.15790  Biso   1.000  N
  N11      1.0000 0.09230  0.20478  0.65790  Biso   1.000  N
  N12      1.0000 0.90770  0.70478  0.84210  Biso   1.000  N
  N13      1.0000 0.51600  0.70369  0.11870  Biso   1.000  N
  N14      1.0000 0.48400  0.20369  0.38130  Biso   1.000  N
  N15      1.0000 0.48400  0.29631  0.88130  Biso   1.000  N
  N16      1.0000 0.51600  0.79631  0.61870  Biso   1.000  N
  N17      1.0000 0.01540  0.91018  0.76381  Biso   1.000  N
  N18      1.0000 0.98460  0.41018  0.73619  Biso   1.000  N
  N19      1.0000 0.98460  0.08982  0.23619  Biso   1.000  N
  N20      1.0000 0.01540  0.58982  0.26381  Biso   1.000  N
  C1       1.0000 0.76560  0.79861  0.29390  Biso   1.000  C
  C2       1.0000 0.23440  0.29861  0.20610  Biso   1.000  C
  C3       1.0000 0.23440  0.20139  0.70610  Biso   1.000  C
  C4       1.0000 0.76560  0.70139  0.79390  Biso   1.000  C
  H1       1.0000 0.69190  0.76650  0.31890  Biso   1.000  H
  H2       1.0000 0.30810  0.26650  0.18110  Biso   1.000  H
  H3       1.0000 0.30810  0.23350  0.68110  Biso   1.000  H
  H4       1.0000 0.69190  0.73350  0.81890  Biso   1.000  H
  C5       1.0000 0.75120  0.85872  0.20110  Biso   1.000  C
  C6       1.0000 0.24880  0.35872  0.29890  Biso   1.000  C
  C7       1.0000 0.24880  0.14128  0.79890  Biso   1.000  C
  C8       1.0000 0.75120  0.64128  0.70110  Biso   1.000  C
  C9       1.0000 0.61740  0.89312  0.12020  Biso   1.000  C
  C10      1.0000 0.38260  0.39312  0.37980  Biso   1.000  C
  C11      1.0000 0.38260  0.10688  0.87980  Biso   1.000  C
  C12      1.0000 0.61740  0.60688  0.62020  Biso   1.000  C
  H5       1.0000 0.62870  0.95940  0.10820  Biso   1.000  H
  H6       1.0000 0.37130  0.45940  0.39180  Biso   1.000  H
  H7       1.0000 0.37130  0.04060  0.89180  Biso   1.000  H
  H8       1.0000 0.62870  0.54060  0.60820  Biso   1.000  H
  H9       1.0000 0.53810  0.88560  0.16070  Biso   1.000  H
  H10      1.0000 0.46190  0.38560  0.33930  Biso   1.000  H
  H11      1.0000 0.46190  0.11440  0.83930  Biso   1.000  H
  H12      1.0000 0.53810  0.61440  0.66070  Biso   1.000  H
  C13      1.0000 0.48830  0.73495  0.00670  Biso   1.000  C
  C14      1.0000 0.51170  0.23495  0.49330  Biso   1.000  C
  C15      1.0000 0.51170  0.26505  0.99330  Biso   1.000  C
  C16      1.0000 0.48830  0.76505  0.50670  Biso   1.000  C
  C17      1.0000 0.40460  0.68750  0.91070  Biso   1.000  C
  C18      1.0000 0.59540  0.18750  0.58930  Biso   1.000  C
  C19      1.0000 0.59540  0.31250  0.08930  Biso   1.000  C
  C20      1.0000 0.40460  0.81250  0.41070  Biso   1.000  C
  H13      1.0000 0.38650  0.71210  0.83270  Biso   1.000  H
  H14      1.0000 0.61350  0.21210  0.66730  Biso   1.000  H
  H15      1.0000 0.61350  0.28790  0.16730  Biso   1.000  H
  H16      1.0000 0.38650  0.78790  0.33270  Biso   1.000  H
  C21      1.0000 0.34870  0.60410  0.93160  Biso   1.000  C
  C22      1.0000 0.65130  0.10410  0.56840  Biso   1.000  C
  C23      1.0000 0.65130  0.39590  0.06840  Biso   1.000  C
  C24      1.0000 0.34870  0.89590  0.43160  Biso   1.000  C
  H17      1.0000 0.29010  0.57070  0.86820  Biso   1.000  H
  H18      1.0000 0.70990  0.07070  0.63180  Biso   1.000  H
  H19      1.0000 0.70990  0.42930  0.13180  Biso   1.000  H
  H20      1.0000 0.29010  0.92930  0.36820  Biso   1.000  H
  C25      1.0000 0.37900  0.56940  0.04640  Biso   1.000  C
  C26      1.0000 0.62100  0.06940  0.45360  Biso   1.000  C
  C27      1.0000 0.62100  0.43060  0.95360  Biso   1.000  C
  C28      1.0000 0.37900  0.93060  0.54640  Biso   1.000  C
  H21      1.0000 0.34350  0.51150  0.06290  Biso   1.000  H
  H22      1.0000 0.65650  0.01150  0.43710  Biso   1.000  H
  H23      1.0000 0.65650  0.48850  0.93710  Biso   1.000  H
  H24      1.0000 0.34350  0.98850  0.56290  Biso   1.000  H
  C29      1.0000 0.46250  0.62170  0.13620  Biso   1.000  C
  C30      1.0000 0.53750  0.12170  0.36380  Biso   1.000  C
  C31      1.0000 0.53750  0.37830  0.86380  Biso   1.000  C
  C32      1.0000 0.46250  0.87830  0.63620  Biso   1.000  C
  H25      1.0000 0.48300  0.59800  0.21470  Biso   1.000  H
  H26      1.0000 0.51700  0.09800  0.28530  Biso   1.000  H
  H27      1.0000 0.51700  0.40200  0.78530  Biso   1.000  H
  H28      1.0000 0.48300  0.90200  0.71470  Biso   1.000  H
  C33      1.0000 0.98250  0.74681  0.44920  Biso   1.000  C
  C34      1.0000 0.01750  0.24681  0.05080  Biso   1.000  C
  C35      1.0000 0.01750  0.25319  0.55080  Biso   1.000  C
  C36      1.0000 0.98250  0.75319  0.94920  Biso   1.000  C
  H29      1.0000 0.08010  0.73080  0.44190  Biso   1.000  H
  H30      1.0000 0.91990  0.23080  0.05810  Biso   1.000  H
  H31      1.0000 0.91990  0.26920  0.55810  Biso   1.000  H
  H32      1.0000 0.08010  0.76920  0.94190  Biso   1.000  H
  H33      1.0000 0.93110  0.68930  0.45680  Biso   1.000  H
  H34      1.0000 0.06890  0.18930  0.04320  Biso   1.000  H
  H35      1.0000 0.06890  0.31070  0.54320  Biso   1.000  H
  H36      1.0000 0.93110  0.81070  0.95680  Biso   1.000  H
  C37      1.0000 0.88880  0.89755  0.68720  Biso   1.000  C
  C38      1.0000 0.11120  0.39755  0.81280  Biso   1.000  C
  C39      1.0000 0.11120  0.10245  0.31280  Biso   1.000  C
  C40      1.0000 0.88880  0.60245  0.18720  Biso   1.000  C
  H37      1.0000 0.80630  0.92510  0.70390  Biso   1.000  H
  H38      1.0000 0.19370  0.42510  0.79610  Biso   1.000  H
  H39      1.0000 0.19370  0.07490  0.29610  Biso   1.000  H
  H40      1.0000 0.80630  0.57490  0.20390  Biso   1.000  H
  C41      1.0000 0.87340  0.84589  0.58450  Biso   1.000  C
  C42      1.0000 0.12660  0.34589  0.91550  Biso   1.000  C
  C43      1.0000 0.12660  0.15411  0.41550  Biso   1.000  C
  C44      1.0000 0.87340  0.65411  0.08450  Biso   1.000  C
  H41      1.0000 0.78210  0.83930  0.53170  Biso   1.000  H
  H42      1.0000 0.21790  0.33930  0.96830  Biso   1.000  H
  H43      1.0000 0.21790  0.16070  0.46830  Biso   1.000  H
  H44      1.0000 0.78210  0.66070  0.03170  Biso   1.000  H
  C45      1.0000 0.99230  0.80390  0.55960  Biso   1.000  C
  C46      1.0000 0.00770  0.30390  0.94040  Biso   1.000  C
  C47      1.0000 0.00770  0.19610  0.44040  Biso   1.000  C
  C48      1.0000 0.99230  0.69610  0.05960  Biso   1.000  C
  C49      1.0000 0.12240  0.81465  0.64030  Biso   1.000  C
  C50      1.0000 0.87760  0.31465  0.85970  Biso   1.000  C
  C51      1.0000 0.87760  0.18535  0.35970  Biso   1.000  C
  C52      1.0000 0.12240  0.68535  0.14030  Biso   1.000  C
  H45      1.0000 0.20600  0.78570  0.62760  Biso   1.000  H
  H46      1.0000 0.79400  0.28570  0.87240  Biso   1.000  H
  H47      1.0000 0.79400  0.21430  0.37240  Biso   1.000  H
  H48      1.0000 0.20600  0.71430  0.12760  Biso   1.000  H
  C53      1.0000 0.12910  0.86847  0.74040  Biso   1.000  C
  C54      1.0000 0.87090  0.36847  0.75960  Biso   1.000  C
  C55      1.0000 0.87090  0.13153  0.25960  Biso   1.000  C
  C56      1.0000 0.12910  0.63153  0.24040  Biso   1.000  C
  H49      1.0000 0.21900  0.87590  0.79490  Biso   1.000  H
  H50      1.0000 0.78100  0.37590  0.70510  Biso   1.000  H
  H51      1.0000 0.78100  0.12410  0.20510  Biso   1.000  H
  H52      1.0000 0.21900  0.62410  0.29490  Biso   1.000  H
