data_image0
_cell_length_a       4.1947
_cell_length_b       17.6999
_cell_length_c       17.1048
_cell_angle_alpha    90
_cell_angle_beta     96.15
_cell_angle_gamma    90

_symmetry_space_group_name_H-M    "P 1"
_symmetry_int_tables_number       1

loop_
  _symmetry_equiv_pos_as_xyz
  'x, y, z'

loop_
  _atom_site_label
  _atom_site_occupancy
  _atom_site_fract_x
  _atom_site_fract_y
  _atom_site_fract_z
  _atom_site_thermal_displace_type
  _atom_site_B_iso_or_equiv
  _atom_site_type_symbol
  I1       1.0000 0.37739  0.17375  0.17987  Biso   1.000  I
  I2       1.0000 0.62261  0.67375  0.32013  Biso   1.000  I
  I3       1.0000 0.62261  0.82625  0.82013  Biso   1.000  I
  I4       1.0000 0.37739  0.32625  0.67987  Biso   1.000  I
  Cu1      1.0000 0.87830  0.08909  0.12610  Biso   1.000  Cu
  Cu2      1.0000 0.12170  0.58909  0.37390  Biso   1.000  Cu
  Cu3      1.0000 0.12170  0.91091  0.87390  Biso   1.000  Cu
  Cu4      1.0000 0.87830  0.41091  0.62610  Biso   1.000  Cu
  S1       1.0000 0.83020  0.97102  0.17653  Biso   1.000  S
  S2       1.0000 0.16980  0.47102  0.32347  Biso   1.000  S
  S3       1.0000 0.16980  0.02898  0.82347  Biso   1.000  S
  S4       1.0000 0.83020  0.52898  0.67653  Biso   1.000  S
  S5       1.0000 0.99380  0.88503  0.32372  Biso   1.000  S
  S6       1.0000 0.00620  0.38503  0.17628  Biso   1.000  S
  S7       1.0000 0.00620  0.11497  0.67628  Biso   1.000  S
  S8       1.0000 0.99380  0.61497  0.82372  Biso   1.000  S
  S9       1.0000 0.71130  0.08619  0.99366  Biso   1.000  S
  S10      1.0000 0.28870  0.58619  0.50634  Biso   1.000  S
  S11      1.0000 0.28870  0.91381  0.00634  Biso   1.000  S
  S12      1.0000 0.71130  0.41381  0.49366  Biso   1.000  S
  S13      1.0000 0.64900  0.19777  0.86132  Biso   1.000  S
  S14      1.0000 0.35100  0.69777  0.63868  Biso   1.000  S
  S15      1.0000 0.35100  0.80223  0.13868  Biso   1.000  S
  S16      1.0000 0.64900  0.30223  0.36132  Biso   1.000  S
  O1       1.0000 0.59900  0.03470  0.40680  Biso   1.000  O
  O2       1.0000 0.40100  0.53470  0.09320  Biso   1.000  O
  O3       1.0000 0.40100  0.96530  0.59320  Biso   1.000  O
  O4       1.0000 0.59900  0.46530  0.90680  Biso   1.000  O
  O5       1.0000 0.22000  0.33640  0.97900  Biso   1.000  O
  O6       1.0000 0.78000  0.83640  0.52100  Biso   1.000  O
  O7       1.0000 0.78000  0.66360  0.02100  Biso   1.000  O
  O8       1.0000 0.22000  0.16360  0.47900  Biso   1.000  O
  N1       1.0000 0.22800  0.01460  0.30120  Biso   1.000  N
  N2       1.0000 0.77200  0.51460  0.19880  Biso   1.000  N
  N3       1.0000 0.77200  0.98540  0.69880  Biso   1.000  N
  N4       1.0000 0.22800  0.48540  0.80120  Biso   1.000  N
  H1       1.0000 0.28000  0.05300  0.28200  Biso   1.000  H
  H2       1.0000 0.72000  0.55300  0.21800  Biso   1.000  H
  H3       1.0000 0.72000  0.94700  0.71800  Biso   1.000  H
  H4       1.0000 0.28000  0.44700  0.78200  Biso   1.000  H
  N5       1.0000 0.97900  0.22260  0.99280  Biso   1.000  N
  N6       1.0000 0.02100  0.72260  0.50720  Biso   1.000  N
  N7       1.0000 0.02100  0.77740  0.00720  Biso   1.000  N
  N8       1.0000 0.97900  0.27740  0.49280  Biso   1.000  N
  H5       1.0000 0.11000  0.21900  0.03300  Biso   1.000  H
  H6       1.0000 0.89000  0.71900  0.46700  Biso   1.000  H
  H7       1.0000 0.89000  0.78100  0.96700  Biso   1.000  H
  H8       1.0000 0.11000  0.28100  0.53300  Biso   1.000  H
  C1       1.0000 0.02900  0.96390  0.26510  Biso   1.000  C
  C2       1.0000 0.97100  0.46390  0.23490  Biso   1.000  C
  C3       1.0000 0.97100  0.03610  0.73490  Biso   1.000  C
  C4       1.0000 0.02900  0.53610  0.76510  Biso   1.000  C
  C5       1.0000 0.24700  0.92680  0.40580  Biso   1.000  C
  C6       1.0000 0.75300  0.42680  0.09420  Biso   1.000  C
  C7       1.0000 0.75300  0.07320  0.59420  Biso   1.000  C
  C8       1.0000 0.24700  0.57320  0.90580  Biso   1.000  C
  H9       1.0000 0.35900  0.87190  0.40430  Biso   1.000  H
  H10      1.0000 0.64100  0.37190  0.09570  Biso   1.000  H
  H11      1.0000 0.64100  0.12810  0.59570  Biso   1.000  H
  H12      1.0000 0.35900  0.62810  0.90430  Biso   1.000  H
  H13      1.0000 0.08000  0.92680  0.44960  Biso   1.000  H
  H14      1.0000 0.92000  0.42680  0.05040  Biso   1.000  H
  H15      1.0000 0.92000  0.07320  0.55040  Biso   1.000  H
  H16      1.0000 0.08000  0.57320  0.94960  Biso   1.000  H
  C9       1.0000 0.38800  0.99800  0.37450  Biso   1.000  C
  C10      1.0000 0.61200  0.49800  0.12550  Biso   1.000  C
  C11      1.0000 0.61200  0.00200  0.62550  Biso   1.000  C
  C12      1.0000 0.38800  0.50200  0.87450  Biso   1.000  C
  C13      1.0000 0.79100  0.16920  0.95570  Biso   1.000  C
  C14      1.0000 0.20900  0.66920  0.54430  Biso   1.000  C
  C15      1.0000 0.20900  0.83080  0.04430  Biso   1.000  C
  C16      1.0000 0.79100  0.33080  0.45570  Biso   1.000  C
  C17      1.0000 0.85600  0.28740  0.87230  Biso   1.000  C
  C18      1.0000 0.14400  0.78740  0.62770  Biso   1.000  C
  C19      1.0000 0.14400  0.71260  0.12770  Biso   1.000  C
  C20      1.0000 0.85600  0.21260  0.37230  Biso   1.000  C
  H17      1.0000 0.05000  0.29700  0.83670  Biso   1.000  H
  H18      1.0000 0.95000  0.79700  0.66330  Biso   1.000  H
  H19      1.0000 0.95000  0.70300  0.16330  Biso   1.000  H
  H20      1.0000 0.05000  0.20300  0.33670  Biso   1.000  H
  H21      1.0000 0.71100  0.33780  0.87300  Biso   1.000  H
  H22      1.0000 0.28900  0.83780  0.62700  Biso   1.000  H
  H23      1.0000 0.28900  0.66220  0.12700  Biso   1.000  H
  H24      1.0000 0.71100  0.16220  0.37300  Biso   1.000  H
  C21      1.0000 0.04100  0.28710  0.95240  Biso   1.000  C
  C22      1.0000 0.95900  0.78710  0.54760  Biso   1.000  C
  C23      1.0000 0.95900  0.71290  0.04760  Biso   1.000  C
  C24      1.0000 0.04100  0.21290  0.45240  Biso   1.000  C
