data_image0
_cell_length_a       9.3674
_cell_length_b       12.5367
_cell_length_c       13.315
_cell_angle_alpha    89.912
_cell_angle_beta     72.786
_cell_angle_gamma    84.599

_symmetry_space_group_name_H-M    "P 1"
_symmetry_int_tables_number       1

loop_
  _symmetry_equiv_pos_as_xyz
  'x, y, z'

loop_
  _atom_site_label
  _atom_site_occupancy
  _atom_site_fract_x
  _atom_site_fract_y
  _atom_site_fract_z
  _atom_site_thermal_displace_type
  _atom_site_B_iso_or_equiv
  _atom_site_type_symbol
  Cu1      1.0000 0.42937  0.24036  0.32103  Biso   1.000  Cu
  Cu2      1.0000 0.57063  0.75964  0.67897  Biso   1.000  Cu
  N1       1.0000 0.24250  0.25010  0.27419  Biso   1.000  N
  N2       1.0000 0.75750  0.74990  0.72581  Biso   1.000  N
  N3       1.0000 0.07360  0.30988  0.19341  Biso   1.000  N
  N4       1.0000 0.92640  0.69012  0.80659  Biso   1.000  N
  N5       1.0000 0.57160  0.36926  0.28324  Biso   1.000  N
  N6       1.0000 0.42840  0.63074  0.71676  Biso   1.000  N
  N7       1.0000 0.44370  0.20740  0.46810  Biso   1.000  N
  N8       1.0000 0.55630  0.79260  0.53190  Biso   1.000  N
  N9       1.0000 0.37780  0.18863  0.64224  Biso   1.000  N
  N10      1.0000 0.62220  0.81137  0.35776  Biso   1.000  N
  C1       1.0000 0.18110  0.16260  0.24431  Biso   1.000  C
  C2       1.0000 0.81890  0.83740  0.75569  Biso   1.000  C
  C3       1.0000 0.21040  0.05320  0.25700  Biso   1.000  C
  C4       1.0000 0.78960  0.94680  0.74300  Biso   1.000  C
  H1       1.0000 0.27810  0.02790  0.29250  Biso   1.000  H
  H2       1.0000 0.72190  0.97210  0.70750  Biso   1.000  H
  C5       1.0000 0.13600  0.98350  0.21530  Biso   1.000  C
  C6       1.0000 0.86400  0.01650  0.78470  Biso   1.000  C
  H3       1.0000 0.15370  0.91020  0.22310  Biso   1.000  H
  H4       1.0000 0.84630  0.08980  0.77690  Biso   1.000  H
  C7       1.0000 0.03410  0.02110  0.16130  Biso   1.000  C
  C8       1.0000 0.96590  0.97890  0.83870  Biso   1.000  C
  H5       1.0000 0.98720  0.97190  0.13300  Biso   1.000  H
  H6       1.0000 0.01280  0.02810  0.86700  Biso   1.000  H
  C9       1.0000 0.00170  0.12940  0.14920  Biso   1.000  C
  C10      1.0000 0.99830  0.87060  0.85080  Biso   1.000  C
  H7       1.0000 0.93360  0.15450  0.11400  Biso   1.000  H
  H8       1.0000 0.06640  0.84550  0.88600  Biso   1.000  H
  C11      1.0000 0.07620  0.19910  0.19250  Biso   1.000  C
  C12      1.0000 0.92380  0.80090  0.80750  Biso   1.000  C
  C13      1.0000 0.17480  0.33590  0.24260  Biso   1.000  C
  C14      1.0000 0.82520  0.66410  0.75740  Biso   1.000  C
  C15      1.0000 0.20270  0.44740  0.26490  Biso   1.000  C
  C16      1.0000 0.79730  0.55260  0.73510  Biso   1.000  C
  H9       1.0000 0.16130  0.49690  0.22230  Biso   1.000  H
  H10      1.0000 0.83870  0.50310  0.77770  Biso   1.000  H
  H11      1.0000 0.30990  0.45270  0.24630  Biso   1.000  H
  H12      1.0000 0.69010  0.54730  0.75370  Biso   1.000  H
  C17      1.0000 0.13100  0.47750  0.38030  Biso   1.000  C
  C18      1.0000 0.86900  0.52250  0.61970  Biso   1.000  C
  H13      1.0000 0.15510  0.54770  0.39420  Biso   1.000  H
  H14      1.0000 0.84490  0.45230  0.60580  Biso   1.000  H
  H15      1.0000 0.16850  0.42650  0.42250  Biso   1.000  H
  H16      1.0000 0.83150  0.57350  0.57750  Biso   1.000  H
  H17      1.0000 0.02400  0.47750  0.39740  Biso   1.000  H
  H18      1.0000 0.97600  0.52250  0.60260  Biso   1.000  H
  C19      1.0000 0.98400  0.38190  0.14250  Biso   1.000  C
  C20      1.0000 0.01600  0.61810  0.85750  Biso   1.000  C
  H19      1.0000 0.97720  0.34660  0.07950  Biso   1.000  H
  H20      1.0000 0.02280  0.65340  0.92050  Biso   1.000  H
  H21      1.0000 0.03440  0.44610  0.12140  Biso   1.000  H
  H22      1.0000 0.96560  0.55390  0.87860  Biso   1.000  H
  C21      1.0000 0.82760  0.41320  0.21460  Biso   1.000  C
  C22      1.0000 0.17240  0.58680  0.78540  Biso   1.000  C
  C23      1.0000 0.79460  0.50240  0.28130  Biso   1.000  C
  C24      1.0000 0.20540  0.49760  0.71870  Biso   1.000  C
  H23      1.0000 0.86830  0.54750  0.28060  Biso   1.000  H
  H24      1.0000 0.13170  0.45250  0.71940  Biso   1.000  H
  C25      1.0000 0.65020  0.52420  0.34950  Biso   1.000  C
  C26      1.0000 0.34980  0.47580  0.65050  Biso   1.000  C
  H25      1.0000 0.62580  0.58420  0.39450  Biso   1.000  H
  H26      1.0000 0.37420  0.41580  0.60550  Biso   1.000  H
  C27      1.0000 0.54350  0.45530  0.34910  Biso   1.000  C
  C28      1.0000 0.45650  0.54470  0.65090  Biso   1.000  C
  H27      1.0000 0.44810  0.46900  0.39660  Biso   1.000  H
  H28      1.0000 0.55190  0.53100  0.60340  Biso   1.000  H
  C29      1.0000 0.71080  0.35070  0.21690  Biso   1.000  C
  C30      1.0000 0.28920  0.64930  0.78310  Biso   1.000  C
  H29      1.0000 0.73090  0.29270  0.16960  Biso   1.000  H
  H30      1.0000 0.26910  0.70730  0.83040  Biso   1.000  H
  C31      1.0000 0.56920  0.21530  0.50310  Biso   1.000  C
  C32      1.0000 0.43080  0.78470  0.49690  Biso   1.000  C
  C33      1.0000 0.71720  0.23020  0.44680  Biso   1.000  C
  C34      1.0000 0.28280  0.76980  0.55320  Biso   1.000  C
  H31      1.0000 0.74710  0.23420  0.37390  Biso   1.000  H
  H32      1.0000 0.25290  0.76580  0.62610  Biso   1.000  H
  C35      1.0000 0.81750  0.23890  0.50380  Biso   1.000  C
  C36      1.0000 0.18250  0.76110  0.49620  Biso   1.000  C
  H33      1.0000 0.91670  0.24900  0.46840  Biso   1.000  H
  H34      1.0000 0.08330  0.75100  0.53160  Biso   1.000  H
  C37      1.0000 0.77360  0.23270  0.61330  Biso   1.000  C
  C38      1.0000 0.22640  0.76730  0.38670  Biso   1.000  C
  H35      1.0000 0.84370  0.24080  0.64900  Biso   1.000  H
  H36      1.0000 0.15630  0.75920  0.35100  Biso   1.000  H
  C39      1.0000 0.62780  0.21470  0.67040  Biso   1.000  C
  C40      1.0000 0.37220  0.78530  0.32960  Biso   1.000  C
  H37      1.0000 0.59860  0.20930  0.74320  Biso   1.000  H
  H38      1.0000 0.40140  0.79070  0.25680  Biso   1.000  H
  C41      1.0000 0.52860  0.20541  0.61190  Biso   1.000  C
  C42      1.0000 0.47140  0.79459  0.38810  Biso   1.000  C
  C43      1.0000 0.33330  0.19110  0.55320  Biso   1.000  C
  C44      1.0000 0.66670  0.80890  0.44680  Biso   1.000  C
  C45      1.0000 0.17910  0.17290  0.55210  Biso   1.000  C
  C46      1.0000 0.82090  0.82710  0.44790  Biso   1.000  C
  H39      1.0000 0.16140  0.20330  0.48930  Biso   1.000  H
  H40      1.0000 0.83860  0.79670  0.51070  Biso   1.000  H
  H41      1.0000 0.10650  0.20950  0.61270  Biso   1.000  H
  H42      1.0000 0.89350  0.79050  0.38730  Biso   1.000  H
  C47      1.0000 0.15660  0.05420  0.55430  Biso   1.000  C
  C48      1.0000 0.84340  0.94580  0.44570  Biso   1.000  C
  H43      1.0000 0.05740  0.04540  0.55090  Biso   1.000  H
  H44      1.0000 0.94260  0.95460  0.44910  Biso   1.000  H
  H45      1.0000 0.16870  0.02480  0.61820  Biso   1.000  H
  H46      1.0000 0.83130  0.97520  0.38180  Biso   1.000  H
  H47      1.0000 0.22940  0.01760  0.49510  Biso   1.000  H
  H48      1.0000 0.77060  0.98240  0.50490  Biso   1.000  H
  C49      1.0000 0.28790  0.17410  0.75030  Biso   1.000  C
  C50      1.0000 0.71210  0.82590  0.24970  Biso   1.000  C
  H49      1.0000 0.18350  0.17390  0.75250  Biso   1.000  H
  H50      1.0000 0.81650  0.82610  0.24750  Biso   1.000  H
  H51      1.0000 0.29500  0.23450  0.79340  Biso   1.000  H
  H52      1.0000 0.70500  0.76550  0.20660  Biso   1.000  H
  C51      1.0000 0.33570  0.07200  0.79680  Biso   1.000  C
  C52      1.0000 0.66430  0.92800  0.20320  Biso   1.000  C
  C53      1.0000 0.31250  0.06680  0.90450  Biso   1.000  C
  C54      1.0000 0.68750  0.93320  0.09550  Biso   1.000  C
  H53      1.0000 0.27030  0.12670  0.94800  Biso   1.000  H
  H54      1.0000 0.72970  0.87330  0.05200  Biso   1.000  H
  C55      1.0000 0.35280  0.97170  0.94630  Biso   1.000  C
  C56      1.0000 0.64720  0.02830  0.05370  Biso   1.000  C
  H55      1.0000 0.33780  0.96660  0.01830  Biso   1.000  H
  H56      1.0000 0.66220  0.03340  0.98170  Biso   1.000  H
  C57      1.0000 0.41540  0.88470  0.88000  Biso   1.000  C
  C58      1.0000 0.58460  0.11530  0.12000  Biso   1.000  C
  H57      1.0000 0.44340  0.82140  0.90880  Biso   1.000  H
  H58      1.0000 0.55660  0.17860  0.09120  Biso   1.000  H
  N11      1.0000 0.43810  0.88693  0.77614  Biso   1.000  N
  N12      1.0000 0.56190  0.11307  0.22386  Biso   1.000  N
  C59      1.0000 0.39790  0.97970  0.73583  Biso   1.000  C
  C60      1.0000 0.60210  0.02030  0.26417  Biso   1.000  C
  H59      1.0000 0.41250  0.98210  0.66370  Biso   1.000  H
  H60      1.0000 0.58750  0.01790  0.33630  Biso   1.000  H
  N13      1.0000 0.65710  0.70190  0.99120  Biso   1.000  N
  N14      1.0000 0.34290  0.29810  0.00880  Biso   1.000  N
  C61      1.0000 0.60530  0.62340  0.03750  Biso   1.000  C
  C62      1.0000 0.39470  0.37660  0.96250  Biso   1.000  C
  C63      1.0000 0.51850  0.53980  0.09930  Biso   1.000  C
  C64      1.0000 0.48150  0.46020  0.90070  Biso   1.000  C
  H61      1.0000 0.49360  0.55760  0.17290  Biso   1.000  H
  H62      1.0000 0.50640  0.44240  0.82710  Biso   1.000  H
  H63      1.0000 0.57770  0.47180  0.08460  Biso   1.000  H
  H64      1.0000 0.42230  0.52820  0.91540  Biso   1.000  H
  H65      1.0000 0.42790  0.53600  0.08020  Biso   1.000  H
  H66      1.0000 0.57210  0.46400  0.91980  Biso   1.000  H
  B1       1.0000 0.13340  0.70040  0.10880  Biso   1.000  B
  B2       1.0000 0.86660  0.29960  0.89120  Biso   1.000  B
  F1       1.0000 0.26920  0.73370  0.10870  Biso   1.000  F
  F2       1.0000 0.73080  0.26630  0.89130  Biso   1.000  F
  F3       1.0000 0.05650  0.77528  0.06303  Biso   1.000  F
  F4       1.0000 0.94350  0.22472  0.93697  Biso   1.000  F
  F5       1.0000 0.04820  0.69078  0.21312  Biso   1.000  F
  F6       1.0000 0.95180  0.30922  0.78688  Biso   1.000  F
  F7       1.0000 0.15480  0.60215  0.05601  Biso   1.000  F
  F8       1.0000 0.84520  0.39785  0.94399  Biso   1.000  F
