data_image0
_cell_length_a       24.117
_cell_length_b       7.498
_cell_length_c       6.514
_cell_angle_alpha    90
_cell_angle_beta     90
_cell_angle_gamma    95.91

_symmetry_space_group_name_H-M    "P 1"
_symmetry_int_tables_number       1

loop_
  _symmetry_equiv_pos_as_xyz
  'x, y, z'

loop_
  _atom_site_label
  _atom_site_occupancy
  _atom_site_fract_x
  _atom_site_fract_y
  _atom_site_fract_z
  _atom_site_thermal_displace_type
  _atom_site_B_iso_or_equiv
  _atom_site_type_symbol
  Cu1      1.0000 0.06571  0.49540  0.87440  Biso   1.000  Cu
  Cu2      1.0000 0.43429  0.50460  0.37440  Biso   1.000  Cu
  Cu3      1.0000 0.93429  0.50460  0.12560  Biso   1.000  Cu
  Cu4      1.0000 0.56571  0.49540  0.62560  Biso   1.000  Cu
  Cu5      1.0000 0.01718  0.74590  0.43010  Biso   1.000  Cu
  Cu6      1.0000 0.48282  0.25410  0.93010  Biso   1.000  Cu
  Cu7      1.0000 0.98282  0.25410  0.56990  Biso   1.000  Cu
  Cu8      1.0000 0.51718  0.74590  0.06990  Biso   1.000  Cu
  Cl1      1.0000 0.93544  0.77800  0.27070  Biso   1.000  Cl
  Cl2      1.0000 0.56456  0.22200  0.77070  Biso   1.000  Cl
  Cl3      1.0000 0.06456  0.22200  0.72930  Biso   1.000  Cl
  Cl4      1.0000 0.43544  0.77800  0.22930  Biso   1.000  Cl
  Cl5      1.0000 0.99019  0.61690  0.74160  Biso   1.000  Cl
  Cl6      1.0000 0.50981  0.38310  0.24160  Biso   1.000  Cl
  Cl7      1.0000 0.00981  0.38310  0.25840  Biso   1.000  Cl
  Cl8      1.0000 0.49019  0.61690  0.75840  Biso   1.000  Cl
  C1       1.0000 0.10040  0.82000  0.45850  Biso   1.000  C
  C2       1.0000 0.39960  0.18000  0.95850  Biso   1.000  C
  C3       1.0000 0.89960  0.18000  0.54150  Biso   1.000  C
  C4       1.0000 0.60040  0.82000  0.04150  Biso   1.000  C
  C5       1.0000 0.08300  0.90950  0.29460  Biso   1.000  C
  C6       1.0000 0.41700  0.09050  0.79460  Biso   1.000  C
  C7       1.0000 0.91700  0.09050  0.70540  Biso   1.000  C
  C8       1.0000 0.58300  0.90950  0.20540  Biso   1.000  C
  C9       1.0000 0.09250  0.86930  0.07070  Biso   1.000  C
  C10      1.0000 0.40750  0.13070  0.57070  Biso   1.000  C
  C11      1.0000 0.90750  0.13070  0.92930  Biso   1.000  C
  C12      1.0000 0.59250  0.86930  0.42930  Biso   1.000  C
  C13      1.0000 0.11070  0.69170  0.03490  Biso   1.000  C
  C14      1.0000 0.38930  0.30830  0.53490  Biso   1.000  C
  C15      1.0000 0.88930  0.30830  0.96510  Biso   1.000  C
  C16      1.0000 0.61070  0.69170  0.46510  Biso   1.000  C
  C17      1.0000 0.13700  0.55970  0.03780  Biso   1.000  C
  C18      1.0000 0.36300  0.44030  0.53780  Biso   1.000  C
  C19      1.0000 0.86300  0.44030  0.96220  Biso   1.000  C
  C20      1.0000 0.63700  0.55970  0.46220  Biso   1.000  C
  C21      1.0000 0.17380  0.42390  0.08090  Biso   1.000  C
  C22      1.0000 0.32620  0.57610  0.58090  Biso   1.000  C
  C23      1.0000 0.82620  0.57610  0.91910  Biso   1.000  C
  C24      1.0000 0.67380  0.42390  0.41910  Biso   1.000  C
  C25      1.0000 0.17040  0.33620  0.26860  Biso   1.000  C
  C26      1.0000 0.32960  0.66380  0.76860  Biso   1.000  C
  C27      1.0000 0.82960  0.66380  0.73140  Biso   1.000  C
  C28      1.0000 0.67040  0.33620  0.23140  Biso   1.000  C
  C29      1.0000 0.20820  0.21180  0.31700  Biso   1.000  C
  C30      1.0000 0.29180  0.78820  0.81700  Biso   1.000  C
  C31      1.0000 0.79180  0.78820  0.68300  Biso   1.000  C
  C32      1.0000 0.70820  0.21180  0.18300  Biso   1.000  C
  C33      1.0000 0.24630  0.17210  0.17300  Biso   1.000  C
  C34      1.0000 0.25370  0.82790  0.67300  Biso   1.000  C
  C35      1.0000 0.75370  0.82790  0.82700  Biso   1.000  C
  C36      1.0000 0.74630  0.17210  0.32700  Biso   1.000  C
  C37      1.0000 0.24780  0.25620  0.98600  Biso   1.000  C
  C38      1.0000 0.25220  0.74380  0.48600  Biso   1.000  C
  C39      1.0000 0.75220  0.74380  0.01400  Biso   1.000  C
  C40      1.0000 0.74780  0.25620  0.51400  Biso   1.000  C
  C41      1.0000 0.21190  0.37530  0.93960  Biso   1.000  C
  C42      1.0000 0.28810  0.62470  0.43960  Biso   1.000  C
  C43      1.0000 0.78810  0.62470  0.06040  Biso   1.000  C
  C44      1.0000 0.71190  0.37530  0.56040  Biso   1.000  C
  H1       1.0000 0.12400  0.71200  0.45100  Biso   1.000  H
  H2       1.0000 0.37600  0.28800  0.95100  Biso   1.000  H
  H3       1.0000 0.87600  0.28800  0.54900  Biso   1.000  H
  H4       1.0000 0.62400  0.71200  0.04900  Biso   1.000  H
  H5       1.0000 0.10500  0.87100  0.59400  Biso   1.000  H
  H6       1.0000 0.39500  0.12900  0.09400  Biso   1.000  H
  H7       1.0000 0.89500  0.12900  0.40600  Biso   1.000  H
  H8       1.0000 0.60500  0.87100  0.90600  Biso   1.000  H
  H9       1.0000 0.07200  0.01200  0.32400  Biso   1.000  H
  H10      1.0000 0.42800  0.98800  0.82400  Biso   1.000  H
  H11      1.0000 0.92800  0.98800  0.67600  Biso   1.000  H
  H12      1.0000 0.57200  0.01200  0.17600  Biso   1.000  H
  H13      1.0000 0.05800  0.88600  0.98900  Biso   1.000  H
  H14      1.0000 0.44200  0.11400  0.48900  Biso   1.000  H
  H15      1.0000 0.94200  0.11400  0.01100  Biso   1.000  H
  H16      1.0000 0.55800  0.88600  0.51100  Biso   1.000  H
  H17      1.0000 0.12300  0.97200  0.00300  Biso   1.000  H
  H18      1.0000 0.37700  0.02800  0.50300  Biso   1.000  H
  H19      1.0000 0.87700  0.02800  0.99700  Biso   1.000  H
  H20      1.0000 0.62300  0.97200  0.49700  Biso   1.000  H
  H21      1.0000 0.15000  0.38000  0.35600  Biso   1.000  H
  H22      1.0000 0.35000  0.62000  0.85600  Biso   1.000  H
  H23      1.0000 0.85000  0.62000  0.64400  Biso   1.000  H
  H24      1.0000 0.65000  0.38000  0.14400  Biso   1.000  H
  H25      1.0000 0.20300  0.15300  0.45500  Biso   1.000  H
  H26      1.0000 0.29700  0.84700  0.95500  Biso   1.000  H
  H27      1.0000 0.79700  0.84700  0.54500  Biso   1.000  H
  H28      1.0000 0.70300  0.15300  0.04500  Biso   1.000  H
  H29      1.0000 0.27100  0.10100  0.16500  Biso   1.000  H
  H30      1.0000 0.22900  0.89900  0.66500  Biso   1.000  H
  H31      1.0000 0.72900  0.89900  0.83500  Biso   1.000  H
  H32      1.0000 0.77100  0.10100  0.33500  Biso   1.000  H
  H33      1.0000 0.26800  0.23800  0.91900  Biso   1.000  H
  H34      1.0000 0.23200  0.76200  0.41900  Biso   1.000  H
  H35      1.0000 0.73200  0.76200  0.08100  Biso   1.000  H
  H36      1.0000 0.76800  0.23800  0.58100  Biso   1.000  H
  H37      1.0000 0.21200  0.41400  0.82400  Biso   1.000  H
  H38      1.0000 0.28800  0.58600  0.32400  Biso   1.000  H
  H39      1.0000 0.78800  0.58600  0.17600  Biso   1.000  H
  H40      1.0000 0.71200  0.41400  0.67600  Biso   1.000  H
