data_image0
_cell_length_a       30.283
_cell_length_b       4.2083
_cell_length_c       18.833
_cell_angle_alpha    90
_cell_angle_beta     126.984
_cell_angle_gamma    90

_symmetry_space_group_name_H-M    "P 1"
_symmetry_int_tables_number       1

loop_
  _symmetry_equiv_pos_as_xyz
  'x, y, z'

loop_
  _atom_site_label
  _atom_site_occupancy
  _atom_site_fract_x
  _atom_site_fract_y
  _atom_site_fract_z
  _atom_site_thermal_displace_type
  _atom_site_B_iso_or_equiv
  _atom_site_type_symbol
  Cu1      1.0000 0.24114  0.22450  0.69260  Biso   1.000  Cu
  Cu2      1.0000 0.74114  0.72450  0.69260  Biso   1.000  Cu
  Cu3      1.0000 0.75886  0.22450  0.80740  Biso   1.000  Cu
  Cu4      1.0000 0.25886  0.72450  0.80740  Biso   1.000  Cu
  Cu5      1.0000 0.75886  0.77550  0.30740  Biso   1.000  Cu
  Cu6      1.0000 0.25886  0.27550  0.30740  Biso   1.000  Cu
  Cu7      1.0000 0.24114  0.77550  0.19260  Biso   1.000  Cu
  Cu8      1.0000 0.74114  0.27550  0.19260  Biso   1.000  Cu
  I1       1.0000 0.19355  0.24256  0.77251  Biso   1.000  I
  I2       1.0000 0.69355  0.74256  0.77251  Biso   1.000  I
  I3       1.0000 0.80645  0.24256  0.72749  Biso   1.000  I
  I4       1.0000 0.30645  0.74256  0.72749  Biso   1.000  I
  I5       1.0000 0.80645  0.75744  0.22749  Biso   1.000  I
  I6       1.0000 0.30645  0.25744  0.22749  Biso   1.000  I
  I7       1.0000 0.19355  0.75744  0.27251  Biso   1.000  I
  I8       1.0000 0.69355  0.25744  0.27251  Biso   1.000  I
  S1       1.0000 0.06029  0.54910  0.26600  Biso   1.000  S
  S2       1.0000 0.56029  0.04910  0.26600  Biso   1.000  S
  S3       1.0000 0.93971  0.54910  0.23400  Biso   1.000  S
  S4       1.0000 0.43971  0.04910  0.23400  Biso   1.000  S
  S5       1.0000 0.93971  0.45090  0.73400  Biso   1.000  S
  S6       1.0000 0.43971  0.95090  0.73400  Biso   1.000  S
  S7       1.0000 0.06029  0.45090  0.76600  Biso   1.000  S
  S8       1.0000 0.56029  0.95090  0.76600  Biso   1.000  S
  S9       1.0000 0.00000  0.83100  0.25000  Biso   1.000  S
  S10      1.0000 0.50000  0.33100  0.25000  Biso   1.000  S
  S11      1.0000 1.00000  0.16900  0.75000  Biso   1.000  S
  S12      1.0000 0.50000  0.66900  0.75000  Biso   1.000  S
  N1       1.0000 0.18070  0.28630  0.55950  Biso   1.000  N
  N2       1.0000 0.68070  0.78630  0.55950  Biso   1.000  N
  N3       1.0000 0.81930  0.28630  0.94050  Biso   1.000  N
  N4       1.0000 0.31930  0.78630  0.94050  Biso   1.000  N
  N5       1.0000 0.81930  0.71370  0.44050  Biso   1.000  N
  N6       1.0000 0.31930  0.21370  0.44050  Biso   1.000  N
  N7       1.0000 0.18070  0.71370  0.05950  Biso   1.000  N
  N8       1.0000 0.68070  0.21370  0.05950  Biso   1.000  N
  C1       1.0000 0.18700  0.19300  0.49880  Biso   1.000  C
  C2       1.0000 0.68700  0.69300  0.49880  Biso   1.000  C
  C3       1.0000 0.81300  0.19300  0.00120  Biso   1.000  C
  C4       1.0000 0.31300  0.69300  0.00120  Biso   1.000  C
  C5       1.0000 0.81300  0.80700  0.50120  Biso   1.000  C
  C6       1.0000 0.31300  0.30700  0.50120  Biso   1.000  C
  C7       1.0000 0.18700  0.80700  0.99880  Biso   1.000  C
  C8       1.0000 0.68700  0.30700  0.99880  Biso   1.000  C
  H1       1.0000 0.21790  0.07150  0.51740  Biso   1.000  H
  H2       1.0000 0.71790  0.57150  0.51740  Biso   1.000  H
  H3       1.0000 0.78210  0.07150  0.98260  Biso   1.000  H
  H4       1.0000 0.28210  0.57150  0.98260  Biso   1.000  H
  H5       1.0000 0.78210  0.92850  0.48260  Biso   1.000  H
  H6       1.0000 0.28210  0.42850  0.48260  Biso   1.000  H
  H7       1.0000 0.21790  0.92850  0.01740  Biso   1.000  H
  H8       1.0000 0.71790  0.42850  0.01740  Biso   1.000  H
  C9       1.0000 0.14910  0.26730  0.40710  Biso   1.000  C
  C10      1.0000 0.64910  0.76730  0.40710  Biso   1.000  C
  C11      1.0000 0.85090  0.26730  0.09290  Biso   1.000  C
  C12      1.0000 0.35090  0.76730  0.09290  Biso   1.000  C
  C13      1.0000 0.85090  0.73270  0.59290  Biso   1.000  C
  C14      1.0000 0.35090  0.23270  0.59290  Biso   1.000  C
  C15      1.0000 0.14910  0.73270  0.90710  Biso   1.000  C
  C16      1.0000 0.64910  0.23270  0.90710  Biso   1.000  C
  H9       1.0000 0.15450  0.19110  0.36650  Biso   1.000  H
  H10      1.0000 0.65450  0.69110  0.36650  Biso   1.000  H
  H11      1.0000 0.84550  0.19110  0.13350  Biso   1.000  H
  H12      1.0000 0.34550  0.69110  0.13350  Biso   1.000  H
  H13      1.0000 0.84550  0.80890  0.63350  Biso   1.000  H
  H14      1.0000 0.34550  0.30890  0.63350  Biso   1.000  H
  H15      1.0000 0.15450  0.80890  0.86650  Biso   1.000  H
  H16      1.0000 0.65450  0.30890  0.86650  Biso   1.000  H
  C17      1.0000 0.10500  0.45190  0.38020  Biso   1.000  C
  C18      1.0000 0.60500  0.95190  0.38020  Biso   1.000  C
  C19      1.0000 0.89500  0.45190  0.11980  Biso   1.000  C
  C20      1.0000 0.39500  0.95190  0.11980  Biso   1.000  C
  C21      1.0000 0.89500  0.54810  0.61980  Biso   1.000  C
  C22      1.0000 0.39500  0.04810  0.61980  Biso   1.000  C
  C23      1.0000 0.10500  0.54810  0.88020  Biso   1.000  C
  C24      1.0000 0.60500  0.04810  0.88020  Biso   1.000  C
  C25      1.0000 0.09740  0.54900  0.44340  Biso   1.000  C
  C26      1.0000 0.59740  0.04900  0.44340  Biso   1.000  C
  C27      1.0000 0.90260  0.54900  0.05660  Biso   1.000  C
  C28      1.0000 0.40260  0.04900  0.05660  Biso   1.000  C
  C29      1.0000 0.90260  0.45100  0.55660  Biso   1.000  C
  C30      1.0000 0.40260  0.95100  0.55660  Biso   1.000  C
  C31      1.0000 0.09740  0.45100  0.94340  Biso   1.000  C
  C32      1.0000 0.59740  0.95100  0.94340  Biso   1.000  C
  H17      1.0000 0.06680  0.66960  0.42680  Biso   1.000  H
  H18      1.0000 0.56680  0.16960  0.42680  Biso   1.000  H
  H19      1.0000 0.93320  0.66960  0.07320  Biso   1.000  H
  H20      1.0000 0.43320  0.16960  0.07320  Biso   1.000  H
  H21      1.0000 0.93320  0.33040  0.57320  Biso   1.000  H
  H22      1.0000 0.43320  0.83040  0.57320  Biso   1.000  H
  H23      1.0000 0.06680  0.33040  0.92680  Biso   1.000  H
  H24      1.0000 0.56680  0.83040  0.92680  Biso   1.000  H
  C33      1.0000 0.13670  0.46100  0.53140  Biso   1.000  C
  C34      1.0000 0.63670  0.96100  0.53140  Biso   1.000  C
  C35      1.0000 0.86330  0.46100  0.96860  Biso   1.000  C
  C36      1.0000 0.36330  0.96100  0.96860  Biso   1.000  C
  C37      1.0000 0.86330  0.53900  0.46860  Biso   1.000  C
  C38      1.0000 0.36330  0.03900  0.46860  Biso   1.000  C
  C39      1.0000 0.13670  0.53900  0.03140  Biso   1.000  C
  C40      1.0000 0.63670  0.03900  0.03140  Biso   1.000  C
  H25      1.0000 0.13180  0.52870  0.57310  Biso   1.000  H
  H26      1.0000 0.63180  0.02870  0.57310  Biso   1.000  H
  H27      1.0000 0.86820  0.52870  0.92690  Biso   1.000  H
  H28      1.0000 0.36820  0.02870  0.92690  Biso   1.000  H
  H29      1.0000 0.86820  0.47130  0.42690  Biso   1.000  H
  H30      1.0000 0.36820  0.97130  0.42690  Biso   1.000  H
  H31      1.0000 0.13180  0.47130  0.07310  Biso   1.000  H
  H32      1.0000 0.63180  0.97130  0.07310  Biso   1.000  H
