data_image0
_cell_length_a       9.354
_cell_length_b       13.01
_cell_length_c       9.7
_cell_angle_alpha    90
_cell_angle_beta     101.973
_cell_angle_gamma    90

_symmetry_space_group_name_H-M    "P 1"
_symmetry_int_tables_number       1

loop_
  _symmetry_equiv_pos_as_xyz
  'x, y, z'

loop_
  _atom_site_label
  _atom_site_occupancy
  _atom_site_fract_x
  _atom_site_fract_y
  _atom_site_fract_z
  _atom_site_thermal_displace_type
  _atom_site_B_iso_or_equiv
  _atom_site_type_symbol
  Cu1      1.0000 0.98591  0.06526  0.11500  Biso   1.000  Cu
  Cu2      1.0000 0.01409  0.56526  0.38500  Biso   1.000  Cu
  Cu3      1.0000 0.01409  0.93474  0.88500  Biso   1.000  Cu
  Cu4      1.0000 0.98591  0.43474  0.61500  Biso   1.000  Cu
  Br1      1.0000 0.86559  0.89478  0.06384  Biso   1.000  Br
  Br2      1.0000 0.13441  0.39478  0.43616  Biso   1.000  Br
  Br3      1.0000 0.13441  0.10522  0.93616  Biso   1.000  Br
  Br4      1.0000 0.86559  0.60522  0.56384  Biso   1.000  Br
  S1       1.0000 0.45339  0.36859  0.22293  Biso   1.000  S
  S2       1.0000 0.54661  0.86859  0.27707  Biso   1.000  S
  S3       1.0000 0.54661  0.63141  0.77707  Biso   1.000  S
  S4       1.0000 0.45339  0.13141  0.72293  Biso   1.000  S
  N1       1.0000 0.81600  0.16170  0.13130  Biso   1.000  N
  N2       1.0000 0.18400  0.66170  0.36870  Biso   1.000  N
  N3       1.0000 0.18400  0.83830  0.86870  Biso   1.000  N
  N4       1.0000 0.81600  0.33830  0.63130  Biso   1.000  N
  N5       1.0000 0.13380  0.41440  0.80310  Biso   1.000  N
  N6       1.0000 0.86620  0.91440  0.69690  Biso   1.000  N
  N7       1.0000 0.86620  0.58560  0.19690  Biso   1.000  N
  N8       1.0000 0.13380  0.08560  0.30310  Biso   1.000  N
  C1       1.0000 0.84380  0.24980  0.20380  Biso   1.000  C
  C2       1.0000 0.15620  0.74980  0.29620  Biso   1.000  C
  C3       1.0000 0.15620  0.75020  0.79620  Biso   1.000  C
  C4       1.0000 0.84380  0.25020  0.70380  Biso   1.000  C
  H1       1.0000 0.94080  0.26800  0.23790  Biso   1.000  H
  H2       1.0000 0.05920  0.76800  0.26210  Biso   1.000  H
  H3       1.0000 0.05920  0.73200  0.76210  Biso   1.000  H
  H4       1.0000 0.94080  0.23200  0.73790  Biso   1.000  H
  C5       1.0000 0.73690  0.31450  0.23030  Biso   1.000  C
  C6       1.0000 0.26310  0.81450  0.26970  Biso   1.000  C
  C7       1.0000 0.26310  0.68550  0.76970  Biso   1.000  C
  C8       1.0000 0.73690  0.18550  0.73030  Biso   1.000  C
  H5       1.0000 0.76170  0.37430  0.28230  Biso   1.000  H
  H6       1.0000 0.23830  0.87430  0.21770  Biso   1.000  H
  H7       1.0000 0.23830  0.62570  0.71770  Biso   1.000  H
  H8       1.0000 0.76170  0.12570  0.78230  Biso   1.000  H
  C9       1.0000 0.59270  0.28980  0.17910  Biso   1.000  C
  C10      1.0000 0.40730  0.78980  0.32090  Biso   1.000  C
  C11      1.0000 0.40730  0.71020  0.82090  Biso   1.000  C
  C12      1.0000 0.59270  0.21020  0.67910  Biso   1.000  C
  C13      1.0000 0.56090  0.19910  0.10420  Biso   1.000  C
  C14      1.0000 0.43910  0.69910  0.39580  Biso   1.000  C
  C15      1.0000 0.43910  0.80090  0.89580  Biso   1.000  C
  C16      1.0000 0.56090  0.30090  0.60420  Biso   1.000  C
  H9       1.0000 0.46460  0.17990  0.06850  Biso   1.000  H
  H10      1.0000 0.53540  0.67990  0.43150  Biso   1.000  H
  H11      1.0000 0.53540  0.82010  0.93150  Biso   1.000  H
  H12      1.0000 0.46460  0.32010  0.56850  Biso   1.000  H
  C17      1.0000 0.67460  0.13810  0.08380  Biso   1.000  C
  C18      1.0000 0.32540  0.63810  0.41620  Biso   1.000  C
  C19      1.0000 0.32540  0.86190  0.91620  Biso   1.000  C
  C20      1.0000 0.67460  0.36190  0.58380  Biso   1.000  C
  H13      1.0000 0.65240  0.07700  0.03420  Biso   1.000  H
  H14      1.0000 0.34760  0.57700  0.46580  Biso   1.000  H
  H15      1.0000 0.34760  0.92300  0.96580  Biso   1.000  H
  H16      1.0000 0.65240  0.42300  0.53420  Biso   1.000  H
  C21      1.0000 0.09250  0.40780  0.92600  Biso   1.000  C
  C22      1.0000 0.90750  0.90780  0.57400  Biso   1.000  C
  C23      1.0000 0.90750  0.59220  0.07400  Biso   1.000  C
  C24      1.0000 0.09250  0.09220  0.42600  Biso   1.000  C
  H17      1.0000 0.99320  0.41420  0.92510  Biso   1.000  H
  H18      1.0000 0.00680  0.91420  0.57490  Biso   1.000  H
  H19      1.0000 0.00680  0.58580  0.07490  Biso   1.000  H
  H20      1.0000 0.99320  0.08580  0.42510  Biso   1.000  H
  C25      1.0000 0.18500  0.39230  0.05470  Biso   1.000  C
  C26      1.0000 0.81500  0.89230  0.44530  Biso   1.000  C
  C27      1.0000 0.81500  0.60770  0.94530  Biso   1.000  C
  C28      1.0000 0.18500  0.10770  0.55470  Biso   1.000  C
  H21      1.0000 0.14910  0.38800  0.13710  Biso   1.000  H
  H22      1.0000 0.85090  0.88800  0.36290  Biso   1.000  H
  H23      1.0000 0.85090  0.61200  0.86290  Biso   1.000  H
  H24      1.0000 0.14910  0.11200  0.63710  Biso   1.000  H
  C29      1.0000 0.33170  0.38320  0.05760  Biso   1.000  C
  C30      1.0000 0.66830  0.88320  0.44240  Biso   1.000  C
  C31      1.0000 0.66830  0.61680  0.94240  Biso   1.000  C
  C32      1.0000 0.33170  0.11680  0.55760  Biso   1.000  C
  C33      1.0000 0.37870  0.38880  0.93120  Biso   1.000  C
  C34      1.0000 0.62130  0.88880  0.56880  Biso   1.000  C
  C35      1.0000 0.62130  0.61120  0.06880  Biso   1.000  C
  C36      1.0000 0.37870  0.11120  0.43120  Biso   1.000  C
  H25      1.0000 0.47730  0.38250  0.92930  Biso   1.000  H
  H26      1.0000 0.52270  0.88250  0.57070  Biso   1.000  H
  H27      1.0000 0.52270  0.61750  0.07070  Biso   1.000  H
  H28      1.0000 0.47730  0.11750  0.42930  Biso   1.000  H
  C37      1.0000 0.27660  0.40400  0.80900  Biso   1.000  C
  C38      1.0000 0.72340  0.90400  0.69100  Biso   1.000  C
  C39      1.0000 0.72340  0.59600  0.19100  Biso   1.000  C
  C40      1.0000 0.27660  0.09600  0.30900  Biso   1.000  C
  H29      1.0000 0.30930  0.40730  0.72490  Biso   1.000  H
  H30      1.0000 0.69070  0.90730  0.77510  Biso   1.000  H
  H31      1.0000 0.69070  0.59270  0.27510  Biso   1.000  H
  H32      1.0000 0.30930  0.09270  0.22490  Biso   1.000  H
