data_image0
_cell_length_a       20.611
_cell_length_b       7.029
_cell_length_c       13.62
_cell_angle_alpha    90
_cell_angle_beta     90
_cell_angle_gamma    90

_symmetry_space_group_name_H-M    "P 1"
_symmetry_int_tables_number       1

loop_
  _symmetry_equiv_pos_as_xyz
  'x, y, z'

loop_
  _atom_site_label
  _atom_site_occupancy
  _atom_site_fract_x
  _atom_site_fract_y
  _atom_site_fract_z
  _atom_site_thermal_displace_type
  _atom_site_B_iso_or_equiv
  _atom_site_type_symbol
  Br1      1.0000 0.20814  0.25000  0.59683  Biso   1.000  Br
  Br2      1.0000 0.79186  0.25000  0.59683  Biso   1.000  Br
  Br3      1.0000 0.79186  0.75000  0.40317  Biso   1.000  Br
  Br4      1.0000 0.20814  0.75000  0.40317  Biso   1.000  Br
  Br5      1.0000 0.70814  0.75000  0.09683  Biso   1.000  Br
  Br6      1.0000 0.29186  0.75000  0.09683  Biso   1.000  Br
  Br7      1.0000 0.29186  0.25000  0.90317  Biso   1.000  Br
  Br8      1.0000 0.70814  0.25000  0.90317  Biso   1.000  Br
  Cu1      1.0000 0.27550  0.00000  0.50000  Biso   1.000  Cu
  Cu2      1.0000 0.72450  0.50000  0.50000  Biso   1.000  Cu
  Cu3      1.0000 0.77550  0.50000  0.00000  Biso   1.000  Cu
  Cu4      1.0000 0.22450  0.00000  0.00000  Biso   1.000  Cu
  Cu5      1.0000 0.72450  0.00000  0.50000  Biso   1.000  Cu
  Cu6      1.0000 0.27550  0.50000  0.50000  Biso   1.000  Cu
  Cu7      1.0000 0.22450  0.50000  0.00000  Biso   1.000  Cu
  Cu8      1.0000 0.77550  0.00000  0.00000  Biso   1.000  Cu
  N1       1.0000 0.30796  0.15110  0.38850  Biso   1.000  N
  N2       1.0000 0.69204  0.34890  0.38850  Biso   1.000  N
  N3       1.0000 0.69204  0.65110  0.61150  Biso   1.000  N
  N4       1.0000 0.30796  0.84890  0.61150  Biso   1.000  N
  N5       1.0000 0.80796  0.65110  0.88850  Biso   1.000  N
  N6       1.0000 0.19204  0.84890  0.88850  Biso   1.000  N
  N7       1.0000 0.19204  0.15110  0.11150  Biso   1.000  N
  N8       1.0000 0.80796  0.34890  0.11150  Biso   1.000  N
  N9       1.0000 0.69204  0.84890  0.61150  Biso   1.000  N
  N10      1.0000 0.30796  0.65110  0.61150  Biso   1.000  N
  N11      1.0000 0.30796  0.34890  0.38850  Biso   1.000  N
  N12      1.0000 0.69204  0.15110  0.38850  Biso   1.000  N
  N13      1.0000 0.19204  0.34890  0.11150  Biso   1.000  N
  N14      1.0000 0.80796  0.15110  0.11150  Biso   1.000  N
  N15      1.0000 0.80796  0.84890  0.88850  Biso   1.000  N
  N16      1.0000 0.19204  0.65110  0.88850  Biso   1.000  N
  N17      1.0000 0.33640  0.25000  0.24270  Biso   1.000  N
  N18      1.0000 0.66360  0.25000  0.24270  Biso   1.000  N
  N19      1.0000 0.66360  0.75000  0.75730  Biso   1.000  N
  N20      1.0000 0.33640  0.75000  0.75730  Biso   1.000  N
  N21      1.0000 0.83640  0.75000  0.74270  Biso   1.000  N
  N22      1.0000 0.16360  0.75000  0.74270  Biso   1.000  N
  N23      1.0000 0.16360  0.25000  0.25730  Biso   1.000  N
  N24      1.0000 0.83640  0.25000  0.25730  Biso   1.000  N
  C1       1.0000 0.32480  0.09690  0.29980  Biso   1.000  C
  C2       1.0000 0.67520  0.40310  0.29980  Biso   1.000  C
  C3       1.0000 0.67520  0.59690  0.70020  Biso   1.000  C
  C4       1.0000 0.32480  0.90310  0.70020  Biso   1.000  C
  C5       1.0000 0.82480  0.59690  0.79980  Biso   1.000  C
  C6       1.0000 0.17520  0.90310  0.79980  Biso   1.000  C
  C7       1.0000 0.17520  0.09690  0.20020  Biso   1.000  C
  C8       1.0000 0.82480  0.40310  0.20020  Biso   1.000  C
  C9       1.0000 0.67520  0.90310  0.70020  Biso   1.000  C
  C10      1.0000 0.32480  0.59690  0.70020  Biso   1.000  C
  C11      1.0000 0.32480  0.40310  0.29980  Biso   1.000  C
  C12      1.0000 0.67520  0.09690  0.29980  Biso   1.000  C
  C13      1.0000 0.17520  0.40310  0.20020  Biso   1.000  C
  C14      1.0000 0.82480  0.09690  0.20020  Biso   1.000  C
  C15      1.0000 0.82480  0.90310  0.79980  Biso   1.000  C
  C16      1.0000 0.17520  0.59690  0.79980  Biso   1.000  C
  H1       1.0000 0.32830  0.97100  0.27930  Biso   1.000  H
  H2       1.0000 0.67170  0.52900  0.27930  Biso   1.000  H
  H3       1.0000 0.67170  0.47100  0.72070  Biso   1.000  H
  H4       1.0000 0.32830  0.02900  0.72070  Biso   1.000  H
  H5       1.0000 0.82830  0.47100  0.77930  Biso   1.000  H
  H6       1.0000 0.17170  0.02900  0.77930  Biso   1.000  H
  H7       1.0000 0.17170  0.97100  0.22070  Biso   1.000  H
  H8       1.0000 0.82830  0.52900  0.22070  Biso   1.000  H
  H9       1.0000 0.67170  0.02900  0.72070  Biso   1.000  H
  H10      1.0000 0.32830  0.47100  0.72070  Biso   1.000  H
  H11      1.0000 0.32830  0.52900  0.27930  Biso   1.000  H
  H12      1.0000 0.67170  0.97100  0.27930  Biso   1.000  H
  H13      1.0000 0.17170  0.52900  0.22070  Biso   1.000  H
  H14      1.0000 0.82830  0.97100  0.22070  Biso   1.000  H
  H15      1.0000 0.82830  0.02900  0.77930  Biso   1.000  H
  H16      1.0000 0.17170  0.47100  0.77930  Biso   1.000  H
  C17      1.0000 0.35920  0.25000  0.13990  Biso   1.000  C
  C18      1.0000 0.64080  0.25000  0.13990  Biso   1.000  C
  C19      1.0000 0.64080  0.75000  0.86010  Biso   1.000  C
  C20      1.0000 0.35920  0.75000  0.86010  Biso   1.000  C
  C21      1.0000 0.85920  0.75000  0.63990  Biso   1.000  C
  C22      1.0000 0.14080  0.75000  0.63990  Biso   1.000  C
  C23      1.0000 0.14080  0.25000  0.36010  Biso   1.000  C
  C24      1.0000 0.85920  0.25000  0.36010  Biso   1.000  C
  H17      1.0000 0.34260  0.36170  0.10640  Biso   1.000  H
  H18      1.0000 0.65740  0.13830  0.10640  Biso   1.000  H
  H19      1.0000 0.65740  0.86170  0.89360  Biso   1.000  H
  H20      1.0000 0.34260  0.63830  0.89360  Biso   1.000  H
  H21      1.0000 0.84260  0.86170  0.60640  Biso   1.000  H
  H22      1.0000 0.15740  0.63830  0.60640  Biso   1.000  H
  H23      1.0000 0.15740  0.36170  0.39360  Biso   1.000  H
  H24      1.0000 0.84260  0.13830  0.39360  Biso   1.000  H
  H25      1.0000 0.65740  0.63830  0.89360  Biso   1.000  H
  H26      1.0000 0.34260  0.86170  0.89360  Biso   1.000  H
  H27      1.0000 0.34260  0.13830  0.10640  Biso   1.000  H
  H28      1.0000 0.65740  0.36170  0.10640  Biso   1.000  H
  H29      1.0000 0.15740  0.13830  0.39360  Biso   1.000  H
  H30      1.0000 0.84260  0.36170  0.39360  Biso   1.000  H
  H31      1.0000 0.84260  0.63830  0.60640  Biso   1.000  H
  H32      1.0000 0.15740  0.86170  0.60640  Biso   1.000  H
  C25      1.0000 0.43250  0.25000  0.13520  Biso   1.000  C
  C26      1.0000 0.56750  0.25000  0.13520  Biso   1.000  C
  C27      1.0000 0.56750  0.75000  0.86480  Biso   1.000  C
  C28      1.0000 0.43250  0.75000  0.86480  Biso   1.000  C
  C29      1.0000 0.93250  0.75000  0.63520  Biso   1.000  C
  C30      1.0000 0.06750  0.75000  0.63520  Biso   1.000  C
  C31      1.0000 0.06750  0.25000  0.36480  Biso   1.000  C
  C32      1.0000 0.93250  0.25000  0.36480  Biso   1.000  C
  C33      1.0000 0.46660  0.41960  0.13480  Biso   1.000  C
  C34      1.0000 0.53340  0.08040  0.13480  Biso   1.000  C
  C35      1.0000 0.53340  0.91960  0.86520  Biso   1.000  C
  C36      1.0000 0.46660  0.58040  0.86520  Biso   1.000  C
  C37      1.0000 0.96660  0.91960  0.63480  Biso   1.000  C
  C38      1.0000 0.03340  0.58040  0.63480  Biso   1.000  C
  C39      1.0000 0.03340  0.41960  0.36520  Biso   1.000  C
  C40      1.0000 0.96660  0.08040  0.36520  Biso   1.000  C
  C41      1.0000 0.53340  0.58040  0.86520  Biso   1.000  C
  C42      1.0000 0.46660  0.91960  0.86520  Biso   1.000  C
  C43      1.0000 0.46660  0.08040  0.13480  Biso   1.000  C
  C44      1.0000 0.53340  0.41960  0.13480  Biso   1.000  C
  C45      1.0000 0.03340  0.08040  0.36520  Biso   1.000  C
  C46      1.0000 0.96660  0.41960  0.36520  Biso   1.000  C
  C47      1.0000 0.96660  0.58040  0.63480  Biso   1.000  C
  C48      1.0000 0.03340  0.91960  0.63480  Biso   1.000  C
  H33      1.0000 0.44420  0.53450  0.13450  Biso   1.000  H
  H34      1.0000 0.55580  0.96550  0.13450  Biso   1.000  H
  H35      1.0000 0.55580  0.03450  0.86550  Biso   1.000  H
  H36      1.0000 0.44420  0.46550  0.86550  Biso   1.000  H
  H37      1.0000 0.94420  0.03450  0.63450  Biso   1.000  H
  H38      1.0000 0.05580  0.46550  0.63450  Biso   1.000  H
  H39      1.0000 0.05580  0.53450  0.36550  Biso   1.000  H
  H40      1.0000 0.94420  0.96550  0.36550  Biso   1.000  H
  H41      1.0000 0.55580  0.46550  0.86550  Biso   1.000  H
  H42      1.0000 0.44420  0.03450  0.86550  Biso   1.000  H
  H43      1.0000 0.44420  0.96550  0.13450  Biso   1.000  H
  H44      1.0000 0.55580  0.53450  0.13450  Biso   1.000  H
  H45      1.0000 0.05580  0.96550  0.36550  Biso   1.000  H
  H46      1.0000 0.94420  0.53450  0.36550  Biso   1.000  H
  H47      1.0000 0.94420  0.46550  0.63450  Biso   1.000  H
  H48      1.0000 0.05580  0.03450  0.63450  Biso   1.000  H
  N25      1.0000 0.50000  0.25000  0.51900  Biso   1.000  N
  N26      1.0000 0.50000  0.75000  0.48100  Biso   1.000  N
  N27      1.0000 0.00000  0.75000  0.01900  Biso   1.000  N
  N28      1.0000 0.00000  0.25000  0.98100  Biso   1.000  N
  C49      1.0000 0.50000  0.25000  0.41120  Biso   1.000  C
  C50      1.0000 0.50000  0.75000  0.58880  Biso   1.000  C
  C51      1.0000 0.00000  0.75000  0.91120  Biso   1.000  C
  C52      1.0000 0.00000  0.25000  0.08880  Biso   1.000  C
  C53      1.0000 0.44040  0.25000  0.57040  Biso   1.000  C
  C54      1.0000 0.55960  0.25000  0.57040  Biso   1.000  C
  C55      1.0000 0.55960  0.75000  0.42960  Biso   1.000  C
  C56      1.0000 0.44040  0.75000  0.42960  Biso   1.000  C
  C57      1.0000 0.94040  0.75000  0.07040  Biso   1.000  C
  C58      1.0000 0.05960  0.75000  0.07040  Biso   1.000  C
  C59      1.0000 0.05960  0.25000  0.92960  Biso   1.000  C
  C60      1.0000 0.94040  0.25000  0.92960  Biso   1.000  C
  O1       1.0000 0.43340  0.25000  0.65550  Biso   1.000  O
  O2       1.0000 0.56660  0.25000  0.65550  Biso   1.000  O
  O3       1.0000 0.56660  0.75000  0.34450  Biso   1.000  O
  O4       1.0000 0.43340  0.75000  0.34450  Biso   1.000  O
  O5       1.0000 0.93340  0.75000  0.15550  Biso   1.000  O
  O6       1.0000 0.06660  0.75000  0.15550  Biso   1.000  O
  O7       1.0000 0.06660  0.25000  0.84450  Biso   1.000  O
  O8       1.0000 0.93340  0.25000  0.84450  Biso   1.000  O
