data_image0
_cell_length_a       20.4733
_cell_length_b       7.0919
_cell_length_c       13.3346
_cell_angle_alpha    90
_cell_angle_beta     90
_cell_angle_gamma    90

_symmetry_space_group_name_H-M    "P 1"
_symmetry_int_tables_number       1

loop_
  _symmetry_equiv_pos_as_xyz
  'x, y, z'

loop_
  _atom_site_label
  _atom_site_occupancy
  _atom_site_fract_x
  _atom_site_fract_y
  _atom_site_fract_z
  _atom_site_thermal_displace_type
  _atom_site_B_iso_or_equiv
  _atom_site_type_symbol
  Br1      1.0000 0.71521  0.25000  0.09849  Biso   1.000  Br
  Br2      1.0000 0.28479  0.25000  0.09849  Biso   1.000  Br
  Br3      1.0000 0.28479  0.75000  0.90151  Biso   1.000  Br
  Br4      1.0000 0.71521  0.75000  0.90151  Biso   1.000  Br
  Br5      1.0000 0.21521  0.75000  0.59849  Biso   1.000  Br
  Br6      1.0000 0.78479  0.75000  0.59849  Biso   1.000  Br
  Br7      1.0000 0.78479  0.25000  0.40151  Biso   1.000  Br
  Br8      1.0000 0.21521  0.25000  0.40151  Biso   1.000  Br
  Cu1      1.0000 0.77713  0.50000  0.00000  Biso   1.000  Cu
  Cu2      1.0000 0.22287  0.00000  0.00000  Biso   1.000  Cu
  Cu3      1.0000 0.27713  0.00000  0.50000  Biso   1.000  Cu
  Cu4      1.0000 0.72287  0.50000  0.50000  Biso   1.000  Cu
  Cu5      1.0000 0.22287  0.50000  0.00000  Biso   1.000  Cu
  Cu6      1.0000 0.77713  0.00000  0.00000  Biso   1.000  Cu
  Cu7      1.0000 0.72287  0.00000  0.50000  Biso   1.000  Cu
  Cu8      1.0000 0.27713  0.50000  0.50000  Biso   1.000  Cu
  N1       1.0000 0.81263  0.65290  0.11210  Biso   1.000  N
  N2       1.0000 0.18737  0.84710  0.11210  Biso   1.000  N
  N3       1.0000 0.18737  0.15290  0.88790  Biso   1.000  N
  N4       1.0000 0.81263  0.34710  0.88790  Biso   1.000  N
  N5       1.0000 0.31263  0.15290  0.61210  Biso   1.000  N
  N6       1.0000 0.68737  0.34710  0.61210  Biso   1.000  N
  N7       1.0000 0.68737  0.65290  0.38790  Biso   1.000  N
  N8       1.0000 0.31263  0.84710  0.38790  Biso   1.000  N
  N9       1.0000 0.18737  0.34710  0.88790  Biso   1.000  N
  N10      1.0000 0.81263  0.15290  0.88790  Biso   1.000  N
  N11      1.0000 0.81263  0.84710  0.11210  Biso   1.000  N
  N12      1.0000 0.18737  0.65290  0.11210  Biso   1.000  N
  N13      1.0000 0.68737  0.84710  0.38790  Biso   1.000  N
  N14      1.0000 0.31263  0.65290  0.38790  Biso   1.000  N
  N15      1.0000 0.31263  0.34710  0.61210  Biso   1.000  N
  N16      1.0000 0.68737  0.15290  0.61210  Biso   1.000  N
  N17      1.0000 0.84880  0.75000  0.25720  Biso   1.000  N
  N18      1.0000 0.15120  0.75000  0.25720  Biso   1.000  N
  N19      1.0000 0.15120  0.25000  0.74280  Biso   1.000  N
  N20      1.0000 0.84880  0.25000  0.74280  Biso   1.000  N
  N21      1.0000 0.34880  0.25000  0.75720  Biso   1.000  N
  N22      1.0000 0.65120  0.25000  0.75720  Biso   1.000  N
  N23      1.0000 0.65120  0.75000  0.24280  Biso   1.000  N
  N24      1.0000 0.34880  0.75000  0.24280  Biso   1.000  N
  C1       1.0000 0.83440  0.59840  0.20110  Biso   1.000  C
  C2       1.0000 0.16560  0.90160  0.20110  Biso   1.000  C
  C3       1.0000 0.16560  0.09840  0.79890  Biso   1.000  C
  C4       1.0000 0.83440  0.40160  0.79890  Biso   1.000  C
  C5       1.0000 0.33440  0.09840  0.70110  Biso   1.000  C
  C6       1.0000 0.66560  0.40160  0.70110  Biso   1.000  C
  C7       1.0000 0.66560  0.59840  0.29890  Biso   1.000  C
  C8       1.0000 0.33440  0.90160  0.29890  Biso   1.000  C
  C9       1.0000 0.16560  0.40160  0.79890  Biso   1.000  C
  C10      1.0000 0.83440  0.09840  0.79890  Biso   1.000  C
  C11      1.0000 0.83440  0.90160  0.20110  Biso   1.000  C
  C12      1.0000 0.16560  0.59840  0.20110  Biso   1.000  C
  C13      1.0000 0.66560  0.90160  0.29890  Biso   1.000  C
  C14      1.0000 0.33440  0.59840  0.29890  Biso   1.000  C
  C15      1.0000 0.33440  0.40160  0.70110  Biso   1.000  C
  C16      1.0000 0.66560  0.09840  0.70110  Biso   1.000  C
  H1       1.0000 0.83910  0.47380  0.22160  Biso   1.000  H
  H2       1.0000 0.16090  0.02620  0.22160  Biso   1.000  H
  H3       1.0000 0.16090  0.97380  0.77840  Biso   1.000  H
  H4       1.0000 0.83910  0.52620  0.77840  Biso   1.000  H
  H5       1.0000 0.33910  0.97380  0.72160  Biso   1.000  H
  H6       1.0000 0.66090  0.52620  0.72160  Biso   1.000  H
  H7       1.0000 0.66090  0.47380  0.27840  Biso   1.000  H
  H8       1.0000 0.33910  0.02620  0.27840  Biso   1.000  H
  H9       1.0000 0.16090  0.52620  0.77840  Biso   1.000  H
  H10      1.0000 0.83910  0.97380  0.77840  Biso   1.000  H
  H11      1.0000 0.83910  0.02620  0.22160  Biso   1.000  H
  H12      1.0000 0.16090  0.47380  0.22160  Biso   1.000  H
  H13      1.0000 0.66090  0.02620  0.27840  Biso   1.000  H
  H14      1.0000 0.33910  0.47380  0.27840  Biso   1.000  H
  H15      1.0000 0.33910  0.52620  0.72160  Biso   1.000  H
  H16      1.0000 0.66090  0.97380  0.72160  Biso   1.000  H
  C17      1.0000 0.87580  0.75000  0.36030  Biso   1.000  C
  C18      1.0000 0.12420  0.75000  0.36030  Biso   1.000  C
  C19      1.0000 0.12420  0.25000  0.63970  Biso   1.000  C
  C20      1.0000 0.87580  0.25000  0.63970  Biso   1.000  C
  C21      1.0000 0.37580  0.25000  0.86030  Biso   1.000  C
  C22      1.0000 0.62420  0.25000  0.86030  Biso   1.000  C
  C23      1.0000 0.62420  0.75000  0.13970  Biso   1.000  C
  C24      1.0000 0.37580  0.75000  0.13970  Biso   1.000  C
  C25      1.0000 0.00000  0.75000  0.35340  Biso   1.000  C
  C26      1.0000 0.00000  0.25000  0.64660  Biso   1.000  C
  C27      1.0000 0.50000  0.25000  0.85340  Biso   1.000  C
  C28      1.0000 0.50000  0.75000  0.14660  Biso   1.000  C
  C29      1.0000 0.00000  0.10560  0.40560  Biso   1.000  C
  C30      1.0000 0.00000  0.39440  0.40560  Biso   1.000  C
  C31      1.0000 0.00000  0.60560  0.59440  Biso   1.000  C
  C32      1.0000 0.00000  0.89440  0.59440  Biso   1.000  C
  C33      1.0000 0.50000  0.60560  0.90560  Biso   1.000  C
  C34      1.0000 0.50000  0.89440  0.90560  Biso   1.000  C
  C35      1.0000 0.50000  0.10560  0.09440  Biso   1.000  C
  C36      1.0000 0.50000  0.39440  0.09440  Biso   1.000  C
  C37      1.0000 0.94200  0.00410  0.39290  Biso   1.000  C
  C38      1.0000 0.05800  0.49590  0.39290  Biso   1.000  C
  C39      1.0000 0.05800  0.50410  0.60710  Biso   1.000  C
  C40      1.0000 0.94200  0.99590  0.60710  Biso   1.000  C
  C41      1.0000 0.44200  0.50410  0.89290  Biso   1.000  C
  C42      1.0000 0.55800  0.99590  0.89290  Biso   1.000  C
  C43      1.0000 0.55800  0.00410  0.10710  Biso   1.000  C
  C44      1.0000 0.44200  0.49590  0.10710  Biso   1.000  C
  C45      1.0000 0.05800  0.99590  0.60710  Biso   1.000  C
  C46      1.0000 0.94200  0.50410  0.60710  Biso   1.000  C
  C47      1.0000 0.94200  0.49590  0.39290  Biso   1.000  C
  C48      1.0000 0.05800  0.00410  0.39290  Biso   1.000  C
  C49      1.0000 0.55800  0.49590  0.10710  Biso   1.000  C
  C50      1.0000 0.44200  0.00410  0.10710  Biso   1.000  C
  C51      1.0000 0.44200  0.99590  0.89290  Biso   1.000  C
  C52      1.0000 0.55800  0.50410  0.89290  Biso   1.000  C
  H17      1.0000 0.90260  0.06700  0.40150  Biso   1.000  H
  H18      1.0000 0.09740  0.43300  0.40150  Biso   1.000  H
  H19      1.0000 0.09740  0.56700  0.59850  Biso   1.000  H
  H20      1.0000 0.90260  0.93300  0.59850  Biso   1.000  H
  H21      1.0000 0.40260  0.56700  0.90150  Biso   1.000  H
  H22      1.0000 0.59740  0.93300  0.90150  Biso   1.000  H
  H23      1.0000 0.59740  0.06700  0.09850  Biso   1.000  H
  H24      1.0000 0.40260  0.43300  0.09850  Biso   1.000  H
  H25      1.0000 0.09740  0.93300  0.59850  Biso   1.000  H
  H26      1.0000 0.90260  0.56700  0.59850  Biso   1.000  H
  H27      1.0000 0.90260  0.43300  0.40150  Biso   1.000  H
  H28      1.0000 0.09740  0.06700  0.40150  Biso   1.000  H
  H29      1.0000 0.59740  0.43300  0.09850  Biso   1.000  H
  H30      1.0000 0.40260  0.06700  0.09850  Biso   1.000  H
  H31      1.0000 0.40260  0.93300  0.90150  Biso   1.000  H
  H32      1.0000 0.59740  0.56700  0.90150  Biso   1.000  H
  C53      1.0000 0.94050  0.81250  0.36780  Biso   1.000  C
  C54      1.0000 0.05950  0.68750  0.36780  Biso   1.000  C
  C55      1.0000 0.05950  0.31250  0.63220  Biso   1.000  C
  C56      1.0000 0.94050  0.18750  0.63220  Biso   1.000  C
  C57      1.0000 0.44050  0.31250  0.86780  Biso   1.000  C
  C58      1.0000 0.55950  0.18750  0.86780  Biso   1.000  C
  C59      1.0000 0.55950  0.81250  0.13220  Biso   1.000  C
  C60      1.0000 0.44050  0.68750  0.13220  Biso   1.000  C
  C61      1.0000 0.05950  0.18750  0.63220  Biso   1.000  C
  C62      1.0000 0.94050  0.31250  0.63220  Biso   1.000  C
  C63      1.0000 0.94050  0.68750  0.36780  Biso   1.000  C
  C64      1.0000 0.05950  0.81250  0.36780  Biso   1.000  C
  C65      1.0000 0.55950  0.68750  0.13220  Biso   1.000  C
  C66      1.0000 0.44050  0.81250  0.13220  Biso   1.000  C
  C67      1.0000 0.44050  0.18750  0.86780  Biso   1.000  C
  C68      1.0000 0.55950  0.31250  0.86780  Biso   1.000  C
  N25      1.0000 0.00000  0.75000  0.97510  Biso   1.000  N
  N26      1.0000 0.00000  0.25000  0.02490  Biso   1.000  N
  N27      1.0000 0.50000  0.25000  0.47510  Biso   1.000  N
  N28      1.0000 0.50000  0.75000  0.52490  Biso   1.000  N
  C69      1.0000 0.00000  0.75000  0.08620  Biso   1.000  C
  C70      1.0000 0.00000  0.25000  0.91380  Biso   1.000  C
  C71      1.0000 0.50000  0.25000  0.58620  Biso   1.000  C
  C72      1.0000 0.50000  0.75000  0.41380  Biso   1.000  C
  C73      1.0000 0.94020  0.75000  0.92460  Biso   1.000  C
  C74      1.0000 0.05980  0.75000  0.92460  Biso   1.000  C
  C75      1.0000 0.05980  0.25000  0.07540  Biso   1.000  C
  C76      1.0000 0.94020  0.25000  0.07540  Biso   1.000  C
  C77      1.0000 0.44020  0.25000  0.42460  Biso   1.000  C
  C78      1.0000 0.55980  0.25000  0.42460  Biso   1.000  C
  C79      1.0000 0.55980  0.75000  0.57540  Biso   1.000  C
  C80      1.0000 0.44020  0.75000  0.57540  Biso   1.000  C
  O1       1.0000 0.93840  0.75000  0.83460  Biso   1.000  O
  O2       1.0000 0.06160  0.75000  0.83460  Biso   1.000  O
  O3       1.0000 0.06160  0.25000  0.16540  Biso   1.000  O
  O4       1.0000 0.93840  0.25000  0.16540  Biso   1.000  O
  O5       1.0000 0.43840  0.25000  0.33460  Biso   1.000  O
  O6       1.0000 0.56160  0.25000  0.33460  Biso   1.000  O
  O7       1.0000 0.56160  0.75000  0.66540  Biso   1.000  O
  O8       1.0000 0.43840  0.75000  0.66540  Biso   1.000  O
  H33      1.0000 0.00000  0.88100  0.35100  Biso   1.000  H
  H34      1.0000 0.00000  0.61900  0.35100  Biso   1.000  H
  H35      1.0000 0.00000  0.38100  0.64900  Biso   1.000  H
  H36      1.0000 0.00000  0.11900  0.64900  Biso   1.000  H
  H37      1.0000 0.50000  0.38100  0.85100  Biso   1.000  H
  H38      1.0000 0.50000  0.11900  0.85100  Biso   1.000  H
  H39      1.0000 0.50000  0.88100  0.14900  Biso   1.000  H
  H40      1.0000 0.50000  0.61900  0.14900  Biso   1.000  H
  H41      1.0000 0.00000  0.23320  0.42160  Biso   1.000  H
  H42      1.0000 0.00000  0.26680  0.42160  Biso   1.000  H
  H43      1.0000 0.00000  0.73320  0.57840  Biso   1.000  H
  H44      1.0000 0.00000  0.76680  0.57840  Biso   1.000  H
  H45      1.0000 0.50000  0.73320  0.92160  Biso   1.000  H
  H46      1.0000 0.50000  0.76680  0.92160  Biso   1.000  H
  H47      1.0000 0.50000  0.23320  0.07840  Biso   1.000  H
  H48      1.0000 0.50000  0.26680  0.07840  Biso   1.000  H
  H49      1.0000 0.84460  0.81400  0.40200  Biso   1.000  H
  H50      1.0000 0.15540  0.68600  0.40200  Biso   1.000  H
  H51      1.0000 0.15540  0.31400  0.59800  Biso   1.000  H
  H52      1.0000 0.84460  0.18600  0.59800  Biso   1.000  H
  H53      1.0000 0.34460  0.31400  0.90200  Biso   1.000  H
  H54      1.0000 0.65540  0.18600  0.90200  Biso   1.000  H
  H55      1.0000 0.65540  0.81400  0.09800  Biso   1.000  H
  H56      1.0000 0.34460  0.68600  0.09800  Biso   1.000  H
  H57      1.0000 0.15540  0.18600  0.59800  Biso   1.000  H
  H58      1.0000 0.84460  0.31400  0.59800  Biso   1.000  H
  H59      1.0000 0.84460  0.68600  0.40200  Biso   1.000  H
  H60      1.0000 0.15540  0.81400  0.40200  Biso   1.000  H
  H61      1.0000 0.65540  0.68600  0.09800  Biso   1.000  H
  H62      1.0000 0.34460  0.81400  0.09800  Biso   1.000  H
  H63      1.0000 0.34460  0.18600  0.90200  Biso   1.000  H
  H64      1.0000 0.65540  0.31400  0.90200  Biso   1.000  H
