data_image0
_cell_length_a       21.387
_cell_length_b       41.838
_cell_length_c       3.8011
_cell_angle_alpha    90
_cell_angle_beta     90
_cell_angle_gamma    90

_symmetry_space_group_name_H-M    "P 1"
_symmetry_int_tables_number       1

loop_
  _symmetry_equiv_pos_as_xyz
  'x, y, z'

loop_
  _atom_site_label
  _atom_site_occupancy
  _atom_site_fract_x
  _atom_site_fract_y
  _atom_site_fract_z
  _atom_site_thermal_displace_type
  _atom_site_B_iso_or_equiv
  _atom_site_type_symbol
  S1       1.0000 0.56511  0.98227  0.20370  Biso   1.000  S
  S2       1.0000 0.06511  0.51773  0.29630  Biso   1.000  S
  S3       1.0000 0.43489  0.48227  0.79630  Biso   1.000  S
  S4       1.0000 0.93489  0.01773  0.70370  Biso   1.000  S
  S5       1.0000 0.43489  0.01773  0.79630  Biso   1.000  S
  S6       1.0000 0.93489  0.48227  0.70370  Biso   1.000  S
  S7       1.0000 0.56511  0.51773  0.20370  Biso   1.000  S
  S8       1.0000 0.06511  0.98227  0.29630  Biso   1.000  S
  S9       1.0000 0.69168  0.98334  0.88490  Biso   1.000  S
  S10      1.0000 0.19168  0.51666  0.61510  Biso   1.000  S
  S11      1.0000 0.30832  0.48334  0.11510  Biso   1.000  S
  S12      1.0000 0.80832  0.01666  0.38490  Biso   1.000  S
  S13      1.0000 0.30832  0.01666  0.11510  Biso   1.000  S
  S14      1.0000 0.80832  0.48334  0.38490  Biso   1.000  S
  S15      1.0000 0.69168  0.51666  0.88490  Biso   1.000  S
  S16      1.0000 0.19168  0.98334  0.61510  Biso   1.000  S
  S17      1.0000 0.56338  0.90605  0.15400  Biso   1.000  S
  S18      1.0000 0.06338  0.59395  0.34600  Biso   1.000  S
  S19      1.0000 0.43662  0.40605  0.84600  Biso   1.000  S
  S20      1.0000 0.93662  0.09395  0.65400  Biso   1.000  S
  S21      1.0000 0.43662  0.09395  0.84600  Biso   1.000  S
  S22      1.0000 0.93662  0.40605  0.65400  Biso   1.000  S
  S23      1.0000 0.56338  0.59395  0.15400  Biso   1.000  S
  S24      1.0000 0.06338  0.90605  0.34600  Biso   1.000  S
  S25      1.0000 0.69065  0.90594  0.86920  Biso   1.000  S
  S26      1.0000 0.19065  0.59406  0.63080  Biso   1.000  S
  S27      1.0000 0.30935  0.40594  0.13080  Biso   1.000  S
  S28      1.0000 0.80935  0.09406  0.36920  Biso   1.000  S
  S29      1.0000 0.30935  0.09406  0.13080  Biso   1.000  S
  S30      1.0000 0.80935  0.40594  0.36920  Biso   1.000  S
  S31      1.0000 0.69065  0.59406  0.86920  Biso   1.000  S
  S32      1.0000 0.19065  0.90594  0.63080  Biso   1.000  S
  N1       1.0000 0.56740  0.04603  0.21400  Biso   1.000  N
  N2       1.0000 0.06740  0.45397  0.28600  Biso   1.000  N
  N3       1.0000 0.43260  0.54603  0.78600  Biso   1.000  N
  N4       1.0000 0.93260  0.95397  0.71400  Biso   1.000  N
  N5       1.0000 0.43260  0.95397  0.78600  Biso   1.000  N
  N6       1.0000 0.93260  0.54603  0.71400  Biso   1.000  N
  N7       1.0000 0.56740  0.45397  0.21400  Biso   1.000  N
  N8       1.0000 0.06740  0.04603  0.28600  Biso   1.000  N
  N9       1.0000 0.68650  0.04743  0.89100  Biso   1.000  N
  N10      1.0000 0.18650  0.45257  0.60900  Biso   1.000  N
  N11      1.0000 0.31350  0.54743  0.10900  Biso   1.000  N
  N12      1.0000 0.81350  0.95257  0.39100  Biso   1.000  N
  N13      1.0000 0.31350  0.95257  0.10900  Biso   1.000  N
  N14      1.0000 0.81350  0.54743  0.39100  Biso   1.000  N
  N15      1.0000 0.68650  0.45257  0.89100  Biso   1.000  N
  N16      1.0000 0.18650  0.04743  0.60900  Biso   1.000  N
  C1       1.0000 0.59640  0.07363  0.13500  Biso   1.000  C
  C2       1.0000 0.09640  0.42637  0.36500  Biso   1.000  C
  C3       1.0000 0.40360  0.57363  0.86500  Biso   1.000  C
  C4       1.0000 0.90360  0.92637  0.63500  Biso   1.000  C
  C5       1.0000 0.40360  0.92637  0.86500  Biso   1.000  C
  C6       1.0000 0.90360  0.57363  0.63500  Biso   1.000  C
  C7       1.0000 0.59640  0.42637  0.13500  Biso   1.000  C
  C8       1.0000 0.09640  0.07363  0.36500  Biso   1.000  C
  C9       1.0000 0.65400  0.07409  0.97600  Biso   1.000  C
  C10      1.0000 0.15400  0.42591  0.52400  Biso   1.000  C
  C11      1.0000 0.34600  0.57409  0.02400  Biso   1.000  C
  C12      1.0000 0.84600  0.92591  0.47600  Biso   1.000  C
  C13      1.0000 0.34600  0.92591  0.02400  Biso   1.000  C
  C14      1.0000 0.84600  0.57409  0.47600  Biso   1.000  C
  C15      1.0000 0.65400  0.42591  0.97600  Biso   1.000  C
  C16      1.0000 0.15400  0.07409  0.52400  Biso   1.000  C
  C17      1.0000 0.59870  0.01961  0.12600  Biso   1.000  C
  C18      1.0000 0.09870  0.48039  0.37400  Biso   1.000  C
  C19      1.0000 0.40130  0.51961  0.87400  Biso   1.000  C
  C20      1.0000 0.90130  0.98039  0.62600  Biso   1.000  C
  C21      1.0000 0.40130  0.98039  0.87400  Biso   1.000  C
  C22      1.0000 0.90130  0.51961  0.62600  Biso   1.000  C
  C23      1.0000 0.59870  0.48039  0.12600  Biso   1.000  C
  C24      1.0000 0.09870  0.01961  0.37400  Biso   1.000  C
  C25      1.0000 0.65680  0.02045  0.97300  Biso   1.000  C
  C26      1.0000 0.15680  0.47955  0.52700  Biso   1.000  C
  C27      1.0000 0.34320  0.52045  0.02700  Biso   1.000  C
  C28      1.0000 0.84320  0.97955  0.47300  Biso   1.000  C
  C29      1.0000 0.34320  0.97955  0.02700  Biso   1.000  C
  C30      1.0000 0.84320  0.52045  0.47300  Biso   1.000  C
  C31      1.0000 0.65680  0.47955  0.97300  Biso   1.000  C
  C32      1.0000 0.15680  0.02045  0.52700  Biso   1.000  C
  C33      1.0000 0.62960  0.96092  0.03600  Biso   1.000  C
  C34      1.0000 0.12960  0.53908  0.46400  Biso   1.000  C
  C35      1.0000 0.37040  0.46092  0.96400  Biso   1.000  C
  C36      1.0000 0.87040  0.03908  0.53600  Biso   1.000  C
  C37      1.0000 0.37040  0.03908  0.96400  Biso   1.000  C
  C38      1.0000 0.87040  0.46092  0.53600  Biso   1.000  C
  C39      1.0000 0.62960  0.53908  0.03600  Biso   1.000  C
  C40      1.0000 0.12960  0.96092  0.46400  Biso   1.000  C
  C41      1.0000 0.62800  0.92842  0.02200  Biso   1.000  C
  C42      1.0000 0.12800  0.57158  0.47800  Biso   1.000  C
  C43      1.0000 0.37200  0.42842  0.97800  Biso   1.000  C
  C44      1.0000 0.87200  0.07158  0.52200  Biso   1.000  C
  C45      1.0000 0.37200  0.07158  0.97800  Biso   1.000  C
  C46      1.0000 0.87200  0.42842  0.52200  Biso   1.000  C
  C47      1.0000 0.62800  0.57158  0.02200  Biso   1.000  C
  C48      1.0000 0.12800  0.92842  0.47800  Biso   1.000  C
  C49      1.0000 0.59680  0.86960  0.03900  Biso   1.000  C
  C50      1.0000 0.09680  0.63040  0.46100  Biso   1.000  C
  C51      1.0000 0.40320  0.36960  0.96100  Biso   1.000  C
  C52      1.0000 0.90320  0.13040  0.53900  Biso   1.000  C
  C53      1.0000 0.40320  0.13040  0.96100  Biso   1.000  C
  C54      1.0000 0.90320  0.36960  0.53900  Biso   1.000  C
  C55      1.0000 0.59680  0.63040  0.03900  Biso   1.000  C
  C56      1.0000 0.09680  0.86960  0.46100  Biso   1.000  C
  C57      1.0000 0.65350  0.86970  0.91300  Biso   1.000  C
  C58      1.0000 0.15350  0.63030  0.58700  Biso   1.000  C
  C59      1.0000 0.34650  0.36970  0.08700  Biso   1.000  C
  C60      1.0000 0.84650  0.13030  0.41300  Biso   1.000  C
  C61      1.0000 0.34650  0.13030  0.08700  Biso   1.000  C
  C62      1.0000 0.84650  0.36970  0.41300  Biso   1.000  C
  C63      1.0000 0.65350  0.63030  0.91300  Biso   1.000  C
  C64      1.0000 0.15350  0.86970  0.58700  Biso   1.000  C
  H1       1.0000 0.57590  0.09350  0.19280  Biso   1.000  H
  H2       1.0000 0.07590  0.40650  0.30720  Biso   1.000  H
  H3       1.0000 0.42410  0.59350  0.80720  Biso   1.000  H
  H4       1.0000 0.92410  0.90650  0.69280  Biso   1.000  H
  H5       1.0000 0.42410  0.90650  0.80720  Biso   1.000  H
  H6       1.0000 0.92410  0.59350  0.69280  Biso   1.000  H
  H7       1.0000 0.57590  0.40650  0.19280  Biso   1.000  H
  H8       1.0000 0.07590  0.09350  0.30720  Biso   1.000  H
  H9       1.0000 0.67220  0.09450  0.92090  Biso   1.000  H
  H10      1.0000 0.17220  0.40550  0.57910  Biso   1.000  H
  H11      1.0000 0.32780  0.59450  0.07910  Biso   1.000  H
  H12      1.0000 0.82780  0.90550  0.42090  Biso   1.000  H
  H13      1.0000 0.32780  0.90550  0.07910  Biso   1.000  H
  H14      1.0000 0.82780  0.59450  0.42090  Biso   1.000  H
  H15      1.0000 0.67220  0.40550  0.92090  Biso   1.000  H
  H16      1.0000 0.17220  0.09450  0.57910  Biso   1.000  H
  H17      1.0000 0.57390  0.85000  0.07020  Biso   1.000  H
  H18      1.0000 0.07390  0.65000  0.42980  Biso   1.000  H
  H19      1.0000 0.42610  0.35000  0.92980  Biso   1.000  H
  H20      1.0000 0.92610  0.15000  0.57020  Biso   1.000  H
  H21      1.0000 0.42610  0.15000  0.92980  Biso   1.000  H
  H22      1.0000 0.92610  0.35000  0.57020  Biso   1.000  H
  H23      1.0000 0.57390  0.65000  0.07020  Biso   1.000  H
  H24      1.0000 0.07390  0.85000  0.42980  Biso   1.000  H
  H25      1.0000 0.67370  0.85010  0.84350  Biso   1.000  H
  H26      1.0000 0.17370  0.64990  0.65650  Biso   1.000  H
  H27      1.0000 0.32630  0.35010  0.15650  Biso   1.000  H
  H28      1.0000 0.82630  0.14990  0.34350  Biso   1.000  H
  H29      1.0000 0.32630  0.14990  0.15650  Biso   1.000  H
  H30      1.0000 0.82630  0.35010  0.34350  Biso   1.000  H
  H31      1.0000 0.67370  0.64990  0.84350  Biso   1.000  H
  H32      1.0000 0.17370  0.85010  0.65650  Biso   1.000  H
  Cu1      1.0000 0.41343  0.83161  0.88510  Biso   1.000  Cu
  Cu2      1.0000 0.91343  0.66839  0.61490  Biso   1.000  Cu
  Cu3      1.0000 0.58657  0.33161  0.11490  Biso   1.000  Cu
  Cu4      1.0000 0.08657  0.16839  0.38510  Biso   1.000  Cu
  Cu5      1.0000 0.58657  0.16839  0.11490  Biso   1.000  Cu
  Cu6      1.0000 0.08657  0.33161  0.38510  Biso   1.000  Cu
  Cu7      1.0000 0.41343  0.66839  0.88510  Biso   1.000  Cu
  Cu8      1.0000 0.91343  0.83161  0.61490  Biso   1.000  Cu
  Cu9      1.0000 0.30952  0.84259  0.41000  Biso   1.000  Cu
  Cu10     1.0000 0.80952  0.65741  0.09000  Biso   1.000  Cu
  Cu11     1.0000 0.69048  0.34259  0.59000  Biso   1.000  Cu
  Cu12     1.0000 0.19048  0.15741  0.91000  Biso   1.000  Cu
  Cu13     1.0000 0.69048  0.15741  0.59000  Biso   1.000  Cu
  Cu14     1.0000 0.19048  0.34259  0.91000  Biso   1.000  Cu
  Cu15     1.0000 0.30952  0.65741  0.41000  Biso   1.000  Cu
  Cu16     1.0000 0.80952  0.84259  0.09000  Biso   1.000  Cu
  Cl1      1.0000 0.44985  0.85617  0.38460  Biso   1.000  Cl
  Cl2      1.0000 0.94985  0.64383  0.11540  Biso   1.000  Cl
  Cl3      1.0000 0.55015  0.35617  0.61540  Biso   1.000  Cl
  Cl4      1.0000 0.05015  0.14383  0.88460  Biso   1.000  Cl
  Cl5      1.0000 0.55015  0.14383  0.61540  Biso   1.000  Cl
  Cl6      1.0000 0.05015  0.35617  0.88460  Biso   1.000  Cl
  Cl7      1.0000 0.44985  0.64383  0.38460  Biso   1.000  Cl
  Cl8      1.0000 0.94985  0.85617  0.11540  Biso   1.000  Cl
  Cl9      1.0000 0.29803  0.84010  0.90830  Biso   1.000  Cl
  Cl10     1.0000 0.79803  0.65990  0.59170  Biso   1.000  Cl
  Cl11     1.0000 0.70197  0.34010  0.09170  Biso   1.000  Cl
  Cl12     1.0000 0.20197  0.15990  0.40830  Biso   1.000  Cl
  Cl13     1.0000 0.70197  0.15990  0.09170  Biso   1.000  Cl
  Cl14     1.0000 0.20197  0.34010  0.40830  Biso   1.000  Cl
  Cl15     1.0000 0.29803  0.65990  0.90830  Biso   1.000  Cl
  Cl16     1.0000 0.79803  0.84010  0.59170  Biso   1.000  Cl
  S33      1.0000 0.52957  0.78580  0.57640  Biso   1.000  S
  S34      1.0000 0.02957  0.71420  0.92360  Biso   1.000  S
  S35      1.0000 0.47043  0.28580  0.42360  Biso   1.000  S
  S36      1.0000 0.97043  0.21420  0.07640  Biso   1.000  S
  S37      1.0000 0.47043  0.21420  0.42360  Biso   1.000  S
  S38      1.0000 0.97043  0.28580  0.07640  Biso   1.000  S
  S39      1.0000 0.52957  0.71420  0.57640  Biso   1.000  S
  S40      1.0000 0.02957  0.78580  0.92360  Biso   1.000  S
  S41      1.0000 0.66353  0.71476  0.19740  Biso   1.000  S
  S42      1.0000 0.16353  0.78524  0.30260  Biso   1.000  S
  S43      1.0000 0.33647  0.21476  0.80260  Biso   1.000  S
  S44      1.0000 0.83647  0.28524  0.69740  Biso   1.000  S
  S45      1.0000 0.33647  0.28524  0.80260  Biso   1.000  S
  S46      1.0000 0.83647  0.21476  0.69740  Biso   1.000  S
  S47      1.0000 0.66353  0.78524  0.19740  Biso   1.000  S
  S48      1.0000 0.16353  0.71476  0.30260  Biso   1.000  S
  N17      1.0000 0.41720  0.78371  0.88280  Biso   1.000  N
  N18      1.0000 0.91720  0.71629  0.61720  Biso   1.000  N
  N19      1.0000 0.58280  0.28371  0.11720  Biso   1.000  N
  N20      1.0000 0.08280  0.21629  0.38280  Biso   1.000  N
  N21      1.0000 0.58280  0.21629  0.11720  Biso   1.000  N
  N22      1.0000 0.08280  0.28371  0.38280  Biso   1.000  N
  N23      1.0000 0.41720  0.71629  0.88280  Biso   1.000  N
  N24      1.0000 0.91720  0.78371  0.61720  Biso   1.000  N
  C65      1.0000 0.36920  0.76612  0.01800  Biso   1.000  C
  C66      1.0000 0.86920  0.73388  0.48200  Biso   1.000  C
  C67      1.0000 0.63080  0.26612  0.98200  Biso   1.000  C
  C68      1.0000 0.13080  0.23388  0.51800  Biso   1.000  C
  C69      1.0000 0.63080  0.23388  0.98200  Biso   1.000  C
  C70      1.0000 0.13080  0.26612  0.51800  Biso   1.000  C
  C71      1.0000 0.36920  0.73388  0.01800  Biso   1.000  C
  C72      1.0000 0.86920  0.76612  0.48200  Biso   1.000  C
  C73      1.0000 0.46390  0.76683  0.74900  Biso   1.000  C
  C74      1.0000 0.96390  0.73317  0.75100  Biso   1.000  C
  C75      1.0000 0.53610  0.26683  0.25100  Biso   1.000  C
  C76      1.0000 0.03610  0.23317  0.24900  Biso   1.000  C
  C77      1.0000 0.53610  0.23317  0.25100  Biso   1.000  C
  C78      1.0000 0.03610  0.26683  0.24900  Biso   1.000  C
  C79      1.0000 0.46390  0.73317  0.74900  Biso   1.000  C
  C80      1.0000 0.96390  0.76683  0.75100  Biso   1.000  C
  C81      1.0000 0.56930  0.75000  0.46700  Biso   1.000  C
  C82      1.0000 0.06930  0.75000  0.03300  Biso   1.000  C
  C83      1.0000 0.43070  0.25000  0.53300  Biso   1.000  C
  C84      1.0000 0.93070  0.25000  0.96700  Biso   1.000  C
  C85      1.0000 0.62450  0.75000  0.30600  Biso   1.000  C
  C86      1.0000 0.12450  0.75000  0.19400  Biso   1.000  C
  C87      1.0000 0.37550  0.25000  0.69400  Biso   1.000  C
  C88      1.0000 0.87550  0.25000  0.80600  Biso   1.000  C
  C89      1.0000 0.72610  0.73419  0.99900  Biso   1.000  C
  C90      1.0000 0.22610  0.76581  0.50100  Biso   1.000  C
  C91      1.0000 0.27390  0.23419  0.00100  Biso   1.000  C
  C92      1.0000 0.77390  0.26581  0.49900  Biso   1.000  C
  C93      1.0000 0.27390  0.26581  0.00100  Biso   1.000  C
  C94      1.0000 0.77390  0.23419  0.49900  Biso   1.000  C
  C95      1.0000 0.72610  0.76581  0.99900  Biso   1.000  C
  C96      1.0000 0.22610  0.73419  0.50100  Biso   1.000  C
  H33      1.0000 0.33310  0.77670  0.11570  Biso   1.000  H
  H34      1.0000 0.83310  0.72330  0.38430  Biso   1.000  H
  H35      1.0000 0.66690  0.27670  0.88430  Biso   1.000  H
  H36      1.0000 0.16690  0.22330  0.61570  Biso   1.000  H
  H37      1.0000 0.66690  0.22330  0.88430  Biso   1.000  H
  H38      1.0000 0.16690  0.27670  0.61570  Biso   1.000  H
  H39      1.0000 0.33310  0.72330  0.11570  Biso   1.000  H
  H40      1.0000 0.83310  0.77670  0.38430  Biso   1.000  H
  H41      1.0000 0.75980  0.72170  0.90140  Biso   1.000  H
  H42      1.0000 0.25980  0.77830  0.59860  Biso   1.000  H
  H43      1.0000 0.24020  0.22170  0.09860  Biso   1.000  H
  H44      1.0000 0.74020  0.27830  0.40140  Biso   1.000  H
  H45      1.0000 0.24020  0.27830  0.09860  Biso   1.000  H
  H46      1.0000 0.74020  0.22170  0.40140  Biso   1.000  H
  H47      1.0000 0.75980  0.77830  0.90140  Biso   1.000  H
  H48      1.0000 0.25980  0.72170  0.59860  Biso   1.000  H
