data_image0
_cell_length_a       9.424
_cell_length_b       12.103
_cell_length_c       9.113
_cell_angle_alpha    110.97
_cell_angle_beta     117.2
_cell_angle_gamma    80.26

_symmetry_space_group_name_H-M    "P 1"
_symmetry_int_tables_number       1

loop_
  _symmetry_equiv_pos_as_xyz
  'x, y, z'

loop_
  _atom_site_label
  _atom_site_occupancy
  _atom_site_fract_x
  _atom_site_fract_y
  _atom_site_fract_z
  _atom_site_thermal_displace_type
  _atom_site_B_iso_or_equiv
  _atom_site_type_symbol
  Cu1      1.0000 0.32664  0.25447  0.15988  Biso   1.000  Cu
  Cu2      1.0000 0.67336  0.74553  0.84012  Biso   1.000  Cu
  S1       1.0000 0.14852  0.20881  0.41331  Biso   1.000  S
  S2       1.0000 0.85148  0.79119  0.58669  Biso   1.000  S
  F1       1.0000 0.92530  0.12010  0.42950  Biso   1.000  F
  F2       1.0000 0.07470  0.87990  0.57050  Biso   1.000  F
  F3       1.0000 0.87780  0.10870  0.17350  Biso   1.000  F
  F4       1.0000 0.12220  0.89130  0.82650  Biso   1.000  F
  F5       1.0000 0.04950  0.99330  0.30040  Biso   1.000  F
  F6       1.0000 0.95050  0.00670  0.69960  Biso   1.000  F
  O1       1.0000 0.20200  0.17740  0.27940  Biso   1.000  O
  O2       1.0000 0.79800  0.82260  0.72060  Biso   1.000  O
  O3       1.0000 0.26170  0.18720  0.56960  Biso   1.000  O
  O4       1.0000 0.73830  0.81280  0.43040  Biso   1.000  O
  O5       1.0000 0.06720  0.31960  0.43510  Biso   1.000  O
  O6       1.0000 0.93280  0.68040  0.56490  Biso   1.000  O
  N1       1.0000 0.43100  0.10350  0.07060  Biso   1.000  N
  N2       1.0000 0.56900  0.89650  0.92940  Biso   1.000  N
  N3       1.0000 0.43740  0.39570  0.36340  Biso   1.000  N
  N4       1.0000 0.56260  0.60430  0.63660  Biso   1.000  N
  N5       1.0000 0.11640  0.29620  0.98120  Biso   1.000  N
  N6       1.0000 0.88360  0.70380  0.01880  Biso   1.000  N
  N7       1.0000 0.82140  0.35420  0.74820  Biso   1.000  N
  N8       1.0000 0.17860  0.64580  0.25180  Biso   1.000  N
  C1       1.0000 0.99300  0.10170  0.32390  Biso   1.000  C
  C2       1.0000 0.00700  0.89830  0.67610  Biso   1.000  C
  C3       1.0000 0.40580  0.06530  0.90330  Biso   1.000  C
  C4       1.0000 0.59420  0.93470  0.09670  Biso   1.000  C
  C5       1.0000 0.52680  0.03710  0.16950  Biso   1.000  C
  C6       1.0000 0.47320  0.96290  0.83050  Biso   1.000  C
  C7       1.0000 0.56160  0.07660  0.35780  Biso   1.000  C
  C8       1.0000 0.43840  0.92340  0.64220  Biso   1.000  C
  C9       1.0000 0.36490  0.45660  0.46500  Biso   1.000  C
  C10      1.0000 0.63510  0.54340  0.53500  Biso   1.000  C
  C11      1.0000 0.57540  0.43940  0.39930  Biso   1.000  C
  C12      1.0000 0.42460  0.56060  0.60070  Biso   1.000  C
  C13      1.0000 0.66480  0.37360  0.29460  Biso   1.000  C
  C14      1.0000 0.33520  0.62640  0.70540  Biso   1.000  C
  C15      1.0000 0.10640  0.36420  0.88770  Biso   1.000  C
  C16      1.0000 0.89360  0.63580  0.11230  Biso   1.000  C
  C17      1.0000 0.95760  0.39030  0.77260  Biso   1.000  C
  C18      1.0000 0.04240  0.60970  0.22740  Biso   1.000  C
  C19      1.0000 0.83150  0.28760  0.84140  Biso   1.000  C
  C20      1.0000 0.16850  0.71240  0.15860  Biso   1.000  C
  C21      1.0000 0.97910  0.25940  0.95570  Biso   1.000  C
  C22      1.0000 0.02090  0.74060  0.04430  Biso   1.000  C
  C23      1.0000 0.25650  0.40790  0.91310  Biso   1.000  C
  C24      1.0000 0.74350  0.59210  0.08690  Biso   1.000  C
  C25      1.0000 0.68230  0.24530  0.82000  Biso   1.000  C
  C26      1.0000 0.31770  0.75470  0.18000  Biso   1.000  C
  H1       1.0000 0.34000  0.11200  0.83200  Biso   1.000  H
  H2       1.0000 0.66000  0.88800  0.16800  Biso   1.000  H
  H3       1.0000 0.47000  0.07500  0.36900  Biso   1.000  H
  H4       1.0000 0.53000  0.92500  0.63100  Biso   1.000  H
  H5       1.0000 0.62800  0.02800  0.41400  Biso   1.000  H
  H6       1.0000 0.37200  0.97200  0.58600  Biso   1.000  H
  H7       1.0000 0.60000  0.14400  0.40600  Biso   1.000  H
  H8       1.0000 0.40000  0.85600  0.59400  Biso   1.000  H
  H9       1.0000 0.26400  0.42700  0.44400  Biso   1.000  H
  H10      1.0000 0.73600  0.57300  0.55600  Biso   1.000  H
  H11      1.0000 0.75700  0.40800  0.32800  Biso   1.000  H
  H12      1.0000 0.24300  0.59200  0.67200  Biso   1.000  H
  H13      1.0000 0.69400  0.29200  0.30700  Biso   1.000  H
  H14      1.0000 0.30600  0.70800  0.69300  Biso   1.000  H
  H15      1.0000 0.61100  0.36000  0.18900  Biso   1.000  H
  H16      1.0000 0.38900  0.64000  0.81100  Biso   1.000  H
  H17      1.0000 0.95100  0.43800  0.70900  Biso   1.000  H
  H18      1.0000 0.04900  0.56200  0.29100  Biso   1.000  H
  H19      1.0000 0.98600  0.21300  0.01300  Biso   1.000  H
  H20      1.0000 0.01400  0.78700  0.98700  Biso   1.000  H
  H21      1.0000 0.33000  0.34200  0.89600  Biso   1.000  H
  H22      1.0000 0.67000  0.65800  0.10400  Biso   1.000  H
  H23      1.0000 0.32000  0.45000  0.03300  Biso   1.000  H
  H24      1.0000 0.68000  0.55000  0.96700  Biso   1.000  H
  H25      1.0000 0.22500  0.44300  0.85000  Biso   1.000  H
  H26      1.0000 0.77500  0.55700  0.15000  Biso   1.000  H
  H27      1.0000 0.60500  0.25400  0.74400  Biso   1.000  H
  H28      1.0000 0.39500  0.74600  0.25600  Biso   1.000  H
  H29      1.0000 0.68200  0.16300  0.77900  Biso   1.000  H
  H30      1.0000 0.31800  0.83700  0.22100  Biso   1.000  H
  H31      1.0000 0.66100  0.29200  0.90300  Biso   1.000  H
  H32      1.0000 0.33900  0.70800  0.09700  Biso   1.000  H
