data_image0
_cell_length_a       9.017
_cell_length_b       14.09
_cell_length_c       13.66
_cell_angle_alpha    90
_cell_angle_beta     97.8
_cell_angle_gamma    90

_symmetry_space_group_name_H-M    "P 1"
_symmetry_int_tables_number       1

loop_
  _symmetry_equiv_pos_as_xyz
  'x, y, z'

loop_
  _atom_site_label
  _atom_site_occupancy
  _atom_site_fract_x
  _atom_site_fract_y
  _atom_site_fract_z
  _atom_site_thermal_displace_type
  _atom_site_B_iso_or_equiv
  _atom_site_type_symbol
  Cu1      1.0000 0.17409  0.69404  0.27844  Biso   1.000  Cu
  Cu2      1.0000 0.32591  0.19404  0.22156  Biso   1.000  Cu
  Cu3      1.0000 0.82591  0.30596  0.72156  Biso   1.000  Cu
  Cu4      1.0000 0.67409  0.80596  0.77844  Biso   1.000  Cu
  Br1      1.0000 0.35078  0.65872  0.16381  Biso   1.000  Br
  Br2      1.0000 0.14922  0.15872  0.33619  Biso   1.000  Br
  Br3      1.0000 0.64922  0.34128  0.83619  Biso   1.000  Br
  Br4      1.0000 0.85078  0.84128  0.66381  Biso   1.000  Br
  S1       1.0000 0.10020  0.85610  0.22170  Biso   1.000  S
  S2       1.0000 0.39980  0.35610  0.27830  Biso   1.000  S
  S3       1.0000 0.89980  0.14390  0.77830  Biso   1.000  S
  S4       1.0000 0.60020  0.64390  0.72170  Biso   1.000  S
  N1       1.0000 0.21280  0.82930  0.44970  Biso   1.000  N
  N2       1.0000 0.28720  0.32930  0.05030  Biso   1.000  N
  N3       1.0000 0.78720  0.17070  0.55030  Biso   1.000  N
  N4       1.0000 0.71280  0.67070  0.94970  Biso   1.000  N
  N5       1.0000 0.27810  0.75050  0.41470  Biso   1.000  N
  N6       1.0000 0.22190  0.25050  0.08530  Biso   1.000  N
  N7       1.0000 0.72190  0.24950  0.58530  Biso   1.000  N
  N8       1.0000 0.77810  0.74950  0.91470  Biso   1.000  N
  C1       1.0000 0.42140  0.75630  0.45560  Biso   1.000  C
  C2       1.0000 0.07860  0.25630  0.04440  Biso   1.000  C
  C3       1.0000 0.57860  0.24370  0.54440  Biso   1.000  C
  C4       1.0000 0.92140  0.74370  0.95560  Biso   1.000  C
  C5       1.0000 0.44720  0.83780  0.51410  Biso   1.000  C
  C6       1.0000 0.05280  0.33780  0.98590  Biso   1.000  C
  C7       1.0000 0.55280  0.16220  0.48590  Biso   1.000  C
  C8       1.0000 0.94720  0.66220  0.01410  Biso   1.000  C
  C9       1.0000 0.31160  0.88250  0.50920  Biso   1.000  C
  C10      1.0000 0.18840  0.38250  0.99080  Biso   1.000  C
  C11      1.0000 0.68840  0.11750  0.49080  Biso   1.000  C
  C12      1.0000 0.81160  0.61750  0.00920  Biso   1.000  C
  C13      1.0000 0.52770  0.67830  0.43850  Biso   1.000  C
  C14      1.0000 0.97230  0.17830  0.06150  Biso   1.000  C
  C15      1.0000 0.47230  0.32170  0.56150  Biso   1.000  C
  C16      1.0000 0.02770  0.82170  0.93850  Biso   1.000  C
  C17      1.0000 0.26990  0.97420  0.55460  Biso   1.000  C
  C18      1.0000 0.23010  0.47420  0.94540  Biso   1.000  C
  C19      1.0000 0.73010  0.02580  0.44540  Biso   1.000  C
  C20      1.0000 0.76990  0.52580  0.05460  Biso   1.000  C
  C21      1.0000 0.05350  0.84430  0.41970  Biso   1.000  C
  C22      1.0000 0.44650  0.34430  0.08030  Biso   1.000  C
  C23      1.0000 0.94650  0.15570  0.58030  Biso   1.000  C
  C24      1.0000 0.55350  0.65570  0.91970  Biso   1.000  C
  C25      1.0000 0.02030  0.90510  0.32560  Biso   1.000  C
  C26      1.0000 0.47970  0.40510  0.17440  Biso   1.000  C
  C27      1.0000 0.97970  0.09490  0.67440  Biso   1.000  C
  C28      1.0000 0.52030  0.59490  0.82560  Biso   1.000  C
  N9       1.0000 0.45560  0.01170  0.15590  Biso   1.000  N
  N10      1.0000 0.04440  0.51170  0.34410  Biso   1.000  N
  N11      1.0000 0.54440  0.98830  0.84410  Biso   1.000  N
  N12      1.0000 0.95560  0.48830  0.65590  Biso   1.000  N
  N13      1.0000 0.48620  0.09900  0.20070  Biso   1.000  N
  N14      1.0000 0.01380  0.59900  0.29930  Biso   1.000  N
  N15      1.0000 0.51380  0.90100  0.79930  Biso   1.000  N
  N16      1.0000 0.98620  0.40100  0.70070  Biso   1.000  N
  C29      1.0000 0.63470  0.10890  0.20280  Biso   1.000  C
  C30      1.0000 0.86530  0.60890  0.29720  Biso   1.000  C
  C31      1.0000 0.36530  0.89110  0.79720  Biso   1.000  C
  C32      1.0000 0.13470  0.39110  0.70280  Biso   1.000  C
  C33      1.0000 0.69600  0.03140  0.16020  Biso   1.000  C
  C34      1.0000 0.80400  0.53140  0.33980  Biso   1.000  C
  C35      1.0000 0.30400  0.96860  0.83980  Biso   1.000  C
  C36      1.0000 0.19600  0.46860  0.66020  Biso   1.000  C
  C37      1.0000 0.58100  0.96940  0.13090  Biso   1.000  C
  C38      1.0000 0.91900  0.46940  0.36910  Biso   1.000  C
  C39      1.0000 0.41900  0.03060  0.86910  Biso   1.000  C
  C40      1.0000 0.08100  0.53060  0.63090  Biso   1.000  C
  C41      1.0000 0.71090  0.19670  0.24770  Biso   1.000  C
  C42      1.0000 0.78910  0.69670  0.25230  Biso   1.000  C
  C43      1.0000 0.28910  0.80330  0.75230  Biso   1.000  C
  C44      1.0000 0.21090  0.30330  0.74770  Biso   1.000  C
  C45      1.0000 0.57760  0.87500  0.07990  Biso   1.000  C
  C46      1.0000 0.92240  0.37500  0.42010  Biso   1.000  C
  C47      1.0000 0.42240  0.12500  0.92010  Biso   1.000  C
  C48      1.0000 0.07760  0.62500  0.57990  Biso   1.000  C
  C49      1.0000 0.30320  0.97260  0.14750  Biso   1.000  C
  C50      1.0000 0.19680  0.47260  0.35250  Biso   1.000  C
  C51      1.0000 0.69680  0.02740  0.85250  Biso   1.000  C
  C52      1.0000 0.80320  0.52740  0.64750  Biso   1.000  C
  C53      1.0000 0.28590  0.91240  0.23750  Biso   1.000  C
  C54      1.0000 0.21410  0.41240  0.26250  Biso   1.000  C
  C55      1.0000 0.71410  0.08760  0.76250  Biso   1.000  C
  C56      1.0000 0.78590  0.58760  0.73750  Biso   1.000  C
  H1       1.0000 0.53980  0.85810  0.54960  Biso   1.000  H
  H2       1.0000 0.96020  0.35810  0.95040  Biso   1.000  H
  H3       1.0000 0.46020  0.14190  0.45040  Biso   1.000  H
  H4       1.0000 0.03980  0.64190  0.04960  Biso   1.000  H
  H5       1.0000 0.79870  0.02280  0.15350  Biso   1.000  H
  H6       1.0000 0.70130  0.52280  0.34650  Biso   1.000  H
  H7       1.0000 0.20130  0.97720  0.84650  Biso   1.000  H
  H8       1.0000 0.29870  0.47720  0.65350  Biso   1.000  H
  H9       1.0000 0.61100  0.70300  0.41080  Biso   1.000  H
  H10      1.0000 0.88900  0.20300  0.08920  Biso   1.000  H
  H11      1.0000 0.38900  0.29700  0.58920  Biso   1.000  H
  H12      1.0000 0.11100  0.79700  0.91080  Biso   1.000  H
  H13      1.0000 0.47660  0.63300  0.39450  Biso   1.000  H
  H14      1.0000 0.02340  0.13300  0.10550  Biso   1.000  H
  H15      1.0000 0.52340  0.36700  0.60550  Biso   1.000  H
  H16      1.0000 0.97660  0.86700  0.89450  Biso   1.000  H
  H17      1.0000 0.56180  0.64830  0.49980  Biso   1.000  H
  H18      1.0000 0.93820  0.14830  0.00020  Biso   1.000  H
  H19      1.0000 0.43820  0.35170  0.50020  Biso   1.000  H
  H20      1.0000 0.06180  0.85170  0.99980  Biso   1.000  H
  H21      1.0000 0.29090  0.96920  0.62450  Biso   1.000  H
  H22      1.0000 0.20910  0.46920  0.87550  Biso   1.000  H
  H23      1.0000 0.70910  0.03080  0.37550  Biso   1.000  H
  H24      1.0000 0.79090  0.53080  0.12450  Biso   1.000  H
  H25      1.0000 0.16580  0.98480  0.53620  Biso   1.000  H
  H26      1.0000 0.33420  0.48480  0.96380  Biso   1.000  H
  H27      1.0000 0.83420  0.01520  0.46380  Biso   1.000  H
  H28      1.0000 0.66580  0.51520  0.03620  Biso   1.000  H
  H29      1.0000 0.32460  0.02610  0.53270  Biso   1.000  H
  H30      1.0000 0.17540  0.52610  0.96730  Biso   1.000  H
  H31      1.0000 0.67540  0.97390  0.46730  Biso   1.000  H
  H32      1.0000 0.82460  0.47390  0.03270  Biso   1.000  H
  H33      1.0000 0.78350  0.17950  0.30190  Biso   1.000  H
  H34      1.0000 0.71650  0.67950  0.19810  Biso   1.000  H
  H35      1.0000 0.21650  0.82050  0.69810  Biso   1.000  H
  H36      1.0000 0.28350  0.32050  0.80190  Biso   1.000  H
  H37      1.0000 0.63750  0.23670  0.27030  Biso   1.000  H
  H38      1.0000 0.86250  0.73670  0.22970  Biso   1.000  H
  H39      1.0000 0.36250  0.76330  0.72970  Biso   1.000  H
  H40      1.0000 0.13750  0.26330  0.77030  Biso   1.000  H
  H41      1.0000 0.75830  0.22980  0.19980  Biso   1.000  H
  H42      1.0000 0.74170  0.72980  0.30020  Biso   1.000  H
  H43      1.0000 0.24170  0.77020  0.80020  Biso   1.000  H
  H44      1.0000 0.25830  0.27020  0.69980  Biso   1.000  H
  H45      1.0000 0.61200  0.88170  0.01750  Biso   1.000  H
  H46      1.0000 0.88800  0.38170  0.48250  Biso   1.000  H
  H47      1.0000 0.38800  0.11830  0.98250  Biso   1.000  H
  H48      1.0000 0.11200  0.61830  0.51750  Biso   1.000  H
  H49      1.0000 0.47730  0.85250  0.07050  Biso   1.000  H
  H50      1.0000 0.02270  0.35250  0.42950  Biso   1.000  H
  H51      1.0000 0.52270  0.14750  0.92950  Biso   1.000  H
  H52      1.0000 0.97730  0.64750  0.57050  Biso   1.000  H
  H53      1.0000 0.63940  0.83070  0.11910  Biso   1.000  H
  H54      1.0000 0.86060  0.33070  0.38090  Biso   1.000  H
  H55      1.0000 0.36060  0.16930  0.88090  Biso   1.000  H
  H56      1.0000 0.13940  0.66930  0.61910  Biso   1.000  H
  H57      1.0000 0.00670  0.78400  0.40740  Biso   1.000  H
  H58      1.0000 0.49330  0.28400  0.09260  Biso   1.000  H
  H59      1.0000 0.99330  0.21600  0.59260  Biso   1.000  H
  H60      1.0000 0.50670  0.71600  0.90740  Biso   1.000  H
  H61      1.0000 0.01250  0.87510  0.47200  Biso   1.000  H
  H62      1.0000 0.48750  0.37510  0.02800  Biso   1.000  H
  H63      1.0000 0.98750  0.12490  0.52800  Biso   1.000  H
  H64      1.0000 0.51250  0.62490  0.97200  Biso   1.000  H
  H65      1.0000 0.91520  0.91090  0.30780  Biso   1.000  H
  H66      1.0000 0.58480  0.41090  0.19220  Biso   1.000  H
  H67      1.0000 0.08480  0.08910  0.69220  Biso   1.000  H
  H68      1.0000 0.41520  0.58910  0.80780  Biso   1.000  H
  H69      1.0000 0.06140  0.96690  0.33970  Biso   1.000  H
  H70      1.0000 0.43860  0.46690  0.16030  Biso   1.000  H
  H71      1.0000 0.93860  0.03310  0.66030  Biso   1.000  H
  H72      1.0000 0.56140  0.53310  0.83970  Biso   1.000  H
  H73      1.0000 0.23300  0.02350  0.14370  Biso   1.000  H
  H74      1.0000 0.26700  0.52350  0.35630  Biso   1.000  H
  H75      1.0000 0.76700  0.97650  0.85630  Biso   1.000  H
  H76      1.0000 0.73300  0.47650  0.64370  Biso   1.000  H
  H77      1.0000 0.28440  0.93360  0.09030  Biso   1.000  H
  H78      1.0000 0.21560  0.43360  0.40970  Biso   1.000  H
  H79      1.0000 0.71560  0.06640  0.90970  Biso   1.000  H
  H80      1.0000 0.78440  0.56640  0.59030  Biso   1.000  H
  H81      1.0000 0.36150  0.86470  0.24420  Biso   1.000  H
  H82      1.0000 0.13850  0.36470  0.25580  Biso   1.000  H
  H83      1.0000 0.63850  0.13530  0.75580  Biso   1.000  H
  H84      1.0000 0.86150  0.63530  0.74420  Biso   1.000  H
  H85      1.0000 0.29650  0.95230  0.29420  Biso   1.000  H
  H86      1.0000 0.20350  0.45230  0.20580  Biso   1.000  H
  H87      1.0000 0.70350  0.04770  0.70580  Biso   1.000  H
  H88      1.0000 0.79650  0.54770  0.79420  Biso   1.000  H
