data_image0
_cell_length_a       9.6457
_cell_length_b       10.5521
_cell_length_c       12.0381
_cell_angle_alpha    103.642
_cell_angle_beta     108.924
_cell_angle_gamma    90.019

_symmetry_space_group_name_H-M    "P 1"
_symmetry_int_tables_number       1

loop_
  _symmetry_equiv_pos_as_xyz
  'x, y, z'

loop_
  _atom_site_label
  _atom_site_occupancy
  _atom_site_fract_x
  _atom_site_fract_y
  _atom_site_fract_z
  _atom_site_thermal_displace_type
  _atom_site_B_iso_or_equiv
  _atom_site_type_symbol
  Cu1      1.0000 0.37284  0.47241  0.38638  Biso   1.000  Cu
  Cu2      1.0000 0.62716  0.52759  0.61362  Biso   1.000  Cu
  I1       1.0000 0.36166  0.43668  0.59582  Biso   1.000  I
  I2       1.0000 0.63834  0.56332  0.40418  Biso   1.000  I
  N1       1.0000 0.26870  0.63980  0.36890  Biso   1.000  N
  N2       1.0000 0.73130  0.36020  0.63110  Biso   1.000  N
  C1       1.0000 0.29720  0.70870  0.29480  Biso   1.000  C
  C2       1.0000 0.70280  0.29130  0.70520  Biso   1.000  C
  H1       1.0000 0.37260  0.68490  0.26100  Biso   1.000  H
  H2       1.0000 0.62740  0.31510  0.73900  Biso   1.000  H
  C3       1.0000 0.21690  0.81340  0.26870  Biso   1.000  C
  C4       1.0000 0.78310  0.18660  0.73130  Biso   1.000  C
  H3       1.0000 0.23600  0.86080  0.21640  Biso   1.000  H
  H4       1.0000 0.76400  0.13920  0.78360  Biso   1.000  H
  C5       1.0000 0.10970  0.84730  0.31950  Biso   1.000  C
  C6       1.0000 0.89030  0.15270  0.68050  Biso   1.000  C
  H5       1.0000 0.05450  0.91950  0.30400  Biso   1.000  H
  H6       1.0000 0.94550  0.08050  0.69600  Biso   1.000  H
  C7       1.0000 0.08280  0.77480  0.39390  Biso   1.000  C
  C8       1.0000 0.91720  0.22520  0.60610  Biso   1.000  C
  C9       1.0000 0.16790  0.67070  0.41430  Biso   1.000  C
  C10      1.0000 0.83210  0.32930  0.58570  Biso   1.000  C
  H7       1.0000 0.14960  0.62030  0.46460  Biso   1.000  H
  H8       1.0000 0.85040  0.37970  0.53540  Biso   1.000  H
  C11      1.0000 0.96530  0.80300  0.45030  Biso   1.000  C
  C12      1.0000 0.03470  0.19700  0.54970  Biso   1.000  C
  H9       1.0000 0.87190  0.75350  0.39410  Biso   1.000  H
  H10      1.0000 0.12810  0.24650  0.60590  Biso   1.000  H
  H11      1.0000 0.99260  0.77300  0.52590  Biso   1.000  H
  H12      1.0000 0.00740  0.22700  0.47410  Biso   1.000  H
  N3       1.0000 0.94360  0.94050  0.47750  Biso   1.000  N
  N4       1.0000 0.05640  0.05950  0.52250  Biso   1.000  N
  C13      1.0000 0.89980  0.98330  0.56750  Biso   1.000  C
  C14      1.0000 0.10020  0.01670  0.43250  Biso   1.000  C
  H13      1.0000 0.85910  0.91290  0.58690  Biso   1.000  H
  H14      1.0000 0.14090  0.08710  0.41310  Biso   1.000  H
  N5       1.0000 0.75580  0.37260  0.63400  Biso   1.000  N
  N6       1.0000 0.24420  0.62740  0.36600  Biso   1.000  N
  C15      1.0000 0.72450  0.27770  0.67950  Biso   1.000  C
  C16      1.0000 0.27550  0.72230  0.32050  Biso   1.000  C
  H15      1.0000 0.66510  0.29920  0.72960  Biso   1.000  H
  H16      1.0000 0.33490  0.70080  0.27040  Biso   1.000  H
  C17      1.0000 0.76740  0.15180  0.66340  Biso   1.000  C
  C18      1.0000 0.23260  0.84820  0.33660  Biso   1.000  C
  H17      1.0000 0.73700  0.09100  0.69970  Biso   1.000  H
  H18      1.0000 0.26300  0.90900  0.30030  Biso   1.000  H
  C19      1.0000 0.85630  0.11700  0.59260  Biso   1.000  C
  C20      1.0000 0.14370  0.88300  0.40740  Biso   1.000  C
  C21      1.0000 0.89620  0.20970  0.54010  Biso   1.000  C
  C22      1.0000 0.10380  0.79030  0.45990  Biso   1.000  C
  H19      1.0000 0.95740  0.18900  0.49140  Biso   1.000  H
  H20      1.0000 0.04260  0.81100  0.50860  Biso   1.000  H
  C23      1.0000 0.84470  0.33210  0.56060  Biso   1.000  C
  C24      1.0000 0.15530  0.66790  0.43940  Biso   1.000  C
  H21      1.0000 0.87060  0.39360  0.52290  Biso   1.000  H
  H22      1.0000 0.12940  0.60640  0.47710  Biso   1.000  H
  P1       1.0000 0.28783  0.29332  0.23600  Biso   1.000  P
  P2       1.0000 0.71217  0.70668  0.76400  Biso   1.000  P
  C25      1.0000 0.26420  0.32223  0.08759  Biso   1.000  C
  C26      1.0000 0.73580  0.67777  0.91241  Biso   1.000  C
  C27      1.0000 0.12710  0.34200  0.01150  Biso   1.000  C
  C28      1.0000 0.87290  0.65800  0.98850  Biso   1.000  C
  H23      1.0000 0.04200  0.33180  0.03290  Biso   1.000  H
  H24      1.0000 0.95800  0.66820  0.96710  Biso   1.000  H
  C29      1.0000 0.11400  0.37680  0.90410  Biso   1.000  C
  C30      1.0000 0.88600  0.62320  0.09590  Biso   1.000  C
  H25      1.0000 0.02030  0.39200  0.85340  Biso   1.000  H
  H26      1.0000 0.97970  0.60800  0.14660  Biso   1.000  H
  C31      1.0000 0.23650  0.38930  0.87120  Biso   1.000  C
  C32      1.0000 0.76350  0.61070  0.12880  Biso   1.000  C
  H27      1.0000 0.22690  0.41140  0.79710  Biso   1.000  H
  H28      1.0000 0.77310  0.58860  0.20290  Biso   1.000  H
  C33      1.0000 0.37340  0.36960  0.94574  Biso   1.000  C
  C34      1.0000 0.62660  0.63040  0.05426  Biso   1.000  C
  H29      1.0000 0.45760  0.37780  0.92270  Biso   1.000  H
  H30      1.0000 0.54240  0.62220  0.07730  Biso   1.000  H
  C35      1.0000 0.38790  0.33777  0.05435  Biso   1.000  C
  C36      1.0000 0.61210  0.66223  0.94565  Biso   1.000  C
  H31      1.0000 0.48250  0.32650  0.10630  Biso   1.000  H
  H32      1.0000 0.51750  0.67350  0.89370  Biso   1.000  H
  C37      1.0000 0.39404  0.15053  0.24042  Biso   1.000  C
  C38      1.0000 0.60596  0.84947  0.75958  Biso   1.000  C
  C39      1.0000 0.47640  0.13290  0.35339  Biso   1.000  C
  C40      1.0000 0.52360  0.86710  0.64661  Biso   1.000  C
  H33      1.0000 0.47940  0.19640  0.42490  Biso   1.000  H
  H34      1.0000 0.52060  0.80360  0.57510  Biso   1.000  H
  C41      1.0000 0.55430  0.02300  0.36220  Biso   1.000  C
  C42      1.0000 0.44570  0.97700  0.63780  Biso   1.000  C
  H35      1.0000 0.60940  0.01140  0.43990  Biso   1.000  H
  H36      1.0000 0.39060  0.98860  0.56010  Biso   1.000  H
  C43      1.0000 0.55220  0.93040  0.25920  Biso   1.000  C
  C44      1.0000 0.44780  0.06960  0.74080  Biso   1.000  C
  H37      1.0000 0.60490  0.85500  0.26600  Biso   1.000  H
  H38      1.0000 0.39510  0.14500  0.73400  Biso   1.000  H
  C45      1.0000 0.47400  0.94753  0.14712  Biso   1.000  C
  C46      1.0000 0.52600  0.05247  0.85288  Biso   1.000  C
  H39      1.0000 0.47340  0.88440  0.07610  Biso   1.000  H
  H40      1.0000 0.52660  0.11560  0.92390  Biso   1.000  H
  C47      1.0000 0.39530  0.05741  0.13709  Biso   1.000  C
  C48      1.0000 0.60470  0.94259  0.86291  Biso   1.000  C
  H41      1.0000 0.34200  0.06900  0.05910  Biso   1.000  H
  H42      1.0000 0.65800  0.93100  0.94090  Biso   1.000  H
  C49      1.0000 0.10288  0.22992  0.21756  Biso   1.000  C
  C50      1.0000 0.89712  0.77008  0.78244  Biso   1.000  C
  C51      1.0000 0.01310  0.31778  0.26040  Biso   1.000  C
  C52      1.0000 0.98690  0.68222  0.73960  Biso   1.000  C
  H43      1.0000 0.04980  0.40630  0.29890  Biso   1.000  H
  H44      1.0000 0.95020  0.59370  0.70110  Biso   1.000  H
  C53      1.0000 0.86990  0.27710  0.24729  Biso   1.000  C
  C54      1.0000 0.13010  0.72290  0.75271  Biso   1.000  C
  H45      1.0000 0.80860  0.33810  0.27500  Biso   1.000  H
  H46      1.0000 0.19140  0.66190  0.72500  Biso   1.000  H
  C55      1.0000 0.81740  0.14730  0.19370  Biso   1.000  C
  C56      1.0000 0.18260  0.85270  0.80630  Biso   1.000  C
  H47      1.0000 0.72040  0.11890  0.18580  Biso   1.000  H
  H48      1.0000 0.27960  0.88110  0.81420  Biso   1.000  H
  C57      1.0000 0.90580  0.05910  0.15160  Biso   1.000  C
  C58      1.0000 0.09420  0.94090  0.84840  Biso   1.000  C
  H49      1.0000 0.86970  0.97000  0.11550  Biso   1.000  H
  H50      1.0000 0.13030  0.03000  0.88450  Biso   1.000  H
  C59      1.0000 0.04790  0.10038  0.16201  Biso   1.000  C
  C60      1.0000 0.95210  0.89962  0.83799  Biso   1.000  C
  H51      1.0000 0.10730  0.03980  0.13100  Biso   1.000  H
  H52      1.0000 0.89270  0.96020  0.86900  Biso   1.000  H
