data_image0
_cell_length_a       12.8
_cell_length_b       14.737
_cell_length_c       12.833
_cell_angle_alpha    90
_cell_angle_beta     97.56
_cell_angle_gamma    90

_symmetry_space_group_name_H-M    "P 1"
_symmetry_int_tables_number       1

loop_
  _symmetry_equiv_pos_as_xyz
  'x, y, z'

loop_
  _atom_site_label
  _atom_site_occupancy
  _atom_site_fract_x
  _atom_site_fract_y
  _atom_site_fract_z
  _atom_site_thermal_displace_type
  _atom_site_B_iso_or_equiv
  _atom_site_type_symbol
  Cu1      1.0000 0.31290  0.18760  0.38760  Biso   1.000  Cu
  Cu2      1.0000 0.18710  0.68760  0.61240  Biso   1.000  Cu
  Cu3      1.0000 0.68710  0.81240  0.61240  Biso   1.000  Cu
  Cu4      1.0000 0.81290  0.31240  0.38760  Biso   1.000  Cu
  Cu5      1.0000 0.18750  0.81620  0.06450  Biso   1.000  Cu
  Cu6      1.0000 0.31250  0.31620  0.93550  Biso   1.000  Cu
  Cu7      1.0000 0.81250  0.18380  0.93550  Biso   1.000  Cu
  Cu8      1.0000 0.68750  0.68380  0.06450  Biso   1.000  Cu
  Cl1      1.0000 0.08210  0.59450  0.25570  Biso   1.000  Cl
  Cl2      1.0000 0.41790  0.09450  0.74430  Biso   1.000  Cl
  Cl3      1.0000 0.91790  0.40550  0.74430  Biso   1.000  Cl
  Cl4      1.0000 0.58210  0.90550  0.25570  Biso   1.000  Cl
  Cl5      1.0000 0.43230  0.40820  0.22080  Biso   1.000  Cl
  Cl6      1.0000 0.06770  0.90820  0.77920  Biso   1.000  Cl
  Cl7      1.0000 0.56770  0.59180  0.77920  Biso   1.000  Cl
  Cl8      1.0000 0.93230  0.09180  0.22080  Biso   1.000  Cl
  O1       1.0000 0.15790  0.62200  0.19360  Biso   1.000  O
  O2       1.0000 0.34210  0.12200  0.80640  Biso   1.000  O
  O3       1.0000 0.84210  0.37800  0.80640  Biso   1.000  O
  O4       1.0000 0.65790  0.87800  0.19360  Biso   1.000  O
  O5       1.0000 0.99040  0.56440  0.19440  Biso   1.000  O
  O6       1.0000 0.50960  0.06440  0.80560  Biso   1.000  O
  O7       1.0000 0.00960  0.43560  0.80560  Biso   1.000  O
  O8       1.0000 0.49040  0.93560  0.19440  Biso   1.000  O
  O9       1.0000 0.12280  0.52060  0.31610  Biso   1.000  O
  O10      1.0000 0.37720  0.02060  0.68390  Biso   1.000  O
  O11      1.0000 0.87720  0.47940  0.68390  Biso   1.000  O
  O12      1.0000 0.62280  0.97940  0.31610  Biso   1.000  O
  O13      1.0000 0.06090  0.66210  0.32120  Biso   1.000  O
  O14      1.0000 0.43910  0.16210  0.67880  Biso   1.000  O
  O15      1.0000 0.93910  0.33790  0.67880  Biso   1.000  O
  O16      1.0000 0.56090  0.83790  0.32120  Biso   1.000  O
  O17      1.0000 0.50950  0.34030  0.21170  Biso   1.000  O
  O18      1.0000 0.99050  0.84030  0.78830  Biso   1.000  O
  O19      1.0000 0.49050  0.65970  0.78830  Biso   1.000  O
  O20      1.0000 0.00950  0.15970  0.21170  Biso   1.000  O
  O21      1.0000 0.34580  0.36620  0.25350  Biso   1.000  O
  O22      1.0000 0.15420  0.86620  0.74650  Biso   1.000  O
  O23      1.0000 0.65420  0.63380  0.74650  Biso   1.000  O
  O24      1.0000 0.84580  0.13380  0.25350  Biso   1.000  O
  O25      1.0000 0.40560  0.44890  0.12100  Biso   1.000  O
  O26      1.0000 0.09440  0.94890  0.87900  Biso   1.000  O
  O27      1.0000 0.59440  0.55110  0.87900  Biso   1.000  O
  O28      1.0000 0.90560  0.05110  0.12100  Biso   1.000  O
  O29      1.0000 0.48250  0.47050  0.29230  Biso   1.000  O
  O30      1.0000 0.01750  0.97050  0.70770  Biso   1.000  O
  O31      1.0000 0.51750  0.52950  0.70770  Biso   1.000  O
  O32      1.0000 0.98250  0.02950  0.29230  Biso   1.000  O
  N1       1.0000 0.03580  0.78360  0.04350  Biso   1.000  N
  N2       1.0000 0.46420  0.28360  0.95650  Biso   1.000  N
  N3       1.0000 0.96420  0.21640  0.95650  Biso   1.000  N
  N4       1.0000 0.53580  0.71640  0.04350  Biso   1.000  N
  C1       1.0000 0.99950  0.70900  0.99270  Biso   1.000  C
  C2       1.0000 0.50050  0.20900  0.00730  Biso   1.000  C
  C3       1.0000 0.00050  0.29100  0.00730  Biso   1.000  C
  C4       1.0000 0.49950  0.79100  0.99270  Biso   1.000  C
  C5       1.0000 0.89480  0.68260  0.99120  Biso   1.000  C
  C6       1.0000 0.60520  0.18260  0.00880  Biso   1.000  C
  C7       1.0000 0.10520  0.31740  0.00880  Biso   1.000  C
  C8       1.0000 0.39480  0.81740  0.99120  Biso   1.000  C
  N5       1.0000 0.82800  0.73270  0.04150  Biso   1.000  N
  N6       1.0000 0.67200  0.23270  0.95850  Biso   1.000  N
  N7       1.0000 0.17200  0.26730  0.95850  Biso   1.000  N
  N8       1.0000 0.32800  0.76730  0.04150  Biso   1.000  N
  C9       1.0000 0.86590  0.80840  0.08790  Biso   1.000  C
  C10      1.0000 0.63410  0.30840  0.91210  Biso   1.000  C
  C11      1.0000 0.13410  0.19160  0.91210  Biso   1.000  C
  C12      1.0000 0.36590  0.69160  0.08790  Biso   1.000  C
  C13      1.0000 0.96860  0.83350  0.09120  Biso   1.000  C
  C14      1.0000 0.53140  0.33350  0.90880  Biso   1.000  C
  C15      1.0000 0.03140  0.16650  0.90880  Biso   1.000  C
  C16      1.0000 0.46860  0.66650  0.09120  Biso   1.000  C
  C17      1.0000 0.85530  0.59460  0.94190  Biso   1.000  C
  C18      1.0000 0.64470  0.09460  0.05810  Biso   1.000  C
  C19      1.0000 0.14470  0.40540  0.05810  Biso   1.000  C
  C20      1.0000 0.35530  0.90540  0.94190  Biso   1.000  C
  C21      1.0000 0.07510  0.65610  0.93710  Biso   1.000  C
  C22      1.0000 0.42490  0.15610  0.06290  Biso   1.000  C
  C23      1.0000 0.92490  0.34390  0.06290  Biso   1.000  C
  C24      1.0000 0.57510  0.84390  0.93710  Biso   1.000  C
  C25      1.0000 0.13430  0.30710  0.35970  Biso   1.000  C
  C26      1.0000 0.36570  0.80710  0.64030  Biso   1.000  C
  C27      1.0000 0.86570  0.69290  0.64030  Biso   1.000  C
  C28      1.0000 0.63430  0.19290  0.35970  Biso   1.000  C
  N9       1.0000 0.17450  0.23490  0.41410  Biso   1.000  N
  N10      1.0000 0.32550  0.73490  0.58590  Biso   1.000  N
  N11      1.0000 0.82550  0.76510  0.58590  Biso   1.000  N
  N12      1.0000 0.67450  0.26510  0.41410  Biso   1.000  N
  C29      1.0000 0.11110  0.18700  0.47040  Biso   1.000  C
  C30      1.0000 0.38890  0.68700  0.52960  Biso   1.000  C
  C31      1.0000 0.88890  0.81300  0.52960  Biso   1.000  C
  C32      1.0000 0.61110  0.31300  0.47040  Biso   1.000  C
  C33      1.0000 0.00470  0.21240  0.46920  Biso   1.000  C
  C34      1.0000 0.49530  0.71240  0.53080  Biso   1.000  C
  C35      1.0000 0.99530  0.78760  0.53080  Biso   1.000  C
  C36      1.0000 0.50470  0.28760  0.46920  Biso   1.000  C
  N13      1.0000 0.96430  0.28380  0.41180  Biso   1.000  N
  N14      1.0000 0.53570  0.78380  0.58820  Biso   1.000  N
  N15      1.0000 0.03570  0.71620  0.58820  Biso   1.000  N
  N16      1.0000 0.46430  0.21620  0.41180  Biso   1.000  N
  C37      1.0000 0.02940  0.33180  0.35930  Biso   1.000  C
  C38      1.0000 0.47060  0.83180  0.64070  Biso   1.000  C
  C39      1.0000 0.97060  0.66820  0.64070  Biso   1.000  C
  C40      1.0000 0.52940  0.16820  0.35930  Biso   1.000  C
  C41      1.0000 0.15660  0.10800  0.53290  Biso   1.000  C
  C42      1.0000 0.34340  0.60800  0.46710  Biso   1.000  C
  C43      1.0000 0.84340  0.89200  0.46710  Biso   1.000  C
  C44      1.0000 0.65660  0.39200  0.53290  Biso   1.000  C
  C45      1.0000 0.93150  0.15830  0.52720  Biso   1.000  C
  C46      1.0000 0.56850  0.65830  0.47280  Biso   1.000  C
  C47      1.0000 0.06850  0.84170  0.47280  Biso   1.000  C
  C48      1.0000 0.43150  0.34170  0.52720  Biso   1.000  C
  C49      1.0000 0.22530  0.08430  0.19560  Biso   1.000  C
  C50      1.0000 0.27470  0.58430  0.80440  Biso   1.000  C
  C51      1.0000 0.77470  0.91570  0.80440  Biso   1.000  C
  C52      1.0000 0.72530  0.41570  0.19560  Biso   1.000  C
  N17      1.0000 0.28030  0.07460  0.29140  Biso   1.000  N
  N18      1.0000 0.21970  0.57460  0.70860  Biso   1.000  N
  N19      1.0000 0.71970  0.92540  0.70860  Biso   1.000  N
  N20      1.0000 0.78030  0.42540  0.29140  Biso   1.000  N
  C53      1.0000 0.29880  0.98970  0.32540  Biso   1.000  C
  C54      1.0000 0.20120  0.48970  0.67460  Biso   1.000  C
  C55      1.0000 0.70120  0.01030  0.67460  Biso   1.000  C
  C56      1.0000 0.79880  0.51030  0.32540  Biso   1.000  C
  C57      1.0000 0.26370  0.91520  0.26190  Biso   1.000  C
  C58      1.0000 0.23630  0.41520  0.73810  Biso   1.000  C
  C59      1.0000 0.73630  0.08480  0.73810  Biso   1.000  C
  C60      1.0000 0.76370  0.58480  0.26190  Biso   1.000  C
  N21      1.0000 0.21380  0.92640  0.16590  Biso   1.000  N
  N22      1.0000 0.28620  0.42640  0.83410  Biso   1.000  N
  N23      1.0000 0.78620  0.07360  0.83410  Biso   1.000  N
  N24      1.0000 0.71380  0.57360  0.16590  Biso   1.000  N
  C61      1.0000 0.19390  0.01280  0.13390  Biso   1.000  C
  C62      1.0000 0.30610  0.51280  0.86610  Biso   1.000  C
  C63      1.0000 0.80610  0.98720  0.86610  Biso   1.000  C
  C64      1.0000 0.69390  0.48720  0.13390  Biso   1.000  C
  C65      1.0000 0.28440  0.82050  0.29820  Biso   1.000  C
  C66      1.0000 0.21560  0.32050  0.70180  Biso   1.000  C
  C67      1.0000 0.71560  0.17950  0.70180  Biso   1.000  C
  C68      1.0000 0.78440  0.67950  0.29820  Biso   1.000  C
  C69      1.0000 0.36040  0.97690  0.42970  Biso   1.000  C
  C70      1.0000 0.13960  0.47690  0.57030  Biso   1.000  C
  C71      1.0000 0.63960  0.02310  0.57030  Biso   1.000  C
  C72      1.0000 0.86040  0.52310  0.42970  Biso   1.000  C
  H1       1.0000 0.81900  0.84710  0.12020  Biso   1.000  H
  H2       1.0000 0.68100  0.34710  0.87980  Biso   1.000  H
  H3       1.0000 0.18100  0.15290  0.87980  Biso   1.000  H
  H4       1.0000 0.31900  0.65290  0.12020  Biso   1.000  H
  H5       1.0000 0.99320  0.88760  0.12830  Biso   1.000  H
  H6       1.0000 0.50680  0.38760  0.87170  Biso   1.000  H
  H7       1.0000 0.00680  0.11240  0.87170  Biso   1.000  H
  H8       1.0000 0.49320  0.61240  0.12830  Biso   1.000  H
  H9       1.0000 0.91030  0.56620  0.90940  Biso   1.000  H
  H10      1.0000 0.58970  0.06620  0.09060  Biso   1.000  H
  H11      1.0000 0.08970  0.43380  0.09060  Biso   1.000  H
  H12      1.0000 0.41030  0.93380  0.90940  Biso   1.000  H
  H13      1.0000 0.79580  0.60610  0.88980  Biso   1.000  H
  H14      1.0000 0.70420  0.10610  0.11020  Biso   1.000  H
  H15      1.0000 0.20420  0.39390  0.11020  Biso   1.000  H
  H16      1.0000 0.29580  0.89390  0.88980  Biso   1.000  H
  H17      1.0000 0.83460  0.55520  0.99510  Biso   1.000  H
  H18      1.0000 0.66540  0.05520  0.00490  Biso   1.000  H
  H19      1.0000 0.16540  0.44480  0.00490  Biso   1.000  H
  H20      1.0000 0.33460  0.94480  0.99510  Biso   1.000  H
  H21      1.0000 0.03940  0.60520  0.90200  Biso   1.000  H
  H22      1.0000 0.46060  0.10520  0.09800  Biso   1.000  H
  H23      1.0000 0.96060  0.39480  0.09800  Biso   1.000  H
  H24      1.0000 0.53940  0.89480  0.90200  Biso   1.000  H
  H25      1.0000 0.13210  0.63490  0.98730  Biso   1.000  H
  H26      1.0000 0.36790  0.13490  0.01270  Biso   1.000  H
  H27      1.0000 0.86790  0.36510  0.01270  Biso   1.000  H
  H28      1.0000 0.63210  0.86510  0.98730  Biso   1.000  H
  H29      1.0000 0.10240  0.69430  0.88640  Biso   1.000  H
  H30      1.0000 0.39760  0.19430  0.11360  Biso   1.000  H
  H31      1.0000 0.89760  0.30570  0.11360  Biso   1.000  H
  H32      1.0000 0.60240  0.80570  0.88640  Biso   1.000  H
  H33      1.0000 0.17850  0.34220  0.32020  Biso   1.000  H
  H34      1.0000 0.32150  0.84220  0.67980  Biso   1.000  H
  H35      1.0000 0.82150  0.65780  0.67980  Biso   1.000  H
  H36      1.0000 0.67850  0.15780  0.32020  Biso   1.000  H
  H37      1.0000 0.00310  0.38470  0.32080  Biso   1.000  H
  H38      1.0000 0.49690  0.88470  0.67920  Biso   1.000  H
  H39      1.0000 0.99690  0.61530  0.67920  Biso   1.000  H
  H40      1.0000 0.50310  0.11530  0.32080  Biso   1.000  H
  H41      1.0000 0.10390  0.08180  0.57050  Biso   1.000  H
  H42      1.0000 0.39610  0.58180  0.42950  Biso   1.000  H
  H43      1.0000 0.89610  0.91820  0.42950  Biso   1.000  H
  H44      1.0000 0.60390  0.41820  0.57050  Biso   1.000  H
  H45      1.0000 0.17990  0.06340  0.48660  Biso   1.000  H
  H46      1.0000 0.32010  0.56340  0.51340  Biso   1.000  H
  H47      1.0000 0.82010  0.93660  0.51340  Biso   1.000  H
  H48      1.0000 0.67990  0.43660  0.48660  Biso   1.000  H
  H49      1.0000 0.21520  0.12780  0.58200  Biso   1.000  H
  H50      1.0000 0.28480  0.62780  0.41800  Biso   1.000  H
  H51      1.0000 0.78480  0.87220  0.41800  Biso   1.000  H
  H52      1.0000 0.71520  0.37220  0.58200  Biso   1.000  H
  H53      1.0000 0.97020  0.11080  0.56630  Biso   1.000  H
  H54      1.0000 0.52980  0.61080  0.43370  Biso   1.000  H
  H55      1.0000 0.02980  0.88920  0.43370  Biso   1.000  H
  H56      1.0000 0.47020  0.38920  0.56630  Biso   1.000  H
  H57      1.0000 0.90060  0.19740  0.57460  Biso   1.000  H
  H58      1.0000 0.59940  0.69740  0.42540  Biso   1.000  H
  H59      1.0000 0.09940  0.80260  0.42540  Biso   1.000  H
  H60      1.0000 0.40060  0.30260  0.57460  Biso   1.000  H
  H61      1.0000 0.87690  0.13220  0.47780  Biso   1.000  H
  H62      1.0000 0.62310  0.63220  0.52220  Biso   1.000  H
  H63      1.0000 0.12310  0.86780  0.52220  Biso   1.000  H
  H64      1.0000 0.37690  0.36780  0.47780  Biso   1.000  H
  H65      1.0000 0.20770  0.14440  0.17020  Biso   1.000  H
  H66      1.0000 0.29230  0.64440  0.82980  Biso   1.000  H
  H67      1.0000 0.79230  0.85560  0.82980  Biso   1.000  H
  H68      1.0000 0.70770  0.35560  0.17020  Biso   1.000  H
  H69      1.0000 0.15620  0.02350  0.06530  Biso   1.000  H
  H70      1.0000 0.34380  0.52350  0.93470  Biso   1.000  H
  H71      1.0000 0.84380  0.97650  0.93470  Biso   1.000  H
  H72      1.0000 0.65620  0.47650  0.06530  Biso   1.000  H
  H73      1.0000 0.32070  0.82100  0.36860  Biso   1.000  H
  H74      1.0000 0.17930  0.32100  0.63140  Biso   1.000  H
  H75      1.0000 0.67930  0.17900  0.63140  Biso   1.000  H
  H76      1.0000 0.82070  0.67900  0.36860  Biso   1.000  H
  H77      1.0000 0.32710  0.79050  0.25260  Biso   1.000  H
  H78      1.0000 0.17290  0.29050  0.74740  Biso   1.000  H
  H79      1.0000 0.67290  0.20950  0.74740  Biso   1.000  H
  H80      1.0000 0.82710  0.70950  0.25260  Biso   1.000  H
  H81      1.0000 0.21880  0.78880  0.29700  Biso   1.000  H
  H82      1.0000 0.28120  0.28880  0.70300  Biso   1.000  H
  H83      1.0000 0.78120  0.21120  0.70300  Biso   1.000  H
  H84      1.0000 0.71880  0.71120  0.29700  Biso   1.000  H
  H85      1.0000 0.36840  0.91320  0.44430  Biso   1.000  H
  H86      1.0000 0.13160  0.41320  0.55570  Biso   1.000  H
  H87      1.0000 0.63160  0.08680  0.55570  Biso   1.000  H
  H88      1.0000 0.86840  0.58680  0.44430  Biso   1.000  H
  H89      1.0000 0.32440  0.00500  0.48230  Biso   1.000  H
  H90      1.0000 0.17560  0.50500  0.51770  Biso   1.000  H
  H91      1.0000 0.67560  0.99500  0.51770  Biso   1.000  H
  H92      1.0000 0.82440  0.49500  0.48230  Biso   1.000  H
  H93      1.0000 0.42870  0.00410  0.43040  Biso   1.000  H
  H94      1.0000 0.07130  0.50410  0.56960  Biso   1.000  H
  H95      1.0000 0.57130  0.99590  0.56960  Biso   1.000  H
  H96      1.0000 0.92870  0.49590  0.43040  Biso   1.000  H
