data_image0
_cell_length_a       13.264
_cell_length_b       13.611
_cell_length_c       14.666
_cell_angle_alpha    109.4
_cell_angle_beta     116.56
_cell_angle_gamma    98.51

_symmetry_space_group_name_H-M    "P 1"
_symmetry_int_tables_number       1

loop_
  _symmetry_equiv_pos_as_xyz
  'x, y, z'

loop_
  _atom_site_label
  _atom_site_occupancy
  _atom_site_fract_x
  _atom_site_fract_y
  _atom_site_fract_z
  _atom_site_thermal_displace_type
  _atom_site_B_iso_or_equiv
  _atom_site_type_symbol
  W1       1.0000 0.55270  0.47928  0.75186  Biso   1.000  W
  W2       1.0000 0.44730  0.52072  0.24814  Biso   1.000  W
  W3       1.0000 0.39774  0.65546  0.66736  Biso   1.000  W
  W4       1.0000 0.60226  0.34454  0.33264  Biso   1.000  W
  W5       1.0000 0.81242  0.56854  0.60761  Biso   1.000  W
  W6       1.0000 0.18758  0.43146  0.39239  Biso   1.000  W
  W7       1.0000 0.70965  0.72770  0.77124  Biso   1.000  W
  W8       1.0000 0.29035  0.27230  0.22876  Biso   1.000  W
  W9       1.0000 0.64755  0.31938  0.58073  Biso   1.000  W
  W10      1.0000 0.35245  0.68062  0.41927  Biso   1.000  W
  W11      1.0000 0.33695  0.25377  0.48008  Biso   1.000  W
  W12      1.0000 0.66305  0.74623  0.51992  Biso   1.000  W
  P1       1.0000 0.50000  0.50000  0.50000  Biso   1.000  P
  Cu1      1.0000 0.39649  0.57177  0.91465  Biso   1.000  Cu
  Cu2      1.0000 0.60351  0.42823  0.08535  Biso   1.000  Cu
  Cu3      1.0000 0.50000  0.00000  0.50000  Biso   1.000  Cu
  N1       1.0000 0.71580  0.79150  0.19330  Biso   1.000  N
  N2       1.0000 0.28420  0.20850  0.80670  Biso   1.000  N
  N3       1.0000 0.54660  0.68230  0.02680  Biso   1.000  N
  N4       1.0000 0.45340  0.31770  0.97320  Biso   1.000  N
  N5       1.0000 0.06390  0.37520  0.64530  Biso   1.000  N
  N6       1.0000 0.93610  0.62480  0.35470  Biso   1.000  N
  N7       1.0000 0.61100  0.05420  0.82190  Biso   1.000  N
  N8       1.0000 0.38900  0.94580  0.17810  Biso   1.000  N
  N9       1.0000 0.54150  0.04510  0.65070  Biso   1.000  N
  N10      1.0000 0.45850  0.95490  0.34930  Biso   1.000  N
  N11      1.0000 0.90590  0.20430  0.92580  Biso   1.000  N
  N12      1.0000 0.09410  0.79570  0.07420  Biso   1.000  N
  N13      1.0000 0.23940  0.46660  0.80320  Biso   1.000  N
  N14      1.0000 0.76060  0.53340  0.19680  Biso   1.000  N
  N15      1.0000 0.91840  0.04590  0.83620  Biso   1.000  N
  N16      1.0000 0.08160  0.95410  0.16380  Biso   1.000  N
  C1       1.0000 0.60860  0.71450  0.14090  Biso   1.000  C
  C2       1.0000 0.39140  0.28550  0.85910  Biso   1.000  C
  H1       1.0000 0.57960  0.68610  0.17750  Biso   1.000  H
  H2       1.0000 0.42040  0.31390  0.82250  Biso   1.000  H
  C3       1.0000 0.80700  0.84430  0.31460  Biso   1.000  C
  C4       1.0000 0.19300  0.15570  0.68540  Biso   1.000  C
  H3       1.0000 0.87570  0.82130  0.32580  Biso   1.000  H
  H4       1.0000 0.12430  0.17870  0.67420  Biso   1.000  H
  H5       1.0000 0.77460  0.81890  0.35370  Biso   1.000  H
  H6       1.0000 0.22540  0.18110  0.64630  Biso   1.000  H
  C5       1.0000 0.04820  0.36560  0.72820  Biso   1.000  C
  C6       1.0000 0.95180  0.63440  0.27180  Biso   1.000  C
  H7       1.0000 0.97710  0.32880  0.71930  Biso   1.000  H
  H8       1.0000 0.02290  0.67120  0.28070  Biso   1.000  H
  C7       1.0000 0.16060  0.42240  0.82850  Biso   1.000  C
  C8       1.0000 0.83940  0.57760  0.17150  Biso   1.000  C
  H9       1.0000 0.17950  0.42950  0.90000  Biso   1.000  H
  H10      1.0000 0.82050  0.57050  0.10000  Biso   1.000  H
  C9       1.0000 0.95140  0.03360  0.38350  Biso   1.000  C
  C10      1.0000 0.04860  0.96640  0.61650  Biso   1.000  C
  H11      1.0000 0.99830  0.99880  0.36280  Biso   1.000  H
  H12      1.0000 0.00170  0.00120  0.63720  Biso   1.000  H
  C11      1.0000 0.17780  0.43720  0.69480  Biso   1.000  C
  C12      1.0000 0.82220  0.56280  0.30520  Biso   1.000  C
  H13      1.0000 0.20980  0.45730  0.65600  Biso   1.000  H
  H14      1.0000 0.79020  0.54270  0.34400  Biso   1.000  H
  C13      1.0000 0.78190  0.02280  0.40080  Biso   1.000  C
  C14      1.0000 0.21810  0.97720  0.59920  Biso   1.000  C
  H15      1.0000 0.71230  0.98190  0.39150  Biso   1.000  H
  H16      1.0000 0.28770  0.01810  0.60850  Biso   1.000  H
  C15      1.0000 0.62160  0.74490  0.01090  Biso   1.000  C
  C16      1.0000 0.37840  0.25510  0.98910  Biso   1.000  C
  H17      1.0000 0.60400  0.74200  0.94090  Biso   1.000  H
  H18      1.0000 0.39600  0.25800  0.05910  Biso   1.000  H
  C17      1.0000 0.81970  0.13960  0.44960  Biso   1.000  C
  C18      1.0000 0.18030  0.86040  0.55040  Biso   1.000  C
  H19      1.0000 0.77360  0.17580  0.47030  Biso   1.000  H
  H20      1.0000 0.22640  0.82420  0.52970  Biso   1.000  H
  C19      1.0000 0.98720  0.14850  0.43010  Biso   1.000  C
  C20      1.0000 0.01280  0.85150  0.56990  Biso   1.000  C
  H21      1.0000 0.05450  0.18840  0.43540  Biso   1.000  H
  H22      1.0000 0.94550  0.81160  0.56460  Biso   1.000  H
  C21      1.0000 0.92790  0.20280  0.46740  Biso   1.000  C
  C22      1.0000 0.07210  0.79720  0.53260  Biso   1.000  C
  C23      1.0000 0.92140  0.30180  0.01930  Biso   1.000  C
  C24      1.0000 0.07860  0.69820  0.98070  Biso   1.000  C
  H23      1.0000 0.84610  0.29380  0.01670  Biso   1.000  H
  H24      1.0000 0.15390  0.70620  0.98330  Biso   1.000  H
  H25      1.0000 0.98160  0.30780  0.09190  Biso   1.000  H
  H26      1.0000 0.01840  0.69220  0.90810  Biso   1.000  H
  C25      1.0000 0.08200  0.46380  0.06670  Biso   1.000  C
  C26      1.0000 0.91800  0.53620  0.93330  Biso   1.000  C
  H27      1.0000 0.13780  0.44090  0.11300  Biso   1.000  H
  H28      1.0000 0.86220  0.55910  0.88700  Biso   1.000  H
  C27      1.0000 0.96030  0.40510  0.00890  Biso   1.000  C
  C28      1.0000 0.03970  0.59490  0.99110  Biso   1.000  C
  C29      1.0000 0.57300  0.01180  0.95700  Biso   1.000  C
  C30      1.0000 0.42700  0.98820  0.04300  Biso   1.000  C
  C31      1.0000 0.45330  0.99080  0.89250  Biso   1.000  C
  C32      1.0000 0.54670  0.00920  0.10750  Biso   1.000  C
  H29      1.0000 0.42030  0.98310  0.81850  Biso   1.000  H
  H30      1.0000 0.57970  0.01690  0.18150  Biso   1.000  H
  C33      1.0000 0.55050  0.14680  0.72440  Biso   1.000  C
  C34      1.0000 0.44950  0.85320  0.27560  Biso   1.000  C
  H31      1.0000 0.53110  0.20270  0.70480  Biso   1.000  H
  H32      1.0000 0.46890  0.79730  0.29520  Biso   1.000  H
  C35      1.0000 0.57800  0.98980  0.71410  Biso   1.000  C
  C36      1.0000 0.42200  0.01020  0.28590  Biso   1.000  C
  H33      1.0000 0.57980  0.91830  0.68710  Biso   1.000  H
  H34      1.0000 0.42020  0.08170  0.31290  Biso   1.000  H
  C37      1.0000 0.96770  0.32720  0.52490  Biso   1.000  C
  C38      1.0000 0.03230  0.67280  0.47510  Biso   1.000  C
  H35      1.0000 0.99600  0.35700  0.48560  Biso   1.000  H
  H36      1.0000 0.00400  0.64300  0.51440  Biso   1.000  H
  H37      1.0000 0.89950  0.34870  0.51940  Biso   1.000  H
  H38      1.0000 0.10050  0.65130  0.48060  Biso   1.000  H
  C39      1.0000 0.72330  0.81030  0.10980  Biso   1.000  C
  C40      1.0000 0.27670  0.18970  0.89020  Biso   1.000  C
  H39      1.0000 0.78840  0.86040  0.12080  Biso   1.000  H
  H40      1.0000 0.21160  0.13960  0.87920  Biso   1.000  H
  C41      1.0000 0.84820  0.96920  0.36690  Biso   1.000  C
  C42      1.0000 0.15180  0.03080  0.63310  Biso   1.000  C
  C43      1.0000 0.86200  0.08280  0.75670  Biso   1.000  C
  C44      1.0000 0.13800  0.91720  0.24330  Biso   1.000  C
  H41      1.0000 0.83360  0.04700  0.67920  Biso   1.000  H
  H42      1.0000 0.16640  0.95300  0.32080  Biso   1.000  H
  C45      1.0000 0.94450  0.11800  0.93300  Biso   1.000  C
  C46      1.0000 0.05550  0.88200  0.06700  Biso   1.000  C
  H43      1.0000 0.98500  0.11220  0.00090  Biso   1.000  H
  H44      1.0000 0.01500  0.88780  0.99910  Biso   1.000  H
  C47      1.0000 0.85590  0.18110  0.81270  Biso   1.000  C
  C48      1.0000 0.14410  0.81890  0.18730  Biso   1.000  C
  H45      1.0000 0.82330  0.22550  0.78020  Biso   1.000  H
  H46      1.0000 0.17670  0.77450  0.21980  Biso   1.000  H
  C49      1.0000 0.59150  0.15150  0.82800  Biso   1.000  C
  C50      1.0000 0.40850  0.84850  0.17200  Biso   1.000  C
  H47      1.0000 0.60420  0.21000  0.89200  Biso   1.000  H
  H48      1.0000 0.39580  0.79000  0.10800  Biso   1.000  H
  C51      1.0000 0.65630  0.02350  0.91450  Biso   1.000  C
  C52      1.0000 0.34370  0.97650  0.08550  Biso   1.000  C
  H49      1.0000 0.66870  0.95350  0.88870  Biso   1.000  H
  H50      1.0000 0.33130  0.04650  0.11130  Biso   1.000  H
  H51      1.0000 0.73370  0.07950  0.97730  Biso   1.000  H
  H52      1.0000 0.26630  0.92050  0.02270  Biso   1.000  H
  C53      1.0000 0.62110  0.01940  0.06540  Biso   1.000  C
  C54      1.0000 0.37890  0.98060  0.93460  Biso   1.000  C
  H53      1.0000 0.70250  0.03120  0.10970  Biso   1.000  H
  H54      1.0000 0.29750  0.96880  0.89030  Biso   1.000  H
  C55      1.0000 0.87900  0.44290  0.94460  Biso   1.000  C
  C56      1.0000 0.12100  0.55710  0.05540  Biso   1.000  C
  H55      1.0000 0.79700  0.40540  0.90810  Biso   1.000  H
  H56      1.0000 0.20300  0.59460  0.09190  Biso   1.000  H
  O1       1.0000 0.01210  0.87460  0.81950  Biso   1.000  O
  O2       1.0000 0.98790  0.12540  0.18050  Biso   1.000  O
  O3       1.0000 0.77540  0.67310  0.54920  Biso   1.000  O
  O4       1.0000 0.22460  0.32690  0.45080  Biso   1.000  O
  O5       1.0000 0.18730  0.75430  0.82820  Biso   1.000  O
  O6       1.0000 0.81270  0.24570  0.17180  Biso   1.000  O
  O7       1.0000 0.80570  0.83320  0.89640  Biso   1.000  O
  O8       1.0000 0.19430  0.16680  0.10360  Biso   1.000  O
  O9       1.0000 0.71920  0.23460  0.61860  Biso   1.000  O
  O10      1.0000 0.28080  0.76540  0.38140  Biso   1.000  O
  O11      1.0000 0.95850  0.60010  0.65550  Biso   1.000  O
  O12      1.0000 0.04150  0.39990  0.34450  Biso   1.000  O
  O13      1.0000 0.56390  0.74500  0.75050  Biso   1.000  O
  O14      1.0000 0.43610  0.25500  0.24950  Biso   1.000  O
  O15      1.0000 0.81600  0.66280  0.73770  Biso   1.000  O
  O16      1.0000 0.18400  0.33720  0.26230  Biso   1.000  O
  O17      1.0000 0.70100  0.79120  0.67250  Biso   1.000  O
  O18      1.0000 0.29900  0.20880  0.32750  Biso   1.000  O
  O19      1.0000 0.67660  0.61200  0.81030  Biso   1.000  O
  O20      1.0000 0.32340  0.38800  0.18970  Biso   1.000  O
  O21      1.0000 0.57990  0.46850  0.87000  Biso   1.000  O
  O22      1.0000 0.42010  0.53150  0.13000  Biso   1.000  O
  O23      1.0000 0.25990  0.13780  0.47040  Biso   1.000  O
  O24      1.0000 0.74010  0.86220  0.52960  Biso   1.000  O
  O25      1.0000 0.37590  0.71770  0.56300  Biso   1.000  O
  O26      1.0000 0.62410  0.28230  0.43700  Biso   1.000  O
  O27      1.0000 0.34700  0.72670  0.74430  Biso   1.000  O
  O28      1.0000 0.65300  0.27330  0.25570  Biso   1.000  O
  O29      1.0000 0.61910  0.58790  0.57470  Biso   1.000  O
  O30      1.0000 0.38090  0.41210  0.42530  Biso   1.000  O
  O31      1.0000 0.25600  0.53290  0.54660  Biso   1.000  O
  O32      1.0000 0.74400  0.46710  0.45340  Biso   1.000  O
  O33      1.0000 0.48680  0.22900  0.51190  Biso   1.000  O
  O34      1.0000 0.51320  0.77100  0.48810  Biso   1.000  O
  O35      1.0000 0.50620  0.41730  0.55640  Biso   1.000  O
  O36      1.0000 0.49380  0.58270  0.44360  Biso   1.000  O
  O37      1.0000 0.41320  0.34690  0.63890  Biso   1.000  O
  O38      1.0000 0.58680  0.65310  0.36110  Biso   1.000  O
  O39      1.0000 0.77910  0.44800  0.63670  Biso   1.000  O
  O40      1.0000 0.22090  0.55200  0.36330  Biso   1.000  O
  O41      1.0000 0.44510  0.56160  0.73470  Biso   1.000  O
  O42      1.0000 0.55490  0.43840  0.26530  Biso   1.000  O
  O43      1.0000 0.64400  0.40310  0.71210  Biso   1.000  O
  O44      1.0000 0.35600  0.59690  0.28790  Biso   1.000  O
  O45      1.0000 0.39980  0.54100  0.49900  Biso   1.000  O
  O46      1.0000 0.60020  0.45900  0.50100  Biso   1.000  O
  O47      1.0000 0.52850  0.56870  0.61720  Biso   1.000  O
  O48      1.0000 0.47150  0.43130  0.38280  Biso   1.000  O
