data_image0
_cell_length_a       11.0336
_cell_length_b       12.6711
_cell_length_c       13.1776
_cell_angle_alpha    104.684
_cell_angle_beta     97.188
_cell_angle_gamma    100.502

_symmetry_space_group_name_H-M    "P 1"
_symmetry_int_tables_number       1

loop_
  _symmetry_equiv_pos_as_xyz
  'x, y, z'

loop_
  _atom_site_label
  _atom_site_occupancy
  _atom_site_fract_x
  _atom_site_fract_y
  _atom_site_fract_z
  _atom_site_thermal_displace_type
  _atom_site_B_iso_or_equiv
  _atom_site_type_symbol
  P1       1.0000 0.00000  0.00000  0.50000  Biso   1.000  P
  Mo1      1.0000 0.00375  0.17322  0.75887  Biso   1.000  Mo
  Mo2      1.0000 0.99625  0.82678  0.24113  Biso   1.000  Mo
  Mo3      1.0000 0.71282  0.82309  0.34496  Biso   1.000  Mo
  Mo4      1.0000 0.28718  0.17691  0.65504  Biso   1.000  Mo
  Mo5      1.0000 0.95687  0.87729  0.71140  Biso   1.000  Mo
  Mo6      1.0000 0.04313  0.12271  0.28860  Biso   1.000  Mo
  Mo7      1.0000 0.04763  0.29528  0.54739  Biso   1.000  Mo
  Mo8      1.0000 0.95237  0.70472  0.45261  Biso   1.000  Mo
  Mo9      1.0000 0.71608  0.99422  0.60582  Biso   1.000  Mo
  Mo10     1.0000 0.28392  0.00578  0.39418  Biso   1.000  Mo
  Mo11     1.0000 0.76062  0.11764  0.39499  Biso   1.000  Mo
  Mo12     1.0000 0.23938  0.88236  0.60501  Biso   1.000  Mo
  Cu1      1.0000 0.26912  0.75436  0.12107  Biso   1.000  Cu
  Cu2      1.0000 0.73088  0.24564  0.87893  Biso   1.000  Cu
  N1       1.0000 0.25830  0.00510  0.98750  Biso   1.000  N
  N2       1.0000 0.74170  0.99490  0.01250  Biso   1.000  N
  N3       1.0000 0.25450  0.55120  0.31040  Biso   1.000  N
  N4       1.0000 0.74550  0.44880  0.68960  Biso   1.000  N
  N5       1.0000 0.91330  0.46250  0.10390  Biso   1.000  N
  N6       1.0000 0.08670  0.53750  0.89610  Biso   1.000  N
  N7       1.0000 0.26530  0.64300  0.18960  Biso   1.000  N
  N8       1.0000 0.73470  0.35700  0.81040  Biso   1.000  N
  N9       1.0000 0.76740  0.44940  0.20040  Biso   1.000  N
  N10      1.0000 0.23260  0.55060  0.79960  Biso   1.000  N
  N11      1.0000 0.28170  0.85930  0.04290  Biso   1.000  N
  N12      1.0000 0.71830  0.14070  0.95710  Biso   1.000  N
  C1       1.0000 0.83040  0.36760  0.20760  Biso   1.000  C
  C2       1.0000 0.16960  0.63240  0.79240  Biso   1.000  C
  H1       1.0000 0.81510  0.31600  0.24610  Biso   1.000  H
  H2       1.0000 0.18490  0.68400  0.75390  Biso   1.000  H
  C3       1.0000 0.34080  0.95460  0.93200  Biso   1.000  C
  C4       1.0000 0.65920  0.04540  0.06800  Biso   1.000  C
  H3       1.0000 0.37950  0.97780  0.88010  Biso   1.000  H
  H4       1.0000 0.62050  0.02220  0.11990  Biso   1.000  H
  C5       1.0000 0.26180  0.47580  0.21750  Biso   1.000  C
  C6       1.0000 0.73820  0.52420  0.78250  Biso   1.000  C
  H5       1.0000 0.26230  0.40050  0.20660  Biso   1.000  H
  H6       1.0000 0.73770  0.59950  0.79340  Biso   1.000  H
  C7       1.0000 0.26810  0.53420  0.14550  Biso   1.000  C
  C8       1.0000 0.73190  0.46580  0.85450  Biso   1.000  C
  H7       1.0000 0.27370  0.50420  0.07460  Biso   1.000  H
  H8       1.0000 0.72630  0.49580  0.92540  Biso   1.000  H
  C9       1.0000 0.25740  0.64930  0.29110  Biso   1.000  C
  C10      1.0000 0.74260  0.35070  0.70890  Biso   1.000  C
  H9       1.0000 0.25440  0.71440  0.34190  Biso   1.000  H
  H10      1.0000 0.74560  0.28560  0.65810  Biso   1.000  H
  C11      1.0000 0.65240  0.46370  0.24380  Biso   1.000  C
  C12      1.0000 0.34760  0.53630  0.75620  Biso   1.000  C
  H11      1.0000 0.66310  0.45810  0.31630  Biso   1.000  H
  H12      1.0000 0.33690  0.54190  0.68370  Biso   1.000  H
  H13      1.0000 0.63900  0.53770  0.24590  Biso   1.000  H
  H14      1.0000 0.36100  0.46230  0.75410  Biso   1.000  H
  C13      1.0000 0.48140  0.29750  0.22100  Biso   1.000  C
  C14      1.0000 0.51860  0.70250  0.77900  Biso   1.000  C
  H15      1.0000 0.50970  0.30000  0.29130  Biso   1.000  H
  H16      1.0000 0.49030  0.70000  0.70870  Biso   1.000  H
  C15      1.0000 0.81730  0.50500  0.13770  Biso   1.000  C
  C16      1.0000 0.18270  0.49500  0.86230  Biso   1.000  C
  H17      1.0000 0.79030  0.56440  0.11970  Biso   1.000  H
  H18      1.0000 0.20970  0.43560  0.88030  Biso   1.000  H
  C17      1.0000 0.35460  0.86780  0.96610  Biso   1.000  C
  C18      1.0000 0.64540  0.13220  0.03390  Biso   1.000  C
  H19      1.0000 0.40560  0.81950  0.94220  Biso   1.000  H
  H20      1.0000 0.59440  0.18050  0.05780  Biso   1.000  H
  C19      1.0000 0.23080  0.11320  0.98720  Biso   1.000  C
  C20      1.0000 0.76920  0.88680  0.01280  Biso   1.000  C
  H21      1.0000 0.21790  0.11850  0.91460  Biso   1.000  H
  H22      1.0000 0.78210  0.88150  0.08540  Biso   1.000  H
  H23      1.0000 0.15430  0.11980  0.01490  Biso   1.000  H
  H24      1.0000 0.84570  0.88020  0.98510  Biso   1.000  H
  C21      1.0000 0.49640  0.37340  0.07210  Biso   1.000  C
  C22      1.0000 0.50360  0.62660  0.92790  Biso   1.000  C
  H25      1.0000 0.53480  0.42710  0.04250  Biso   1.000  H
  H26      1.0000 0.46520  0.57290  0.95750  Biso   1.000  H
  C23      1.0000 0.22460  0.94320  0.05270  Biso   1.000  C
  C24      1.0000 0.77540  0.05680  0.94730  Biso   1.000  C
  H27      1.0000 0.16840  0.95770  0.09870  Biso   1.000  H
  H28      1.0000 0.83160  0.04230  0.90130  Biso   1.000  H
  C25      1.0000 0.38090  0.21330  0.16030  Biso   1.000  C
  C26      1.0000 0.61910  0.78670  0.83970  Biso   1.000  C
  H29      1.0000 0.34220  0.16020  0.19040  Biso   1.000  H
  H30      1.0000 0.65780  0.83980  0.80960  Biso   1.000  H
  C27      1.0000 0.25470  0.52720  0.41370  Biso   1.000  C
  C28      1.0000 0.74530  0.47280  0.58630  Biso   1.000  C
  H31      1.0000 0.23180  0.58780  0.46340  Biso   1.000  H
  H32      1.0000 0.76820  0.41220  0.53660  Biso   1.000  H
  H33      1.0000 0.19260  0.45910  0.40490  Biso   1.000  H
  H34      1.0000 0.80740  0.54090  0.59510  Biso   1.000  H
  C29      1.0000 0.39520  0.28840  0.01130  Biso   1.000  C
  C30      1.0000 0.60480  0.71160  0.98870  Biso   1.000  C
  H35      1.0000 0.36640  0.28580  0.94110  Biso   1.000  H
  H36      1.0000 0.63360  0.71420  0.05890  Biso   1.000  H
  C31      1.0000 0.91980  0.37740  0.14700  Biso   1.000  C
  C32      1.0000 0.08020  0.62260  0.85300  Biso   1.000  C
  H37      1.0000 0.97720  0.33210  0.13660  Biso   1.000  H
  H38      1.0000 0.02280  0.66790  0.86340  Biso   1.000  H
  C33      1.0000 0.39600  0.41000  0.47440  Biso   1.000  C
  C34      1.0000 0.60400  0.59000  0.52560  Biso   1.000  C
  H39      1.0000 0.32700  0.35020  0.45730  Biso   1.000  H
  H40      1.0000 0.67300  0.64980  0.54270  Biso   1.000  H
  C35      1.0000 0.38270  0.51340  0.45920  Biso   1.000  C
  C36      1.0000 0.61730  0.48660  0.54080  Biso   1.000  C
  C37      1.0000 0.48640  0.60150  0.48470  Biso   1.000  C
  C38      1.0000 0.51360  0.39850  0.51530  Biso   1.000  C
  H41      1.0000 0.47720  0.66970  0.47430  Biso   1.000  H
  H42      1.0000 0.52280  0.33030  0.52570  Biso   1.000  H
  C39      1.0000 0.33710  0.20760  0.05460  Biso   1.000  C
  C40      1.0000 0.66290  0.79240  0.94540  Biso   1.000  C
  C41      1.0000 0.54000  0.37770  0.17810  Biso   1.000  C
  C42      1.0000 0.46000  0.62230  0.82190  Biso   1.000  C
  Cu3      1.0000 0.00000  0.50000  0.00000  Biso   1.000  Cu
  O1       1.0000 0.69950  0.96400  0.32230  Biso   1.000  O
  O2       1.0000 0.30050  0.03600  0.67770  Biso   1.000  O
  O3       1.0000 0.79200  0.89970  0.66970  Biso   1.000  O
  O4       1.0000 0.20800  0.10030  0.33030  Biso   1.000  O
  O5       1.0000 0.00290  0.27620  0.67920  Biso   1.000  O
  O6       1.0000 0.99710  0.72380  0.32080  Biso   1.000  O
  O7       1.0000 0.85580  0.98810  0.47620  Biso   1.000  O
  O8       1.0000 0.14420  0.01190  0.52380  Biso   1.000  O
  O9       1.0000 0.17640  0.18650  0.75680  Biso   1.000  O
  O10      1.0000 0.82360  0.81350  0.24320  Biso   1.000  O
  O11      1.0000 0.70330  0.09210  0.51690  Biso   1.000  O
  O12      1.0000 0.29670  0.90790  0.48310  Biso   1.000  O
  O13      1.0000 0.87600  0.24670  0.48770  Biso   1.000  O
  O14      1.0000 0.12400  0.75330  0.51230  Biso   1.000  O
  O15      1.0000 0.58620  0.99400  0.65580  Biso   1.000  O
  O16      1.0000 0.41380  0.00600  0.34420  Biso   1.000  O
  O17      1.0000 0.66410  0.87300  0.47790  Biso   1.000  O
  O18      1.0000 0.33590  0.12700  0.52210  Biso   1.000  O
  O19      1.0000 0.00190  0.02990  0.78480  Biso   1.000  O
  O20      1.0000 0.99810  0.97010  0.21520  Biso   1.000  O
  O21      1.0000 0.78970  0.72090  0.39760  Biso   1.000  O
  O22      1.0000 0.21030  0.27910  0.60240  Biso   1.000  O
  O23      1.0000 0.12630  0.87760  0.70310  Biso   1.000  O
  O24      1.0000 0.87370  0.12240  0.29690  Biso   1.000  O
  O25      1.0000 0.02370  0.90470  0.55160  Biso   1.000  O
  O26      1.0000 0.97630  0.09530  0.44840  Biso   1.000  O
  O27      1.0000 0.65500  0.17780  0.34660  Biso   1.000  O
  O28      1.0000 0.34500  0.82220  0.65340  Biso   1.000  O
  O29      1.0000 0.05750  0.11340  0.58600  Biso   1.000  O
  O30      1.0000 0.94250  0.88660  0.41400  Biso   1.000  O
  O31      1.0000 0.93310  0.82130  0.81000  Biso   1.000  O
  O32      1.0000 0.06690  0.17870  0.19000  Biso   1.000  O
  O33      1.0000 0.58170  0.74020  0.27050  Biso   1.000  O
  O34      1.0000 0.41830  0.25980  0.72950  Biso   1.000  O
  O35      1.0000 0.05480  0.99250  0.40350  Biso   1.000  O
  O36      1.0000 0.94520  0.00750  0.59650  Biso   1.000  O
  O37      1.0000 0.00650  0.25150  0.88170  Biso   1.000  O
  O38      1.0000 0.99350  0.74850  0.11830  Biso   1.000  O
  O39      1.0000 0.82920  0.11890  0.70920  Biso   1.000  O
  O40      1.0000 0.17080  0.88110  0.29080  Biso   1.000  O
  O41      1.0000 0.07120  0.43160  0.57150  Biso   1.000  O
  O42      1.0000 0.92880  0.56840  0.42850  Biso   1.000  O
  O43      1.0000 0.91490  0.74830  0.59140  Biso   1.000  O
  O44      1.0000 0.08510  0.25170  0.40860  Biso   1.000  O
