data_image0
_cell_length_a       7.223
_cell_length_b       15.375
_cell_length_c       16.003
_cell_angle_alpha    95.349
_cell_angle_beta     96.74
_cell_angle_gamma    98.175

_symmetry_space_group_name_H-M    "P 1"
_symmetry_int_tables_number       1

loop_
  _symmetry_equiv_pos_as_xyz
  'x, y, z'

loop_
  _atom_site_label
  _atom_site_occupancy
  _atom_site_fract_x
  _atom_site_fract_y
  _atom_site_fract_z
  _atom_site_thermal_displace_type
  _atom_site_B_iso_or_equiv
  _atom_site_type_symbol
  Cu1      1.0000 0.25450  0.79110  0.71567  Biso   1.000  Cu
  Cu2      1.0000 0.74550  0.20890  0.28433  Biso   1.000  Cu
  Cu3      1.0000 0.10402  0.13942  0.21535  Biso   1.000  Cu
  Cu4      1.0000 0.89598  0.86058  0.78465  Biso   1.000  Cu
  Cu5      1.0000 0.24629  0.63846  0.85299  Biso   1.000  Cu
  Cu6      1.0000 0.75371  0.36154  0.14701  Biso   1.000  Cu
  Cu7      1.0000 0.39892  0.29026  0.35277  Biso   1.000  Cu
  Cu8      1.0000 0.60108  0.70974  0.64723  Biso   1.000  Cu
  N1       1.0000 0.10870  0.61010  0.73870  Biso   1.000  N
  N2       1.0000 0.89130  0.38990  0.26130  Biso   1.000  N
  N3       1.0000 0.09870  0.67370  0.68620  Biso   1.000  N
  N4       1.0000 0.90130  0.32630  0.31380  Biso   1.000  N
  N5       1.0000 0.31490  0.31830  0.23950  Biso   1.000  N
  N6       1.0000 0.68510  0.68170  0.76050  Biso   1.000  N
  N7       1.0000 0.38880  0.75900  0.88440  Biso   1.000  N
  N8       1.0000 0.61120  0.24100  0.11560  Biso   1.000  N
  N9       1.0000 0.18890  0.25920  0.18600  Biso   1.000  N
  N10      1.0000 0.81110  0.74080  0.81400  Biso   1.000  N
  N11      1.0000 0.40500  0.81770  0.82750  Biso   1.000  N
  N12      1.0000 0.59500  0.18230  0.17250  Biso   1.000  N
  C1       1.0000 0.25200  0.05610  0.44270  Biso   1.000  C
  C2       1.0000 0.74800  0.94390  0.55730  Biso   1.000  C
  N13      1.0000 0.30180  0.17310  0.38440  Biso   1.000  N
  N14      1.0000 0.69820  0.82690  0.61560  Biso   1.000  N
  C3       1.0000 0.75920  0.02230  0.99150  Biso   1.000  C
  C4       1.0000 0.24080  0.97770  0.00850  Biso   1.000  C
  H1       1.0000 0.72430  0.04080  0.93900  Biso   1.000  H
  H2       1.0000 0.27570  0.95920  0.06100  Biso   1.000  H
  N15      1.0000 0.98530  0.64070  0.61430  Biso   1.000  N
  N16      1.0000 0.01470  0.35930  0.38570  Biso   1.000  N
  N17      1.0000 0.24810  0.55550  0.93890  Biso   1.000  N
  N18      1.0000 0.75190  0.44450  0.06110  Biso   1.000  N
  N19      1.0000 0.57260  0.37160  0.43830  Biso   1.000  N
  N20      1.0000 0.42740  0.62840  0.56170  Biso   1.000  N
  C5       1.0000 0.69650  0.93640  0.00760  Biso   1.000  C
  C6       1.0000 0.30350  0.06360  0.99240  Biso   1.000  C
  C7       1.0000 0.57180  0.87300  0.94230  Biso   1.000  C
  C8       1.0000 0.42820  0.12700  0.05770  Biso   1.000  C
  N21      1.0000 0.33520  0.14020  0.45880  Biso   1.000  N
  N22      1.0000 0.66480  0.85980  0.54120  Biso   1.000  N
  C9       1.0000 0.15950  0.47120  0.92130  Biso   1.000  C
  C10      1.0000 0.84050  0.52880  0.07870  Biso   1.000  C
  H3       1.0000 0.09670  0.45280  0.86710  Biso   1.000  H
  H4       1.0000 0.90330  0.54720  0.13290  Biso   1.000  H
  C11      1.0000 0.33670  0.58010  0.01870  Biso   1.000  C
  C12      1.0000 0.66330  0.41990  0.98130  Biso   1.000  C
  H5       1.0000 0.39890  0.63780  0.03220  Biso   1.000  H
  H6       1.0000 0.60110  0.36220  0.96780  Biso   1.000  H
  C13      1.0000 0.92730  0.55700  0.62620  Biso   1.000  C
  C14      1.0000 0.07270  0.44300  0.37380  Biso   1.000  C
  C15      1.0000 0.74160  0.40750  0.57850  Biso   1.000  C
  C16      1.0000 0.25840  0.59250  0.42150  Biso   1.000  C
  H7       1.0000 0.77710  0.38910  0.63090  Biso   1.000  H
  H8       1.0000 0.22290  0.61090  0.36910  Biso   1.000  H
  N23      1.0000 0.20230  0.10950  0.32690  Biso   1.000  N
  N24      1.0000 0.79770  0.89050  0.67310  Biso   1.000  N
  N25      1.0000 0.92790  0.05690  0.13120  Biso   1.000  N
  N26      1.0000 0.07210  0.94310  0.86880  Biso   1.000  N
  C17      1.0000 0.86560  0.97360  0.14670  Biso   1.000  C
  C18      1.0000 0.13440  0.02640  0.85330  Biso   1.000  C
  H9       1.0000 0.90040  0.95680  0.20000  Biso   1.000  H
  H10      1.0000 0.09960  0.04320  0.80000  Biso   1.000  H
  N27      1.0000 0.16970  0.03410  0.36260  Biso   1.000  N
  N28      1.0000 0.83030  0.96590  0.63740  Biso   1.000  N
  C19      1.0000 0.80490  0.49330  0.56200  Biso   1.000  C
  C20      1.0000 0.19510  0.50670  0.43800  Biso   1.000  C
  C21      1.0000 0.87350  0.07970  0.05400  Biso   1.000  C
  C22      1.0000 0.12650  0.92030  0.94600  Biso   1.000  C
  H11      1.0000 0.91500  0.13680  0.04240  Biso   1.000  H
  H12      1.0000 0.08500  0.86320  0.95760  Biso   1.000  H
  N29      1.0000 0.00020  0.53510  0.70160  Biso   1.000  N
  N30      1.0000 0.99980  0.46490  0.29840  Biso   1.000  N
  C23      1.0000 0.62540  0.34990  0.51610  Biso   1.000  C
  C24      1.0000 0.37460  0.65010  0.48390  Biso   1.000  C
  H13      1.0000 0.58160  0.29340  0.52860  Biso   1.000  H
  H14      1.0000 0.41840  0.70660  0.47140  Biso   1.000  H
  N31      1.0000 0.49320  0.79360  0.95780  Biso   1.000  N
  N32      1.0000 0.50680  0.20640  0.04220  Biso   1.000  N
  C25      1.0000 0.25050  0.99380  0.50690  Biso   1.000  C
  C26      1.0000 0.74950  0.00620  0.49310  Biso   1.000  C
  N33      1.0000 0.52160  0.89130  0.86290  Biso   1.000  N
  N34      1.0000 0.47840  0.10870  0.13710  Biso   1.000  N
  C27      1.0000 0.33970  0.52420  0.08070  Biso   1.000  C
  C28      1.0000 0.66030  0.47580  0.91930  Biso   1.000  C
  H15      1.0000 0.40180  0.54440  0.13480  Biso   1.000  H
  H16      1.0000 0.59820  0.45560  0.86520  Biso   1.000  H
  C29      1.0000 0.63470  0.45560  0.42250  Biso   1.000  C
  C30      1.0000 0.36530  0.54440  0.57750  Biso   1.000  C
  H17      1.0000 0.59750  0.47260  0.36960  Biso   1.000  H
  H18      1.0000 0.40250  0.52740  0.63040  Biso   1.000  H
  C31      1.0000 0.74950  0.51560  0.48120  Biso   1.000  C
  C32      1.0000 0.25050  0.48440  0.51880  Biso   1.000  C
  H19      1.0000 0.79120  0.57180  0.46740  Biso   1.000  H
  H20      1.0000 0.20880  0.42820  0.53260  Biso   1.000  H
  C33      1.0000 0.15860  0.90660  0.48860  Biso   1.000  C
  C34      1.0000 0.84140  0.09340  0.51140  Biso   1.000  C
  H21      1.0000 0.09540  0.88670  0.43470  Biso   1.000  H
  H22      1.0000 0.90460  0.11330  0.56530  Biso   1.000  H
  C35      1.0000 0.15790  0.41160  0.97970  Biso   1.000  C
  C36      1.0000 0.84210  0.58840  0.02030  Biso   1.000  C
  H23      1.0000 0.09610  0.35400  0.96440  Biso   1.000  H
  H24      1.0000 0.90390  0.64600  0.03560  Biso   1.000  H
  C37      1.0000 0.75210  0.91220  0.08640  Biso   1.000  C
  C38      1.0000 0.24790  0.08780  0.91360  Biso   1.000  C
  H25      1.0000 0.71370  0.85510  0.09900  Biso   1.000  H
  H26      1.0000 0.28630  0.14490  0.90100  Biso   1.000  H
  C39      1.0000 0.34040  0.01910  0.58960  Biso   1.000  C
  C40      1.0000 0.65960  0.98090  0.41040  Biso   1.000  C
  H27      1.0000 0.40170  0.07670  0.60510  Biso   1.000  H
  H28      1.0000 0.59830  0.92330  0.39490  Biso   1.000  H
  N35      1.0000 0.35660  0.39250  0.20180  Biso   1.000  N
  N36      1.0000 0.64340  0.60750  0.79820  Biso   1.000  N
  N37      1.0000 0.14470  0.29430  0.11330  Biso   1.000  N
  N38      1.0000 0.85530  0.70570  0.88670  Biso   1.000  N
  N39      1.0000 0.24840  0.87520  0.63040  Biso   1.000  N
  N40      1.0000 0.75160  0.12480  0.36960  Biso   1.000  N
  C41      1.0000 0.24830  0.43660  0.06200  Biso   1.000  C
  C42      1.0000 0.75170  0.56340  0.93800  Biso   1.000  C
  C43      1.0000 0.33850  0.95880  0.64880  Biso   1.000  C
  C44      1.0000 0.66150  0.04120  0.35120  Biso   1.000  C
  H29      1.0000 0.40170  0.97680  0.70300  Biso   1.000  H
  H30      1.0000 0.59830  0.02320  0.29700  Biso   1.000  H
  C45      1.0000 0.25020  0.37410  0.12630  Biso   1.000  C
  C46      1.0000 0.74980  0.62590  0.87370  Biso   1.000  C
  C47      1.0000 0.16170  0.84980  0.55130  Biso   1.000  C
  C48      1.0000 0.83830  0.15020  0.44870  Biso   1.000  C
  H31      1.0000 0.10120  0.79170  0.53780  Biso   1.000  H
  H32      1.0000 0.89880  0.20830  0.46220  Biso   1.000  H
  O1       1.0000 0.17500  0.85000  0.27300  Biso   1.000  O
  O2       1.0000 0.82500  0.15000  0.72700  Biso   1.000  O
  H33      1.0000 0.19600  0.89310  0.30890  Biso   1.000  H
  H34      1.0000 0.80400  0.10690  0.69110  Biso   1.000  H
  C49      1.0000 0.31500  0.85790  0.21580  Biso   1.000  C
  C50      1.0000 0.68500  0.14210  0.78420  Biso   1.000  C
  H35      1.0000 0.43940  0.85460  0.24390  Biso   1.000  H
  H36      1.0000 0.56060  0.14540  0.75610  Biso   1.000  H
  H37      1.0000 0.31750  0.91240  0.18960  Biso   1.000  H
  H38      1.0000 0.68250  0.08760  0.81040  Biso   1.000  H
  C51      1.0000 0.23720  0.77480  0.14990  Biso   1.000  C
  C52      1.0000 0.76280  0.22520  0.85010  Biso   1.000  C
  H39      1.0000 0.32120  0.77050  0.10800  Biso   1.000  H
  H40      1.0000 0.67880  0.22950  0.89200  Biso   1.000  H
  H41      1.0000 0.11430  0.78050  0.12290  Biso   1.000  H
  H42      1.0000 0.88570  0.21950  0.87710  Biso   1.000  H
  H43      1.0000 0.22880  0.72240  0.17850  Biso   1.000  H
  H44      1.0000 0.77120  0.27760  0.82150  Biso   1.000  H
  C53      1.0000 0.30200  0.32600  0.72900  Biso   1.000  C
  C54      1.0000 0.69800  0.67400  0.27100  Biso   1.000  C
  H45      1.0000 0.36750  0.38320  0.71930  Biso   1.000  H
  H46      1.0000 0.63250  0.61680  0.28070  Biso   1.000  H
  H47      1.0000 0.35560  0.30480  0.77980  Biso   1.000  H
  H48      1.0000 0.64440  0.69520  0.22020  Biso   1.000  H
  C55      1.0000 0.25200  0.25820  0.65110  Biso   1.000  C
  C56      1.0000 0.74800  0.74180  0.34890  Biso   1.000  C
  H49      1.0000 0.36400  0.23590  0.63770  Biso   1.000  H
  H50      1.0000 0.63600  0.76410  0.36230  Biso   1.000  H
  H51      1.0000 0.19970  0.28530  0.60410  Biso   1.000  H
  H52      1.0000 0.80030  0.71470  0.39590  Biso   1.000  H
  H53      1.0000 0.16150  0.21030  0.66260  Biso   1.000  H
  H54      1.0000 0.83850  0.78970  0.33740  Biso   1.000  H
  O3       1.0000 0.14700  0.31900  0.71800  Biso   1.000  O
  O4       1.0000 0.85300  0.68100  0.28200  Biso   1.000  O
  H55      1.0000 0.11180  0.35840  0.74750  Biso   1.000  H
  H56      1.0000 0.88820  0.64160  0.25250  Biso   1.000  H
