data_image0
_cell_length_a       10.6979
_cell_length_b       10.8874
_cell_length_c       14.7652
_cell_angle_alpha    91.651
_cell_angle_beta     93.543
_cell_angle_gamma    118.564

_symmetry_space_group_name_H-M    "P 1"
_symmetry_int_tables_number       1

loop_
  _symmetry_equiv_pos_as_xyz
  'x, y, z'

loop_
  _atom_site_label
  _atom_site_occupancy
  _atom_site_fract_x
  _atom_site_fract_y
  _atom_site_fract_z
  _atom_site_thermal_displace_type
  _atom_site_B_iso_or_equiv
  _atom_site_type_symbol
  Co1      1.0000 0.39153  0.98959  0.44600  Biso   1.000  Co
  Co2      1.0000 0.60847  0.01041  0.55400  Biso   1.000  Co
  Cu1      1.0000 0.38844  0.81455  0.05883  Biso   1.000  Cu
  Cu2      1.0000 0.61156  0.18545  0.94117  Biso   1.000  Cu
  O1       1.0000 0.36250  0.70490  0.92865  Biso   1.000  O
  O2       1.0000 0.63750  0.29510  0.07135  Biso   1.000  O
  O3       1.0000 0.16450  0.50380  0.94310  Biso   1.000  O
  O4       1.0000 0.83550  0.49620  0.05690  Biso   1.000  O
  O5       1.0000 0.27610  0.85660  0.53395  Biso   1.000  O
  O6       1.0000 0.72390  0.14340  0.46605  Biso   1.000  O
  O7       1.0000 0.46020  0.87510  0.62450  Biso   1.000  O
  O8       1.0000 0.53980  0.12490  0.37550  Biso   1.000  O
  O9       1.0000 0.40950  0.83720  0.38556  Biso   1.000  O
  O10      1.0000 0.59050  0.16280  0.61444  Biso   1.000  O
  O11      1.0000 0.59070  0.85190  0.47634  Biso   1.000  O
  O12      1.0000 0.40930  0.14810  0.52366  Biso   1.000  O
  O13      1.0000 0.32780  0.38350  0.08237  Biso   1.000  O
  O14      1.0000 0.67220  0.61650  0.91763  Biso   1.000  O
  O15      1.0000 0.25500  0.54050  0.10531  Biso   1.000  O
  O16      1.0000 0.74500  0.45950  0.89469  Biso   1.000  O
  N1       1.0000 0.24200  0.86900  0.05040  Biso   1.000  N
  N2       1.0000 0.75800  0.13100  0.94960  Biso   1.000  N
  N3       1.0000 0.56730  0.84400  0.11600  Biso   1.000  N
  N4       1.0000 0.43270  0.15600  0.88400  Biso   1.000  N
  N5       1.0000 0.20690  0.95780  0.36080  Biso   1.000  N
  N6       1.0000 0.79310  0.04220  0.63920  Biso   1.000  N
  C1       1.0000 0.74430  0.77310  0.14670  Biso   1.000  C
  C2       1.0000 0.25570  0.22690  0.85330  Biso   1.000  C
  H1       1.0000 0.77720  0.70980  0.13430  Biso   1.000  H
  H2       1.0000 0.22280  0.29020  0.86570  Biso   1.000  H
  C3       1.0000 0.62190  0.75820  0.10030  Biso   1.000  C
  C4       1.0000 0.37810  0.24180  0.89970  Biso   1.000  C
  H3       1.0000 0.57470  0.68500  0.05590  Biso   1.000  H
  H4       1.0000 0.42530  0.31500  0.94410  Biso   1.000  H
  C5       1.0000 0.63750  0.94860  0.18000  Biso   1.000  C
  C6       1.0000 0.36250  0.05140  0.82000  Biso   1.000  C
  H5       1.0000 0.60090  0.00890  0.19220  Biso   1.000  H
  H6       1.0000 0.39910  0.99110  0.80780  Biso   1.000  H
  C7       1.0000 0.76170  0.97130  0.22860  Biso   1.000  C
  C8       1.0000 0.23830  0.02870  0.77140  Biso   1.000  C
  H7       1.0000 0.80720  0.04580  0.27230  Biso   1.000  H
  H8       1.0000 0.19280  0.95420  0.72770  Biso   1.000  H
  C9       1.0000 0.81860  0.88330  0.21230  Biso   1.000  C
  C10      1.0000 0.18140  0.11670  0.78770  Biso   1.000  C
  C11      1.0000 0.95250  0.90770  0.26330  Biso   1.000  C
  C12      1.0000 0.04750  0.09230  0.73670  Biso   1.000  C
  C13      1.0000 0.06370  0.04440  0.28740  Biso   1.000  C
  C14      1.0000 0.93630  0.95560  0.71260  Biso   1.000  C
  H9       1.0000 0.05450  0.12120  0.26980  Biso   1.000  H
  H10      1.0000 0.94550  0.87880  0.73020  Biso   1.000  H
  C15      1.0000 0.18510  0.06430  0.33650  Biso   1.000  C
  C16      1.0000 0.81490  0.93570  0.66350  Biso   1.000  C
  H11      1.0000 0.25570  0.15540  0.35370  Biso   1.000  H
  H12      1.0000 0.74430  0.84460  0.64630  Biso   1.000  H
  C17      1.0000 0.10980  0.83200  0.32930  Biso   1.000  C
  C18      1.0000 0.89020  0.16800  0.67070  Biso   1.000  C
  H13      1.0000 0.12640  0.75740  0.34130  Biso   1.000  H
  H14      1.0000 0.87360  0.24260  0.65870  Biso   1.000  H
  C19      1.0000 0.98520  0.80340  0.27980  Biso   1.000  C
  C20      1.0000 0.01480  0.19660  0.72020  Biso   1.000  C
  H15      1.0000 0.92230  0.71210  0.25740  Biso   1.000  H
  H16      1.0000 0.07770  0.28790  0.74260  Biso   1.000  H
  C21      1.0000 0.11030  0.78680  0.01230  Biso   1.000  C
  C22      1.0000 0.88970  0.21320  0.98770  Biso   1.000  C
  H17      1.0000 0.08210  0.69270  0.99890  Biso   1.000  H
  H18      1.0000 0.91790  0.30730  0.00110  Biso   1.000  H
  C23      1.0000 0.01340  0.83340  0.99140  Biso   1.000  C
  C24      1.0000 0.98660  0.16660  0.00860  Biso   1.000  C
  H19      1.0000 0.92330  0.77180  0.96350  Biso   1.000  H
  H20      1.0000 0.07670  0.22820  0.03650  Biso   1.000  H
  C25      1.0000 0.04990  0.97160  0.01200  Biso   1.000  C
  C26      1.0000 0.95010  0.02840  0.98800  Biso   1.000  C
  C27      1.0000 0.18400  0.05510  0.05630  Biso   1.000  C
  C28      1.0000 0.81600  0.94490  0.94370  Biso   1.000  C
  H21      1.0000 0.21210  0.14770  0.07460  Biso   1.000  H
  H22      1.0000 0.78790  0.85230  0.92540  Biso   1.000  H
  C29      1.0000 0.27540  0.00180  0.07330  Biso   1.000  C
  C30      1.0000 0.72460  0.99820  0.92670  Biso   1.000  C
  H23      1.0000 0.36540  0.06090  0.10220  Biso   1.000  H
  H24      1.0000 0.63460  0.93910  0.89780  Biso   1.000  H
  C31      1.0000 0.18680  0.61290  0.80400  Biso   1.000  C
  C32      1.0000 0.81320  0.38710  0.19600  Biso   1.000  C
  C33      1.0000 0.04230  0.53530  0.77590  Biso   1.000  C
  C34      1.0000 0.95770  0.46470  0.22410  Biso   1.000  C
  H25      1.0000 0.97950  0.47320  0.81430  Biso   1.000  H
  H26      1.0000 0.02050  0.52680  0.18570  Biso   1.000  H
  C35      1.0000 0.99190  0.55010  0.69150  Biso   1.000  C
  C36      1.0000 0.00810  0.44990  0.30850  Biso   1.000  C
  H27      1.0000 0.89520  0.49700  0.67260  Biso   1.000  H
  H28      1.0000 0.10480  0.50300  0.32740  Biso   1.000  H
  C37      1.0000 0.08370  0.64320  0.63420  Biso   1.000  C
  C38      1.0000 0.91630  0.35680  0.36580  Biso   1.000  C
  H29      1.0000 0.04830  0.65390  0.57750  Biso   1.000  H
  H30      1.0000 0.95170  0.34610  0.42250  Biso   1.000  H
  C39      1.0000 0.22800  0.72050  0.66100  Biso   1.000  C
  C40      1.0000 0.77200  0.27950  0.33900  Biso   1.000  C
  C41      1.0000 0.27820  0.70430  0.74610  Biso   1.000  C
  C42      1.0000 0.72180  0.29570  0.25390  Biso   1.000  C
  H31      1.0000 0.37510  0.75600  0.76450  Biso   1.000  H
  H32      1.0000 0.62490  0.24400  0.23550  Biso   1.000  H
  C43      1.0000 0.24460  0.60730  0.89890  Biso   1.000  C
  C44      1.0000 0.75540  0.39270  0.10110  Biso   1.000  C
  C45      1.0000 0.32870  0.82470  0.60150  Biso   1.000  C
  C46      1.0000 0.67130  0.17530  0.39850  Biso   1.000  C
  C47      1.0000 0.48720  0.67250  0.35900  Biso   1.000  C
  C48      1.0000 0.51280  0.32750  0.64100  Biso   1.000  C
  C49      1.0000 0.55740  0.60210  0.39160  Biso   1.000  C
  C50      1.0000 0.44260  0.39790  0.60840  Biso   1.000  C
  H33      1.0000 0.61170  0.63130  0.44730  Biso   1.000  H
  H34      1.0000 0.38830  0.36870  0.55270  Biso   1.000  H
  C51      1.0000 0.54660  0.48820  0.34080  Biso   1.000  C
  C52      1.0000 0.45340  0.51180  0.65920  Biso   1.000  C
  H35      1.0000 0.59170  0.43940  0.36380  Biso   1.000  H
  H36      1.0000 0.40830  0.56060  0.63620  Biso   1.000  H
  C53      1.0000 0.47090  0.44600  0.25760  Biso   1.000  C
  C54      1.0000 0.52910  0.55400  0.74240  Biso   1.000  C
  H37      1.0000 0.46760  0.37120  0.22350  Biso   1.000  H
  H38      1.0000 0.53240  0.62880  0.77650  Biso   1.000  H
  C55      1.0000 0.39900  0.51480  0.22410  Biso   1.000  C
  C56      1.0000 0.60100  0.48520  0.77590  Biso   1.000  C
  C57      1.0000 0.40600  0.62640  0.27590  Biso   1.000  C
  C58      1.0000 0.59400  0.37360  0.72410  Biso   1.000  C
  H39      1.0000 0.35560  0.67120  0.25470  Biso   1.000  H
  H40      1.0000 0.64440  0.32880  0.74530  Biso   1.000  H
  C59      1.0000 0.49690  0.79640  0.41110  Biso   1.000  C
  C60      1.0000 0.50310  0.20360  0.58890  Biso   1.000  C
  N7       1.0000 0.32250  0.47250  0.13100  Biso   1.000  N
  N8       1.0000 0.67750  0.52750  0.86900  Biso   1.000  N
  C61      1.0000 0.97550  0.15800  0.75750  Biso   1.000  C
  C62      1.0000 0.02450  0.84200  0.24250  Biso   1.000  C
  C63      1.0000 0.00100  0.01000  0.65650  Biso   1.000  C
  C64      1.0000 0.99900  0.99000  0.34350  Biso   1.000  C
  C65      1.0000 0.88500  0.99600  0.60530  Biso   1.000  C
  C66      1.0000 0.11500  0.00400  0.39470  Biso   1.000  C
  C67      1.0000 0.85400  0.13300  0.70690  Biso   1.000  C
  C68      1.0000 0.14600  0.86700  0.29310  Biso   1.000  C
  H41      1.0000 0.00850  0.22300  0.80740  Biso   1.000  H
  H42      1.0000 0.99150  0.77700  0.19260  Biso   1.000  H
  H43      1.0000 0.04930  0.96370  0.63730  Biso   1.000  H
  H44      1.0000 0.95070  0.03630  0.36270  Biso   1.000  H
  H45      1.0000 0.86530  0.95440  0.54650  Biso   1.000  H
  H46      1.0000 0.13470  0.04560  0.45350  Biso   1.000  H
  H47      1.0000 0.81110  0.18590  0.72280  Biso   1.000  H
  H48      1.0000 0.18890  0.81410  0.27720  Biso   1.000  H
