data_image0
_cell_length_a       22.129
_cell_length_b       3.6781
_cell_length_c       13.749
_cell_angle_alpha    90
_cell_angle_beta     90.036
_cell_angle_gamma    90

_symmetry_space_group_name_H-M    "P 1"
_symmetry_int_tables_number       1

loop_
  _symmetry_equiv_pos_as_xyz
  'x, y, z'

loop_
  _atom_site_label
  _atom_site_occupancy
  _atom_site_fract_x
  _atom_site_fract_y
  _atom_site_fract_z
  _atom_site_thermal_displace_type
  _atom_site_B_iso_or_equiv
  _atom_site_type_symbol
  Br1      1.0000 0.18224  0.57313  0.19178  Biso   1.000  Br
  Br2      1.0000 0.81776  0.57313  0.30822  Biso   1.000  Br
  Br3      1.0000 0.68224  0.07313  0.19178  Biso   1.000  Br
  Br4      1.0000 0.31776  0.07313  0.30822  Biso   1.000  Br
  Br5      1.0000 0.81776  0.42687  0.80822  Biso   1.000  Br
  Br6      1.0000 0.18224  0.42687  0.69178  Biso   1.000  Br
  Br7      1.0000 0.31776  0.92687  0.80822  Biso   1.000  Br
  Br8      1.0000 0.68224  0.92687  0.69178  Biso   1.000  Br
  Cu1      1.0000 0.00000  0.09041  0.25000  Biso   1.000  Cu
  Cu2      1.0000 0.50000  0.59041  0.25000  Biso   1.000  Cu
  Cu3      1.0000 0.00000  0.90959  0.75000  Biso   1.000  Cu
  Cu4      1.0000 0.50000  0.40959  0.75000  Biso   1.000  Cu
  N1       1.0000 0.04563  0.27380  0.13799  Biso   1.000  N
  N2       1.0000 0.95437  0.27380  0.36201  Biso   1.000  N
  N3       1.0000 0.54563  0.77380  0.13799  Biso   1.000  N
  N4       1.0000 0.45437  0.77380  0.36201  Biso   1.000  N
  N5       1.0000 0.95437  0.72620  0.86201  Biso   1.000  N
  N6       1.0000 0.04563  0.72620  0.63799  Biso   1.000  N
  N7       1.0000 0.45437  0.22620  0.86201  Biso   1.000  N
  N8       1.0000 0.54563  0.22620  0.63799  Biso   1.000  N
  N9       1.0000 0.06506  0.14050  0.83517  Biso   1.000  N
  N10      1.0000 0.93494  0.14050  0.66483  Biso   1.000  N
  N11      1.0000 0.56506  0.64050  0.83517  Biso   1.000  N
  N12      1.0000 0.43494  0.64050  0.66483  Biso   1.000  N
  N13      1.0000 0.93494  0.85950  0.16483  Biso   1.000  N
  N14      1.0000 0.06506  0.85950  0.33517  Biso   1.000  N
  N15      1.0000 0.43494  0.35950  0.16483  Biso   1.000  N
  N16      1.0000 0.56506  0.35950  0.33517  Biso   1.000  N
  C1       1.0000 0.08036  0.26740  0.07645  Biso   1.000  C
  C2       1.0000 0.91964  0.26740  0.42355  Biso   1.000  C
  C3       1.0000 0.58036  0.76740  0.07645  Biso   1.000  C
  C4       1.0000 0.41964  0.76740  0.42355  Biso   1.000  C
  C5       1.0000 0.91964  0.73260  0.92355  Biso   1.000  C
  C6       1.0000 0.08036  0.73260  0.57645  Biso   1.000  C
  C7       1.0000 0.41964  0.23260  0.92355  Biso   1.000  C
  C8       1.0000 0.58036  0.23260  0.57645  Biso   1.000  C
  C9       1.0000 0.12057  0.24120  0.99657  Biso   1.000  C
  C10      1.0000 0.87943  0.24120  0.50343  Biso   1.000  C
  C11      1.0000 0.62057  0.74120  0.99657  Biso   1.000  C
  C12      1.0000 0.37943  0.74120  0.50343  Biso   1.000  C
  C13      1.0000 0.87943  0.75880  0.00343  Biso   1.000  C
  C14      1.0000 0.12057  0.75880  0.49657  Biso   1.000  C
  C15      1.0000 0.37943  0.25880  0.00343  Biso   1.000  C
  C16      1.0000 0.62057  0.25880  0.49657  Biso   1.000  C
  C17      1.0000 0.18462  0.24970  0.00134  Biso   1.000  C
  C18      1.0000 0.81538  0.24970  0.49866  Biso   1.000  C
  C19      1.0000 0.68462  0.74970  0.00134  Biso   1.000  C
  C20      1.0000 0.31538  0.74970  0.49866  Biso   1.000  C
  C21      1.0000 0.81538  0.75030  0.99866  Biso   1.000  C
  C22      1.0000 0.18462  0.75030  0.50134  Biso   1.000  C
  C23      1.0000 0.31538  0.25030  0.99866  Biso   1.000  C
  C24      1.0000 0.68462  0.25030  0.50134  Biso   1.000  C
  C25      1.0000 0.21998  0.37870  0.08046  Biso   1.000  C
  C26      1.0000 0.78002  0.37870  0.41954  Biso   1.000  C
  C27      1.0000 0.71998  0.87870  0.08046  Biso   1.000  C
  C28      1.0000 0.28002  0.87870  0.41954  Biso   1.000  C
  C29      1.0000 0.78002  0.62130  0.91954  Biso   1.000  C
  C30      1.0000 0.21998  0.62130  0.58046  Biso   1.000  C
  C31      1.0000 0.28002  0.12130  0.91954  Biso   1.000  C
  C32      1.0000 0.71998  0.12130  0.58046  Biso   1.000  C
  C33      1.0000 0.28147  0.38030  0.07850  Biso   1.000  C
  C34      1.0000 0.71853  0.38030  0.42150  Biso   1.000  C
  C35      1.0000 0.78147  0.88030  0.07850  Biso   1.000  C
  C36      1.0000 0.21853  0.88030  0.42150  Biso   1.000  C
  C37      1.0000 0.71853  0.61970  0.92150  Biso   1.000  C
  C38      1.0000 0.28147  0.61970  0.57850  Biso   1.000  C
  C39      1.0000 0.21853  0.11970  0.92150  Biso   1.000  C
  C40      1.0000 0.78147  0.11970  0.57850  Biso   1.000  C
  H1       1.0000 0.30210  0.47120  0.13220  Biso   1.000  H
  H2       1.0000 0.69790  0.47120  0.36780  Biso   1.000  H
  H3       1.0000 0.80210  0.97120  0.13220  Biso   1.000  H
  H4       1.0000 0.19790  0.97120  0.36780  Biso   1.000  H
  H5       1.0000 0.69790  0.52880  0.86780  Biso   1.000  H
  H6       1.0000 0.30210  0.52880  0.63220  Biso   1.000  H
  H7       1.0000 0.19790  0.02880  0.86780  Biso   1.000  H
  H8       1.0000 0.80210  0.02880  0.63220  Biso   1.000  H
  C41      1.0000 0.09100  0.17960  0.90676  Biso   1.000  C
  C42      1.0000 0.90900  0.17960  0.59324  Biso   1.000  C
  C43      1.0000 0.59100  0.67960  0.90676  Biso   1.000  C
  C44      1.0000 0.40900  0.67960  0.59324  Biso   1.000  C
  C45      1.0000 0.90900  0.82040  0.09324  Biso   1.000  C
  C46      1.0000 0.09100  0.82040  0.40676  Biso   1.000  C
  C47      1.0000 0.40900  0.32040  0.09324  Biso   1.000  C
  C48      1.0000 0.59100  0.32040  0.40676  Biso   1.000  C
