data_image0
_cell_length_a       11.508
_cell_length_b       13.522
_cell_length_c       8.643
_cell_angle_alpha    106.62
_cell_angle_beta     93.65
_cell_angle_gamma    66.583

_symmetry_space_group_name_H-M    "P 1"
_symmetry_int_tables_number       1

loop_
  _symmetry_equiv_pos_as_xyz
  'x, y, z'

loop_
  _atom_site_label
  _atom_site_occupancy
  _atom_site_fract_x
  _atom_site_fract_y
  _atom_site_fract_z
  _atom_site_thermal_displace_type
  _atom_site_B_iso_or_equiv
  _atom_site_type_symbol
  Br1      1.0000 0.27694  0.10864  0.65530  Biso   1.000  Br
  Br2      1.0000 0.72306  0.89136  0.34470  Biso   1.000  Br
  Br3      1.0000 0.50000  0.00000  0.00000  Biso   1.000  Br
  Br4      1.0000 0.20670  0.89994  0.84650  Biso   1.000  Br
  Br5      1.0000 0.79330  0.10006  0.15350  Biso   1.000  Br
  Br6      1.0000 0.00000  0.00000  0.50000  Biso   1.000  Br
  Cu1      1.0000 0.28740  0.05120  0.90380  Biso   1.000  Cu
  Cu2      1.0000 0.71260  0.94880  0.09620  Biso   1.000  Cu
  Cu3      1.0000 0.21420  0.94400  0.60390  Biso   1.000  Cu
  Cu4      1.0000 0.78580  0.05600  0.39610  Biso   1.000  Cu
  S1       1.0000 0.04080  0.70110  0.23050  Biso   1.000  S
  S2       1.0000 0.95920  0.29890  0.76950  Biso   1.000  S
  S3       1.0000 0.22230  0.55150  0.95800  Biso   1.000  S
  S4       1.0000 0.77770  0.44850  0.04200  Biso   1.000  S
  S5       1.0000 0.01380  0.49150  0.29980  Biso   1.000  S
  S6       1.0000 0.98620  0.50850  0.70020  Biso   1.000  S
  S7       1.0000 0.19690  0.33610  0.02270  Biso   1.000  S
  S8       1.0000 0.80310  0.66390  0.97730  Biso   1.000  S
  S9       1.0000 0.27540  0.44610  0.53580  Biso   1.000  S
  S10      1.0000 0.72460  0.55390  0.46420  Biso   1.000  S
  S11      1.0000 0.45800  0.29500  0.26200  Biso   1.000  S
  S12      1.0000 0.54200  0.70500  0.73800  Biso   1.000  S
  S13      1.0000 0.30260  0.66000  0.47540  Biso   1.000  S
  S14      1.0000 0.69740  0.34000  0.52460  Biso   1.000  S
  S15      1.0000 0.48780  0.50420  0.19600  Biso   1.000  S
  S16      1.0000 0.51220  0.49580  0.80400  Biso   1.000  S
  N1       1.0000 0.99990  0.30900  0.35740  Biso   1.000  N
  N2       1.0000 0.00010  0.69100  0.64260  Biso   1.000  N
  N3       1.0000 0.16830  0.16270  0.09940  Biso   1.000  N
  N4       1.0000 0.83170  0.83730  0.90060  Biso   1.000  N
  N5       1.0000 0.33250  0.82840  0.41620  Biso   1.000  N
  N6       1.0000 0.66750  0.17160  0.58380  Biso   1.000  N
  N7       1.0000 0.50820  0.67750  0.14570  Biso   1.000  N
  N8       1.0000 0.49180  0.32250  0.85430  Biso   1.000  N
  C1       1.0000 0.09590  0.76490  0.11600  Biso   1.000  C
  C2       1.0000 0.90410  0.23510  0.88400  Biso   1.000  C
  C3       1.0000 0.17430  0.70260  0.00260  Biso   1.000  C
  C4       1.0000 0.82570  0.29740  0.99740  Biso   1.000  C
  C5       1.0000 0.12440  0.56460  0.11400  Biso   1.000  C
  C6       1.0000 0.87560  0.43540  0.88600  Biso   1.000  C
  C7       1.0000 0.11800  0.47170  0.13600  Biso   1.000  C
  C8       1.0000 0.88200  0.52830  0.86400  Biso   1.000  C
  C9       1.0000 0.04510  0.35080  0.26100  Biso   1.000  C
  C10      1.0000 0.95490  0.64920  0.73900  Biso   1.000  C
  C11      1.0000 0.13300  0.27080  0.13210  Biso   1.000  C
  C12      1.0000 0.86700  0.72920  0.86790  Biso   1.000  C
  C13      1.0000 0.03740  0.19540  0.31600  Biso   1.000  C
  C14      1.0000 0.96260  0.80460  0.68400  Biso   1.000  C
  C15      1.0000 0.10800  0.13520  0.18900  Biso   1.000  C
  C16      1.0000 0.89200  0.86480  0.81100  Biso   1.000  C
  C17      1.0000 0.37850  0.87490  0.31430  Biso   1.000  C
  C18      1.0000 0.62150  0.12510  0.68570  Biso   1.000  C
  C19      1.0000 0.47420  0.79040  0.18150  Biso   1.000  C
  C20      1.0000 0.52580  0.20960  0.81850  Biso   1.000  C
  C21      1.0000 0.36300  0.71710  0.36790  Biso   1.000  C
  C22      1.0000 0.63700  0.28290  0.63210  Biso   1.000  C
  C23      1.0000 0.44800  0.65080  0.23700  Biso   1.000  C
  C24      1.0000 0.55200  0.34920  0.76300  Biso   1.000  C
  C25      1.0000 0.38800  0.52160  0.34830  Biso   1.000  C
  C26      1.0000 0.61200  0.47840  0.65170  Biso   1.000  C
  C27      1.0000 0.37200  0.43160  0.37600  Biso   1.000  C
  C28      1.0000 0.62800  0.56840  0.62400  Biso   1.000  C
  C29      1.0000 0.31400  0.31290  0.51000  Biso   1.000  C
  C30      1.0000 0.68600  0.68710  0.49000  Biso   1.000  C
  C31      1.0000 0.40400  0.23600  0.37000  Biso   1.000  C
  C32      1.0000 0.59600  0.76400  0.63000  Biso   1.000  C
  H1       1.0000 0.06600  0.84430  0.13920  Biso   1.000  H
  H2       1.0000 0.93400  0.15570  0.86080  Biso   1.000  H
  H3       1.0000 0.20700  0.73090  0.93480  Biso   1.000  H
  H4       1.0000 0.79300  0.26910  0.06520  Biso   1.000  H
  H5       1.0000 0.00250  0.16440  0.37750  Biso   1.000  H
  H6       1.0000 0.99750  0.83560  0.62250  Biso   1.000  H
  H7       1.0000 0.12910  0.05670  0.16340  Biso   1.000  H
  H8       1.0000 0.87090  0.94330  0.83660  Biso   1.000  H
  H9       1.0000 0.35660  0.95340  0.33660  Biso   1.000  H
  H10      1.0000 0.64340  0.04660  0.66340  Biso   1.000  H
  H11      1.0000 0.50680  0.81890  0.11380  Biso   1.000  H
  H12      1.0000 0.49320  0.18110  0.88620  Biso   1.000  H
  H13      1.0000 0.27960  0.28520  0.57660  Biso   1.000  H
  H14      1.0000 0.72040  0.71480  0.42340  Biso   1.000  H
  H15      1.0000 0.42850  0.15700  0.34320  Biso   1.000  H
  H16      1.0000 0.57150  0.84300  0.65680  Biso   1.000  H
