data_image0
_cell_length_a       7.439
_cell_length_b       11.964
_cell_length_c       7.062
_cell_angle_alpha    90.17
_cell_angle_beta     105.226
_cell_angle_gamma    84.984

_symmetry_space_group_name_H-M    "P 1"
_symmetry_int_tables_number       1

loop_
  _symmetry_equiv_pos_as_xyz
  'x, y, z'

loop_
  _atom_site_label
  _atom_site_occupancy
  _atom_site_fract_x
  _atom_site_fract_y
  _atom_site_fract_z
  _atom_site_thermal_displace_type
  _atom_site_B_iso_or_equiv
  _atom_site_type_symbol
  Br1      1.0000 0.76723  0.10370  0.44335  Biso   1.000  Br
  Br2      1.0000 0.23277  0.89630  0.55665  Biso   1.000  Br
  Br3      1.0000 0.00000  0.00000  0.00000  Biso   1.000  Br
  Cu1      1.0000 0.05653  0.05337  0.68810  Biso   1.000  Cu
  Cu2      1.0000 0.94347  0.94663  0.31190  Biso   1.000  Cu
  Cl1      1.0000 0.79100  0.09600  0.51400  Biso   1.000  Cl
  Cl2      1.0000 0.20900  0.90400  0.48600  Biso   1.000  Cl
  S1       1.0000 0.98629  0.33855  0.72147  Biso   1.000  S
  S2       1.0000 0.01371  0.66145  0.27853  Biso   1.000  S
  S3       1.0000 0.28978  0.49250  0.81866  Biso   1.000  S
  S4       1.0000 0.71022  0.50750  0.18134  Biso   1.000  S
  S5       1.0000 0.68398  0.55389  0.68119  Biso   1.000  S
  S6       1.0000 0.31602  0.44611  0.31881  Biso   1.000  S
  S7       1.0000 0.98554  0.70281  0.77491  Biso   1.000  S
  S8       1.0000 0.01446  0.29719  0.22509  Biso   1.000  S
  N1       1.0000 0.25320  0.16650  0.76040  Biso   1.000  N
  N2       1.0000 0.74680  0.83350  0.23960  Biso   1.000  N
  N3       1.0000 0.53840  0.31290  0.85840  Biso   1.000  N
  N4       1.0000 0.46160  0.68710  0.14160  Biso   1.000  N
  C1       1.0000 0.43680  0.13000  0.80420  Biso   1.000  C
  C2       1.0000 0.56320  0.87000  0.19580  Biso   1.000  C
  C3       1.0000 0.57550  0.20180  0.85410  Biso   1.000  C
  C4       1.0000 0.42450  0.79820  0.14590  Biso   1.000  C
  C5       1.0000 0.21630  0.27740  0.76900  Biso   1.000  C
  C6       1.0000 0.78370  0.72260  0.23100  Biso   1.000  C
  C7       1.0000 0.35860  0.34910  0.81490  Biso   1.000  C
  C8       1.0000 0.64140  0.65090  0.18510  Biso   1.000  C
  C9       1.0000 0.05080  0.47520  0.75970  Biso   1.000  C
  C10      1.0000 0.94920  0.52480  0.24030  Biso   1.000  C
  C11      1.0000 0.92300  0.56580  0.74390  Biso   1.000  C
  C12      1.0000 0.07700  0.43420  0.25610  Biso   1.000  C
  C13      1.0000 0.62160  0.69670  0.67400  Biso   1.000  C
  C14      1.0000 0.37840  0.30330  0.32600  Biso   1.000  C
  C15      1.0000 0.75800  0.76360  0.71590  Biso   1.000  C
  C16      1.0000 0.24200  0.23640  0.28410  Biso   1.000  C
  H1       1.0000 0.47050  0.05330  0.80250  Biso   1.000  H
  H2       1.0000 0.52950  0.94670  0.19750  Biso   1.000  H
  H3       1.0000 0.70070  0.17260  0.88330  Biso   1.000  H
  H4       1.0000 0.29930  0.82740  0.11670  Biso   1.000  H
  H5       1.0000 0.49570  0.72480  0.64090  Biso   1.000  H
  H6       1.0000 0.50430  0.27520  0.35910  Biso   1.000  H
  H7       1.0000 0.73240  0.84120  0.71390  Biso   1.000  H
  H8       1.0000 0.26760  0.15880  0.28610  Biso   1.000  H
