data_image0
_cell_length_a       7.4234
_cell_length_b       11.953
_cell_length_c       7
_cell_angle_alpha    90.147
_cell_angle_beta     105.932
_cell_angle_gamma    85.179

_symmetry_space_group_name_H-M    "P 1"
_symmetry_int_tables_number       1

loop_
  _symmetry_equiv_pos_as_xyz
  'x, y, z'

loop_
  _atom_site_label
  _atom_site_occupancy
  _atom_site_fract_x
  _atom_site_fract_y
  _atom_site_fract_z
  _atom_site_thermal_displace_type
  _atom_site_B_iso_or_equiv
  _atom_site_type_symbol
  Br1      1.0000 0.26579  0.10463  0.43967  Biso   1.000  Br
  Br2      1.0000 0.73421  0.89537  0.56033  Biso   1.000  Br
  Br3      1.0000 0.50000  0.00000  0.00000  Biso   1.000  Br
  Cu1      1.0000 0.55881  0.05368  0.68701  Biso   1.000  Cu
  Cu2      1.0000 0.44119  0.94632  0.31299  Biso   1.000  Cu
  Cl1      1.0000 0.26400  0.08800  0.47100  Biso   1.000  Cl
  Cl2      1.0000 0.73600  0.91200  0.52900  Biso   1.000  Cl
  S1       1.0000 0.48833  0.70294  0.77531  Biso   1.000  S
  S2       1.0000 0.51167  0.29706  0.22469  Biso   1.000  S
  S3       1.0000 0.18453  0.55304  0.68358  Biso   1.000  S
  S4       1.0000 0.81547  0.44696  0.31642  Biso   1.000  S
  S5       1.0000 0.79368  0.49314  0.81592  Biso   1.000  S
  S6       1.0000 0.20632  0.50686  0.18408  Biso   1.000  S
  S7       1.0000 0.48793  0.33803  0.72085  Biso   1.000  S
  S8       1.0000 0.51207  0.66197  0.27915  Biso   1.000  S
  N1       1.0000 0.04300  0.31460  0.85420  Biso   1.000  N
  N2       1.0000 0.95700  0.68540  0.14580  Biso   1.000  N
  N3       1.0000 0.75600  0.16650  0.75970  Biso   1.000  N
  N4       1.0000 0.24400  0.83350  0.24030  Biso   1.000  N
  C1       1.0000 0.25950  0.76490  0.71620  Biso   1.000  C
  C2       1.0000 0.74050  0.23510  0.28380  Biso   1.000  C
  C3       1.0000 0.12330  0.69600  0.67490  Biso   1.000  C
  C4       1.0000 0.87670  0.30400  0.32510  Biso   1.000  C
  C5       1.0000 0.42490  0.56550  0.74430  Biso   1.000  C
  C6       1.0000 0.57510  0.43450  0.25570  Biso   1.000  C
  C7       1.0000 0.55380  0.47550  0.75930  Biso   1.000  C
  C8       1.0000 0.44620  0.52450  0.24070  Biso   1.000  C
  C9       1.0000 0.86290  0.34980  0.81220  Biso   1.000  C
  C10      1.0000 0.13710  0.65020  0.18780  Biso   1.000  C
  C11      1.0000 0.71930  0.27740  0.76700  Biso   1.000  C
  C12      1.0000 0.28070  0.72260  0.23300  Biso   1.000  C
  C13      1.0000 0.08190  0.20290  0.85120  Biso   1.000  C
  C14      1.0000 0.91810  0.79710  0.14880  Biso   1.000  C
  C15      1.0000 0.94140  0.13040  0.80370  Biso   1.000  C
  C16      1.0000 0.05860  0.86960  0.19630  Biso   1.000  C
  H1       1.0000 0.23340  0.84410  0.71430  Biso   1.000  H
  H2       1.0000 0.76660  0.15590  0.28570  Biso   1.000  H
  H3       1.0000 0.99490  0.72470  0.63990  Biso   1.000  H
  H4       1.0000 0.00510  0.27530  0.36010  Biso   1.000  H
  H5       1.0000 0.20940  0.17280  0.88330  Biso   1.000  H
  H6       1.0000 0.79060  0.82720  0.11670  Biso   1.000  H
  H7       1.0000 0.97580  0.05220  0.80140  Biso   1.000  H
  H8       1.0000 0.02420  0.94780  0.19860  Biso   1.000  H
