data_image0
_cell_length_a       10.79
_cell_length_b       13.274
_cell_length_c       5.952
_cell_angle_alpha    90
_cell_angle_beta     92.71
_cell_angle_gamma    90

_symmetry_space_group_name_H-M    "P 1"
_symmetry_int_tables_number       1

loop_
  _symmetry_equiv_pos_as_xyz
  'x, y, z'

loop_
  _atom_site_label
  _atom_site_occupancy
  _atom_site_fract_x
  _atom_site_fract_y
  _atom_site_fract_z
  _atom_site_thermal_displace_type
  _atom_site_B_iso_or_equiv
  _atom_site_type_symbol
  Cu1      1.0000 0.80550  0.27150  0.15090  Biso   1.000  Cu
  Cu2      1.0000 0.19450  0.77150  0.34910  Biso   1.000  Cu
  Cu3      1.0000 0.19450  0.72850  0.84910  Biso   1.000  Cu
  Cu4      1.0000 0.80550  0.22850  0.65090  Biso   1.000  Cu
  Cu5      1.0000 0.49930  0.30360  0.53180  Biso   1.000  Cu
  Cu6      1.0000 0.50070  0.80360  0.96820  Biso   1.000  Cu
  Cu7      1.0000 0.50070  0.69640  0.46820  Biso   1.000  Cu
  Cu8      1.0000 0.49930  0.19640  0.03180  Biso   1.000  Cu
  Cl1      1.0000 0.91820  0.15850  0.38010  Biso   1.000  Cl
  Cl2      1.0000 0.08180  0.65850  0.11990  Biso   1.000  Cl
  Cl3      1.0000 0.08180  0.84150  0.61990  Biso   1.000  Cl
  Cl4      1.0000 0.91820  0.34150  0.88010  Biso   1.000  Cl
  Cl5      1.0000 0.41860  0.33610  0.86000  Biso   1.000  Cl
  Cl6      1.0000 0.58140  0.83610  0.64000  Biso   1.000  Cl
  Cl7      1.0000 0.58140  0.66390  0.14000  Biso   1.000  Cl
  Cl8      1.0000 0.41860  0.16390  0.36000  Biso   1.000  Cl
  S1       1.0000 0.66780  0.35150  0.36830  Biso   1.000  S
  S2       1.0000 0.33220  0.85150  0.13170  Biso   1.000  S
  S3       1.0000 0.33220  0.64850  0.63170  Biso   1.000  S
  S4       1.0000 0.66780  0.14850  0.86830  Biso   1.000  S
  S5       1.0000 0.85530  0.51330  0.36060  Biso   1.000  S
  S6       1.0000 0.14470  0.01330  0.13940  Biso   1.000  S
  S7       1.0000 0.14470  0.48670  0.63940  Biso   1.000  S
  S8       1.0000 0.85530  0.98670  0.86060  Biso   1.000  S
  S9       1.0000 0.66500  0.52160  0.69190  Biso   1.000  S
  S10      1.0000 0.33500  0.02160  0.80810  Biso   1.000  S
  S11      1.0000 0.33500  0.47840  0.30810  Biso   1.000  S
  S12      1.0000 0.66500  0.97840  0.19190  Biso   1.000  S
  C1       1.0000 0.72850  0.46090  0.46990  Biso   1.000  C
  C2       1.0000 0.27150  0.96090  0.03010  Biso   1.000  C
  C3       1.0000 0.27150  0.53910  0.53010  Biso   1.000  C
  C4       1.0000 0.72850  0.03910  0.96990  Biso   1.000  C
  C5       1.0000 0.85160  0.62830  0.52350  Biso   1.000  C
  C6       1.0000 0.14840  0.12830  0.97650  Biso   1.000  C
  C7       1.0000 0.14840  0.37170  0.47650  Biso   1.000  C
  C8       1.0000 0.85160  0.87170  0.02350  Biso   1.000  C
  C9       1.0000 0.79740  0.60350  0.74670  Biso   1.000  C
  C10      1.0000 0.20260  0.10350  0.75330  Biso   1.000  C
  C11      1.0000 0.20260  0.39650  0.25330  Biso   1.000  C
  C12      1.0000 0.79740  0.89650  0.24670  Biso   1.000  C
  H1       1.0000 0.79470  0.68400  0.43580  Biso   1.000  H
  H2       1.0000 0.20530  0.18400  0.06420  Biso   1.000  H
  H3       1.0000 0.20530  0.31600  0.56420  Biso   1.000  H
  H4       1.0000 0.79470  0.81600  0.93580  Biso   1.000  H
  H5       1.0000 0.94460  0.65720  0.55120  Biso   1.000  H
  H6       1.0000 0.05540  0.15720  0.94880  Biso   1.000  H
  H7       1.0000 0.05540  0.34280  0.44880  Biso   1.000  H
  H8       1.0000 0.94460  0.84280  0.05120  Biso   1.000  H
  H9       1.0000 0.86590  0.56510  0.85350  Biso   1.000  H
  H10      1.0000 0.13410  0.06510  0.64650  Biso   1.000  H
  H11      1.0000 0.13410  0.43490  0.14650  Biso   1.000  H
  H12      1.0000 0.86590  0.93490  0.35350  Biso   1.000  H
  H13      1.0000 0.76840  0.67160  0.82870  Biso   1.000  H
  H14      1.0000 0.23160  0.17160  0.67130  Biso   1.000  H
  H15      1.0000 0.23160  0.32840  0.17130  Biso   1.000  H
  H16      1.0000 0.76840  0.82840  0.32870  Biso   1.000  H
