data_image0
_cell_length_a       5.007
_cell_length_b       16.861
_cell_length_c       14.454
_cell_angle_alpha    90
_cell_angle_beta     102.499
_cell_angle_gamma    90

_symmetry_space_group_name_H-M    "P 1"
_symmetry_int_tables_number       1

loop_
  _symmetry_equiv_pos_as_xyz
  'x, y, z'

loop_
  _atom_site_label
  _atom_site_occupancy
  _atom_site_fract_x
  _atom_site_fract_y
  _atom_site_fract_z
  _atom_site_thermal_displace_type
  _atom_site_B_iso_or_equiv
  _atom_site_type_symbol
  Cu1      1.0000 0.21713  0.60859  0.34800  Biso   1.000  Cu
  Cu2      1.0000 0.78287  0.10859  0.15200  Biso   1.000  Cu
  Cu3      1.0000 0.78287  0.39141  0.65200  Biso   1.000  Cu
  Cu4      1.0000 0.21713  0.89141  0.84800  Biso   1.000  Cu
  Cu5      1.0000 0.72990  0.52574  0.45774  Biso   1.000  Cu
  Cu6      1.0000 0.27010  0.02574  0.04226  Biso   1.000  Cu
  Cu7      1.0000 0.27010  0.47426  0.54226  Biso   1.000  Cu
  Cu8      1.0000 0.72990  0.97426  0.95774  Biso   1.000  Cu
  Cl1      1.0000 0.37820  0.48541  0.35187  Biso   1.000  Cl
  Cl2      1.0000 0.62180  0.98541  0.14813  Biso   1.000  Cl
  Cl3      1.0000 0.62180  0.51459  0.64813  Biso   1.000  Cl
  Cl4      1.0000 0.37820  0.01459  0.85187  Biso   1.000  Cl
  Cl5      1.0000 0.02410  0.61986  0.49106  Biso   1.000  Cl
  Cl6      1.0000 0.97590  0.11986  0.00894  Biso   1.000  Cl
  Cl7      1.0000 0.97590  0.38014  0.50894  Biso   1.000  Cl
  Cl8      1.0000 0.02410  0.88014  0.99106  Biso   1.000  Cl
  O1       1.0000 0.06880  0.60720  0.00420  Biso   1.000  O
  O2       1.0000 0.93120  0.10720  0.49580  Biso   1.000  O
  O3       1.0000 0.93120  0.39280  0.99580  Biso   1.000  O
  O4       1.0000 0.06880  0.89280  0.50420  Biso   1.000  O
  O5       1.0000 0.27360  0.50500  0.07940  Biso   1.000  O
  O6       1.0000 0.72640  0.00500  0.42060  Biso   1.000  O
  O7       1.0000 0.72640  0.49500  0.92060  Biso   1.000  O
  O8       1.0000 0.27360  0.99500  0.57940  Biso   1.000  O
  N1       1.0000 0.90010  0.64180  0.23040  Biso   1.000  N
  N2       1.0000 0.09990  0.14180  0.26960  Biso   1.000  N
  N3       1.0000 0.09990  0.35820  0.76960  Biso   1.000  N
  N4       1.0000 0.90010  0.85820  0.73040  Biso   1.000  N
  N5       1.0000 0.13360  0.75970  0.25800  Biso   1.000  N
  N6       1.0000 0.86640  0.25970  0.24200  Biso   1.000  N
  N7       1.0000 0.86640  0.24030  0.74200  Biso   1.000  N
  N8       1.0000 0.13360  0.74030  0.75800  Biso   1.000  N
  N9       1.0000 0.32670  0.71950  0.32400  Biso   1.000  N
  N10      1.0000 0.67330  0.21950  0.17600  Biso   1.000  N
  N11      1.0000 0.67330  0.28050  0.67600  Biso   1.000  N
  N12      1.0000 0.32670  0.78050  0.82400  Biso   1.000  N
  C1       1.0000 0.69300  0.59910  0.18250  Biso   1.000  C
  C2       1.0000 0.30700  0.09910  0.31750  Biso   1.000  C
  C3       1.0000 0.30700  0.40090  0.81750  Biso   1.000  C
  C4       1.0000 0.69300  0.90090  0.68250  Biso   1.000  C
  H1       1.0000 0.68580  0.54540  0.19640  Biso   1.000  H
  H2       1.0000 0.31420  0.04540  0.30360  Biso   1.000  H
  H3       1.0000 0.31420  0.45460  0.80360  Biso   1.000  H
  H4       1.0000 0.68580  0.95460  0.69640  Biso   1.000  H
  C5       1.0000 0.48940  0.63070  0.11340  Biso   1.000  C
  C6       1.0000 0.51060  0.13070  0.38660  Biso   1.000  C
  C7       1.0000 0.51060  0.36930  0.88660  Biso   1.000  C
  C8       1.0000 0.48940  0.86930  0.61340  Biso   1.000  C
  C9       1.0000 0.48960  0.70940  0.09330  Biso   1.000  C
  C10      1.0000 0.51040  0.20940  0.40670  Biso   1.000  C
  C11      1.0000 0.51040  0.29060  0.90670  Biso   1.000  C
  C12      1.0000 0.48960  0.79060  0.59330  Biso   1.000  C
  H5       1.0000 0.34800  0.73210  0.04890  Biso   1.000  H
  H6       1.0000 0.65200  0.23210  0.45110  Biso   1.000  H
  H7       1.0000 0.65200  0.26790  0.95110  Biso   1.000  H
  H8       1.0000 0.34800  0.76790  0.54890  Biso   1.000  H
  C13      1.0000 0.70820  0.75490  0.14120  Biso   1.000  C
  C14      1.0000 0.29180  0.25490  0.35880  Biso   1.000  C
  C15      1.0000 0.29180  0.24510  0.85880  Biso   1.000  C
  C16      1.0000 0.70820  0.74510  0.64120  Biso   1.000  C
  H9       1.0000 0.71890  0.80890  0.12920  Biso   1.000  H
  H10      1.0000 0.28110  0.30890  0.37080  Biso   1.000  H
  H11      1.0000 0.28110  0.19110  0.87080  Biso   1.000  H
  H12      1.0000 0.71890  0.69110  0.62920  Biso   1.000  H
  C17      1.0000 0.91090  0.71670  0.20790  Biso   1.000  C
  C18      1.0000 0.08910  0.21670  0.29210  Biso   1.000  C
  C19      1.0000 0.08910  0.28330  0.79210  Biso   1.000  C
  C20      1.0000 0.91090  0.78330  0.70790  Biso   1.000  C
  C21      1.0000 0.20860  0.83790  0.25400  Biso   1.000  C
  C22      1.0000 0.79140  0.33790  0.24600  Biso   1.000  C
  C23      1.0000 0.79140  0.16210  0.74600  Biso   1.000  C
  C24      1.0000 0.20860  0.66210  0.75400  Biso   1.000  C
  H13      1.0000 0.11260  0.87710  0.21520  Biso   1.000  H
  H14      1.0000 0.88740  0.37710  0.28480  Biso   1.000  H
  H15      1.0000 0.88740  0.12290  0.78480  Biso   1.000  H
  H16      1.0000 0.11260  0.62290  0.71520  Biso   1.000  H
  C25      1.0000 0.44540  0.84690  0.31650  Biso   1.000  C
  C26      1.0000 0.55460  0.34690  0.18350  Biso   1.000  C
  C27      1.0000 0.55460  0.15310  0.68350  Biso   1.000  C
  C28      1.0000 0.44540  0.65310  0.81650  Biso   1.000  C
  H17      1.0000 0.54420  0.89380  0.32910  Biso   1.000  H
  H18      1.0000 0.45580  0.39380  0.17090  Biso   1.000  H
  H19      1.0000 0.45580  0.10620  0.67090  Biso   1.000  H
  H20      1.0000 0.54420  0.60620  0.82910  Biso   1.000  H
  C29      1.0000 0.51900  0.77420  0.35930  Biso   1.000  C
  C30      1.0000 0.48100  0.27420  0.14070  Biso   1.000  C
  C31      1.0000 0.48100  0.22580  0.64070  Biso   1.000  C
  C32      1.0000 0.51900  0.72580  0.85930  Biso   1.000  C
  H21      1.0000 0.67660  0.76460  0.40540  Biso   1.000  H
  H22      1.0000 0.32340  0.26460  0.09460  Biso   1.000  H
  H23      1.0000 0.32340  0.23540  0.59460  Biso   1.000  H
  H24      1.0000 0.67660  0.73540  0.90540  Biso   1.000  H
  C33      1.0000 0.27000  0.57640  0.06190  Biso   1.000  C
  C34      1.0000 0.73000  0.07640  0.43810  Biso   1.000  C
  C35      1.0000 0.73000  0.42360  0.93810  Biso   1.000  C
  C36      1.0000 0.27000  0.92360  0.56190  Biso   1.000  C
