data_image0
_cell_length_a       16.697
_cell_length_b       16.697
_cell_length_c       6.438
_cell_angle_alpha    90
_cell_angle_beta     90
_cell_angle_gamma    90

_symmetry_space_group_name_H-M    "P 1"
_symmetry_int_tables_number       1

loop_
  _symmetry_equiv_pos_as_xyz
  'x, y, z'

loop_
  _atom_site_label
  _atom_site_occupancy
  _atom_site_fract_x
  _atom_site_fract_y
  _atom_site_fract_z
  _atom_site_thermal_displace_type
  _atom_site_B_iso_or_equiv
  _atom_site_type_symbol
  Cu1      1.0000 0.50000  0.50000  0.25000  Biso   1.000  Cu
  Cu2      1.0000 0.50000  0.50000  0.75000  Biso   1.000  Cu
  Cu3      1.0000 0.00000  0.00000  0.25000  Biso   1.000  Cu
  Cu4      1.0000 0.00000  0.00000  0.75000  Biso   1.000  Cu
  Cl1      1.0000 0.38240  0.11060  0.50000  Biso   1.000  Cl
  Cl2      1.0000 0.88940  0.38240  0.00000  Biso   1.000  Cl
  Cl3      1.0000 0.61760  0.88940  0.50000  Biso   1.000  Cl
  Cl4      1.0000 0.11060  0.61760  0.00000  Biso   1.000  Cl
  S1       1.0000 0.44790  0.40640  0.50000  Biso   1.000  S
  S2       1.0000 0.59360  0.44790  0.00000  Biso   1.000  S
  S3       1.0000 0.55210  0.59360  0.50000  Biso   1.000  S
  S4       1.0000 0.40640  0.55210  0.00000  Biso   1.000  S
  S5       1.0000 0.10610  0.01330  0.50000  Biso   1.000  S
  S6       1.0000 0.98670  0.10610  0.00000  Biso   1.000  S
  S7       1.0000 0.89390  0.98670  0.50000  Biso   1.000  S
  S8       1.0000 0.01330  0.89390  0.00000  Biso   1.000  S
  O1       1.0000 0.30610  0.07690  0.50000  Biso   1.000  O
  O2       1.0000 0.92310  0.30610  0.00000  Biso   1.000  O
  O3       1.0000 0.69390  0.92310  0.50000  Biso   1.000  O
  O4       1.0000 0.07690  0.69390  0.00000  Biso   1.000  O
  O5       1.0000 0.38070  0.18640  0.50000  Biso   1.000  O
  O6       1.0000 0.81360  0.38070  0.00000  Biso   1.000  O
  O7       1.0000 0.61930  0.81360  0.50000  Biso   1.000  O
  O8       1.0000 0.18640  0.61930  0.00000  Biso   1.000  O
  O9       1.0000 0.42570  0.08200  0.35000  Biso   1.000  O
  O10      1.0000 0.91800  0.42570  0.85000  Biso   1.000  O
  O11      1.0000 0.57430  0.91800  0.35000  Biso   1.000  O
  O12      1.0000 0.08200  0.57430  0.85000  Biso   1.000  O
  O13      1.0000 0.57430  0.91800  0.65000  Biso   1.000  O
  O14      1.0000 0.08200  0.57430  0.15000  Biso   1.000  O
  O15      1.0000 0.42570  0.08200  0.65000  Biso   1.000  O
  O16      1.0000 0.91800  0.42570  0.15000  Biso   1.000  O
  N1       1.0000 0.30560  0.33870  0.50000  Biso   1.000  N
  N2       1.0000 0.66130  0.30560  0.00000  Biso   1.000  N
  N3       1.0000 0.69440  0.66130  0.50000  Biso   1.000  N
  N4       1.0000 0.33870  0.69440  0.00000  Biso   1.000  N
  N5       1.0000 0.23460  0.92180  0.50000  Biso   1.000  N
  N6       1.0000 0.07820  0.23460  0.00000  Biso   1.000  N
  N7       1.0000 0.76540  0.07820  0.50000  Biso   1.000  N
  N8       1.0000 0.92180  0.76540  0.00000  Biso   1.000  N
  C1       1.0000 0.34450  0.40820  0.50000  Biso   1.000  C
  C2       1.0000 0.59180  0.34450  0.00000  Biso   1.000  C
  C3       1.0000 0.65550  0.59180  0.50000  Biso   1.000  C
  C4       1.0000 0.40820  0.65550  0.00000  Biso   1.000  C
  C5       1.0000 0.29920  0.48060  0.50000  Biso   1.000  C
  C6       1.0000 0.51940  0.29920  0.00000  Biso   1.000  C
  C7       1.0000 0.70080  0.51940  0.50000  Biso   1.000  C
  C8       1.0000 0.48060  0.70080  0.00000  Biso   1.000  C
  C9       1.0000 0.21690  0.47550  0.50000  Biso   1.000  C
  C10      1.0000 0.52450  0.21690  0.00000  Biso   1.000  C
  C11      1.0000 0.78310  0.52450  0.50000  Biso   1.000  C
  C12      1.0000 0.47550  0.78310  0.00000  Biso   1.000  C
  C13      1.0000 0.17610  0.40140  0.50000  Biso   1.000  C
  C14      1.0000 0.59860  0.17610  0.00000  Biso   1.000  C
  C15      1.0000 0.82390  0.59860  0.50000  Biso   1.000  C
  C16      1.0000 0.40140  0.82390  0.00000  Biso   1.000  C
  C17      1.0000 0.09340  0.39420  0.50000  Biso   1.000  C
  C18      1.0000 0.60580  0.09340  0.00000  Biso   1.000  C
  C19      1.0000 0.90660  0.60580  0.50000  Biso   1.000  C
  C20      1.0000 0.39420  0.90660  0.00000  Biso   1.000  C
  C21      1.0000 0.05880  0.32010  0.50000  Biso   1.000  C
  C22      1.0000 0.67990  0.05880  0.00000  Biso   1.000  C
  C23      1.0000 0.94120  0.67990  0.50000  Biso   1.000  C
  C24      1.0000 0.32010  0.94120  0.00000  Biso   1.000  C
  C25      1.0000 0.10560  0.25110  0.50000  Biso   1.000  C
  C26      1.0000 0.74890  0.10560  0.00000  Biso   1.000  C
  C27      1.0000 0.89440  0.74890  0.50000  Biso   1.000  C
  C28      1.0000 0.25110  0.89440  0.00000  Biso   1.000  C
  C29      1.0000 0.18710  0.25570  0.50000  Biso   1.000  C
  C30      1.0000 0.74430  0.18710  0.00000  Biso   1.000  C
  C31      1.0000 0.81290  0.74430  0.50000  Biso   1.000  C
  C32      1.0000 0.25570  0.81290  0.00000  Biso   1.000  C
  C33      1.0000 0.22310  0.33180  0.50000  Biso   1.000  C
  C34      1.0000 0.66820  0.22310  0.00000  Biso   1.000  C
  C35      1.0000 0.77690  0.66820  0.50000  Biso   1.000  C
  C36      1.0000 0.33180  0.77690  0.00000  Biso   1.000  C
  C37      1.0000 0.15460  0.92190  0.50000  Biso   1.000  C
  C38      1.0000 0.07810  0.15460  0.00000  Biso   1.000  C
  C39      1.0000 0.84540  0.07810  0.50000  Biso   1.000  C
  C40      1.0000 0.92190  0.84540  0.00000  Biso   1.000  C
  C41      1.0000 0.11410  0.84780  0.50000  Biso   1.000  C
  C42      1.0000 0.15220  0.11410  0.00000  Biso   1.000  C
  C43      1.0000 0.88590  0.15220  0.50000  Biso   1.000  C
  C44      1.0000 0.84780  0.88590  0.00000  Biso   1.000  C
  C45      1.0000 0.15550  0.77910  0.50000  Biso   1.000  C
  C46      1.0000 0.22090  0.15550  0.00000  Biso   1.000  C
  C47      1.0000 0.84450  0.22090  0.50000  Biso   1.000  C
  C48      1.0000 0.77910  0.84450  0.00000  Biso   1.000  C
  C49      1.0000 0.24050  0.77750  0.50000  Biso   1.000  C
  C50      1.0000 0.22250  0.24050  0.00000  Biso   1.000  C
  C51      1.0000 0.75950  0.22250  0.50000  Biso   1.000  C
  C52      1.0000 0.77750  0.75950  0.00000  Biso   1.000  C
  C53      1.0000 0.28710  0.70740  0.50000  Biso   1.000  C
  C54      1.0000 0.29260  0.28710  0.00000  Biso   1.000  C
  C55      1.0000 0.71290  0.29260  0.50000  Biso   1.000  C
  C56      1.0000 0.70740  0.71290  0.00000  Biso   1.000  C
  C57      1.0000 0.36840  0.71150  0.50000  Biso   1.000  C
  C58      1.0000 0.28850  0.36840  0.00000  Biso   1.000  C
  C59      1.0000 0.63160  0.28850  0.50000  Biso   1.000  C
  C60      1.0000 0.71150  0.63160  0.00000  Biso   1.000  C
  C61      1.0000 0.40690  0.78530  0.50000  Biso   1.000  C
  C62      1.0000 0.21470  0.40690  0.00000  Biso   1.000  C
  C63      1.0000 0.59310  0.21470  0.50000  Biso   1.000  C
  C64      1.0000 0.78530  0.59310  0.00000  Biso   1.000  C
  C65      1.0000 0.36500  0.85650  0.50000  Biso   1.000  C
  C66      1.0000 0.14350  0.36500  0.00000  Biso   1.000  C
  C67      1.0000 0.63500  0.14350  0.50000  Biso   1.000  C
  C68      1.0000 0.85650  0.63500  0.00000  Biso   1.000  C
  C69      1.0000 0.28040  0.85140  0.50000  Biso   1.000  C
  C70      1.0000 0.14860  0.28040  0.00000  Biso   1.000  C
  C71      1.0000 0.71960  0.14860  0.50000  Biso   1.000  C
  C72      1.0000 0.85140  0.71960  0.00000  Biso   1.000  C
  H1       1.0000 0.33980  0.28550  0.50000  Biso   1.000  H
  H2       1.0000 0.71450  0.33980  0.00000  Biso   1.000  H
  H3       1.0000 0.66020  0.71450  0.50000  Biso   1.000  H
  H4       1.0000 0.28550  0.66020  0.00000  Biso   1.000  H
  H5       1.0000 0.33140  0.52840  0.50000  Biso   1.000  H
  H6       1.0000 0.47160  0.33140  0.00000  Biso   1.000  H
  H7       1.0000 0.66860  0.47160  0.50000  Biso   1.000  H
  H8       1.0000 0.52840  0.66860  0.00000  Biso   1.000  H
  H9       1.0000 0.19010  0.52600  0.50000  Biso   1.000  H
  H10      1.0000 0.47400  0.19010  0.00000  Biso   1.000  H
  H11      1.0000 0.80990  0.47400  0.50000  Biso   1.000  H
  H12      1.0000 0.52600  0.80990  0.00000  Biso   1.000  H
  H13      1.0000 0.06030  0.44190  0.50000  Biso   1.000  H
  H14      1.0000 0.55810  0.06030  0.00000  Biso   1.000  H
  H15      1.0000 0.93970  0.55810  0.50000  Biso   1.000  H
  H16      1.0000 0.44190  0.93970  0.00000  Biso   1.000  H
  H17      1.0000 0.00030  0.31860  0.50000  Biso   1.000  H
  H18      1.0000 0.68140  0.00030  0.00000  Biso   1.000  H
  H19      1.0000 0.99970  0.68140  0.50000  Biso   1.000  H
  H20      1.0000 0.31860  0.99970  0.00000  Biso   1.000  H
  H21      1.0000 0.07460  0.19700  0.50000  Biso   1.000  H
  H22      1.0000 0.80300  0.07460  0.00000  Biso   1.000  H
  H23      1.0000 0.92540  0.80300  0.50000  Biso   1.000  H
  H24      1.0000 0.19700  0.92540  0.00000  Biso   1.000  H
  H25      1.0000 0.22930  0.20950  0.50000  Biso   1.000  H
  H26      1.0000 0.79050  0.22930  0.00000  Biso   1.000  H
  H27      1.0000 0.77070  0.79050  0.50000  Biso   1.000  H
  H28      1.0000 0.20950  0.77070  0.00000  Biso   1.000  H
  H29      1.0000 0.26010  0.97890  0.50000  Biso   1.000  H
  H30      1.0000 0.02110  0.26010  0.00000  Biso   1.000  H
  H31      1.0000 0.73990  0.02110  0.50000  Biso   1.000  H
  H32      1.0000 0.97890  0.73990  0.00000  Biso   1.000  H
  H33      1.0000 0.05210  0.84600  0.50000  Biso   1.000  H
  H34      1.0000 0.15400  0.05210  0.00000  Biso   1.000  H
  H35      1.0000 0.94790  0.15400  0.50000  Biso   1.000  H
  H36      1.0000 0.84600  0.94790  0.00000  Biso   1.000  H
  H37      1.0000 0.12600  0.72450  0.50000  Biso   1.000  H
  H38      1.0000 0.27550  0.12600  0.00000  Biso   1.000  H
  H39      1.0000 0.87400  0.27550  0.50000  Biso   1.000  H
  H40      1.0000 0.72450  0.87400  0.00000  Biso   1.000  H
  H41      1.0000 0.26010  0.65530  0.50000  Biso   1.000  H
  H42      1.0000 0.34470  0.26010  0.00000  Biso   1.000  H
  H43      1.0000 0.73990  0.34470  0.50000  Biso   1.000  H
  H44      1.0000 0.65530  0.73990  0.00000  Biso   1.000  H
  H45      1.0000 0.39840  0.65880  0.50000  Biso   1.000  H
  H46      1.0000 0.34120  0.39840  0.00000  Biso   1.000  H
  H47      1.0000 0.60160  0.34120  0.50000  Biso   1.000  H
  H48      1.0000 0.65880  0.60160  0.00000  Biso   1.000  H
  H49      1.0000 0.46480  0.78650  0.50000  Biso   1.000  H
  H50      1.0000 0.21350  0.46480  0.00000  Biso   1.000  H
  H51      1.0000 0.53520  0.21350  0.50000  Biso   1.000  H
  H52      1.0000 0.78650  0.53520  0.00000  Biso   1.000  H
  H53      1.0000 0.39040  0.91690  0.50000  Biso   1.000  H
  H54      1.0000 0.08310  0.39040  0.00000  Biso   1.000  H
  H55      1.0000 0.60960  0.08310  0.50000  Biso   1.000  H
  H56      1.0000 0.91690  0.60960  0.00000  Biso   1.000  H
