data_image0
_cell_length_a       16.713
_cell_length_b       16.713
_cell_length_c       6.412
_cell_angle_alpha    90
_cell_angle_beta     90
_cell_angle_gamma    90

_symmetry_space_group_name_H-M    "P 1"
_symmetry_int_tables_number       1

loop_
  _symmetry_equiv_pos_as_xyz
  'x, y, z'

loop_
  _atom_site_label
  _atom_site_occupancy
  _atom_site_fract_x
  _atom_site_fract_y
  _atom_site_fract_z
  _atom_site_thermal_displace_type
  _atom_site_B_iso_or_equiv
  _atom_site_type_symbol
  Cu1      1.0000 0.50000  0.50000  0.25000  Biso   1.000  Cu
  Cu2      1.0000 0.50000  0.50000  0.75000  Biso   1.000  Cu
  Cu3      1.0000 0.00000  0.00000  0.25000  Biso   1.000  Cu
  Cu4      1.0000 0.00000  0.00000  0.75000  Biso   1.000  Cu
  S1       1.0000 0.45230  0.40420  0.50000  Biso   1.000  S
  S2       1.0000 0.59580  0.45230  0.00000  Biso   1.000  S
  S3       1.0000 0.54770  0.59580  0.50000  Biso   1.000  S
  S4       1.0000 0.40420  0.54770  0.00000  Biso   1.000  S
  S5       1.0000 0.10620  0.01000  0.50000  Biso   1.000  S
  S6       1.0000 0.99000  0.10620  0.00000  Biso   1.000  S
  S7       1.0000 0.89380  0.99000  0.50000  Biso   1.000  S
  S8       1.0000 0.01000  0.89380  0.00000  Biso   1.000  S
  P1       1.0000 0.38890  0.10340  0.50000  Biso   1.000  P
  P2       1.0000 0.89660  0.38890  0.00000  Biso   1.000  P
  P3       1.0000 0.61110  0.89660  0.50000  Biso   1.000  P
  P4       1.0000 0.10340  0.61110  0.00000  Biso   1.000  P
  F1       1.0000 0.44320  0.07470  0.33100  Biso   1.000  F
  F2       1.0000 0.92530  0.44320  0.83100  Biso   1.000  F
  F3       1.0000 0.55680  0.92530  0.33100  Biso   1.000  F
  F4       1.0000 0.07470  0.55680  0.83100  Biso   1.000  F
  F5       1.0000 0.55680  0.92530  0.66900  Biso   1.000  F
  F6       1.0000 0.07470  0.55680  0.16900  Biso   1.000  F
  F7       1.0000 0.44320  0.07470  0.66900  Biso   1.000  F
  F8       1.0000 0.92530  0.44320  0.16900  Biso   1.000  F
  O1       1.0000 0.32000  0.05430  0.50000  Biso   1.000  O
  O2       1.0000 0.94570  0.32000  0.00000  Biso   1.000  O
  O3       1.0000 0.68000  0.94570  0.50000  Biso   1.000  O
  O4       1.0000 0.05430  0.68000  0.00000  Biso   1.000  O
  O5       1.0000 0.38770  0.18680  0.50000  Biso   1.000  O
  O6       1.0000 0.81320  0.38770  0.00000  Biso   1.000  O
  O7       1.0000 0.61230  0.81320  0.50000  Biso   1.000  O
  O8       1.0000 0.18680  0.61230  0.00000  Biso   1.000  O
  N1       1.0000 0.31220  0.33290  0.50000  Biso   1.000  N
  N2       1.0000 0.66710  0.31220  0.00000  Biso   1.000  N
  N3       1.0000 0.68780  0.66710  0.50000  Biso   1.000  N
  N4       1.0000 0.33290  0.68780  0.00000  Biso   1.000  N
  N5       1.0000 0.23320  0.91470  0.50000  Biso   1.000  N
  N6       1.0000 0.08530  0.23320  0.00000  Biso   1.000  N
  N7       1.0000 0.76680  0.08530  0.50000  Biso   1.000  N
  N8       1.0000 0.91470  0.76680  0.00000  Biso   1.000  N
  C1       1.0000 0.35090  0.40320  0.50000  Biso   1.000  C
  C2       1.0000 0.59680  0.35090  0.00000  Biso   1.000  C
  C3       1.0000 0.64910  0.59680  0.50000  Biso   1.000  C
  C4       1.0000 0.40320  0.64910  0.00000  Biso   1.000  C
  C5       1.0000 0.30120  0.47170  0.50000  Biso   1.000  C
  C6       1.0000 0.52830  0.30120  0.00000  Biso   1.000  C
  C7       1.0000 0.69880  0.52830  0.50000  Biso   1.000  C
  C8       1.0000 0.47170  0.69880  0.00000  Biso   1.000  C
  C9       1.0000 0.22250  0.46710  0.50000  Biso   1.000  C
  C10      1.0000 0.53290  0.22250  0.00000  Biso   1.000  C
  C11      1.0000 0.77750  0.53290  0.50000  Biso   1.000  C
  C12      1.0000 0.46710  0.77750  0.00000  Biso   1.000  C
  C13      1.0000 0.18330  0.39200  0.50000  Biso   1.000  C
  C14      1.0000 0.60800  0.18330  0.00000  Biso   1.000  C
  C15      1.0000 0.81670  0.60800  0.50000  Biso   1.000  C
  C16      1.0000 0.39200  0.81670  0.00000  Biso   1.000  C
  C17      1.0000 0.09900  0.38300  0.50000  Biso   1.000  C
  C18      1.0000 0.61700  0.09900  0.00000  Biso   1.000  C
  C19      1.0000 0.90100  0.61700  0.50000  Biso   1.000  C
  C20      1.0000 0.38300  0.90100  0.00000  Biso   1.000  C
  C21      1.0000 0.06640  0.30700  0.50000  Biso   1.000  C
  C22      1.0000 0.69300  0.06640  0.00000  Biso   1.000  C
  C23      1.0000 0.93360  0.69300  0.50000  Biso   1.000  C
  C24      1.0000 0.30700  0.93360  0.00000  Biso   1.000  C
  C25      1.0000 0.11700  0.23900  0.50000  Biso   1.000  C
  C26      1.0000 0.76100  0.11700  0.00000  Biso   1.000  C
  C27      1.0000 0.88300  0.76100  0.50000  Biso   1.000  C
  C28      1.0000 0.23900  0.88300  0.00000  Biso   1.000  C
  C29      1.0000 0.19800  0.24600  0.50000  Biso   1.000  C
  C30      1.0000 0.75400  0.19800  0.00000  Biso   1.000  C
  C31      1.0000 0.80200  0.75400  0.50000  Biso   1.000  C
  C32      1.0000 0.24600  0.80200  0.00000  Biso   1.000  C
  C33      1.0000 0.23000  0.32190  0.50000  Biso   1.000  C
  C34      1.0000 0.67810  0.23000  0.00000  Biso   1.000  C
  C35      1.0000 0.77000  0.67810  0.50000  Biso   1.000  C
  C36      1.0000 0.32190  0.77000  0.00000  Biso   1.000  C
  C37      1.0000 0.15300  0.91670  0.50000  Biso   1.000  C
  C38      1.0000 0.08330  0.15300  0.00000  Biso   1.000  C
  C39      1.0000 0.84700  0.08330  0.50000  Biso   1.000  C
  C40      1.0000 0.91670  0.84700  0.00000  Biso   1.000  C
  C41      1.0000 0.11200  0.84400  0.50000  Biso   1.000  C
  C42      1.0000 0.15600  0.11200  0.00000  Biso   1.000  C
  C43      1.0000 0.88800  0.15600  0.50000  Biso   1.000  C
  C44      1.0000 0.84400  0.88800  0.00000  Biso   1.000  C
  C45      1.0000 0.15200  0.77600  0.50000  Biso   1.000  C
  C46      1.0000 0.22400  0.15200  0.00000  Biso   1.000  C
  C47      1.0000 0.84800  0.22400  0.50000  Biso   1.000  C
  C48      1.0000 0.77600  0.84800  0.00000  Biso   1.000  C
  C49      1.0000 0.23600  0.77200  0.50000  Biso   1.000  C
  C50      1.0000 0.22800  0.23600  0.00000  Biso   1.000  C
  C51      1.0000 0.76400  0.22800  0.50000  Biso   1.000  C
  C52      1.0000 0.77200  0.76400  0.00000  Biso   1.000  C
  C53      1.0000 0.28000  0.70200  0.50000  Biso   1.000  C
  C54      1.0000 0.29800  0.28000  0.00000  Biso   1.000  C
  C55      1.0000 0.72000  0.29800  0.50000  Biso   1.000  C
  C56      1.0000 0.70200  0.72000  0.00000  Biso   1.000  C
  C57      1.0000 0.36200  0.70500  0.50000  Biso   1.000  C
  C58      1.0000 0.29500  0.36200  0.00000  Biso   1.000  C
  C59      1.0000 0.63800  0.29500  0.50000  Biso   1.000  C
  C60      1.0000 0.70500  0.63800  0.00000  Biso   1.000  C
  C61      1.0000 0.40290  0.77700  0.50000  Biso   1.000  C
  C62      1.0000 0.22300  0.40290  0.00000  Biso   1.000  C
  C63      1.0000 0.59710  0.22300  0.50000  Biso   1.000  C
  C64      1.0000 0.77700  0.59710  0.00000  Biso   1.000  C
  C65      1.0000 0.35820  0.84700  0.50000  Biso   1.000  C
  C66      1.0000 0.15300  0.35820  0.00000  Biso   1.000  C
  C67      1.0000 0.64180  0.15300  0.50000  Biso   1.000  C
  C68      1.0000 0.84700  0.64180  0.00000  Biso   1.000  C
  C69      1.0000 0.27620  0.84400  0.50000  Biso   1.000  C
  C70      1.0000 0.15600  0.27620  0.00000  Biso   1.000  C
  C71      1.0000 0.72380  0.15600  0.50000  Biso   1.000  C
  C72      1.0000 0.84400  0.72380  0.00000  Biso   1.000  C
  H1       1.0000 0.34410  0.28500  0.50000  Biso   1.000  H
  H2       1.0000 0.71500  0.34410  0.00000  Biso   1.000  H
  H3       1.0000 0.65590  0.71500  0.50000  Biso   1.000  H
  H4       1.0000 0.28500  0.65590  0.00000  Biso   1.000  H
  H5       1.0000 0.32620  0.52480  0.50000  Biso   1.000  H
  H6       1.0000 0.47520  0.32620  0.00000  Biso   1.000  H
  H7       1.0000 0.67380  0.47520  0.50000  Biso   1.000  H
  H8       1.0000 0.52480  0.67380  0.00000  Biso   1.000  H
  H9       1.0000 0.19040  0.51530  0.50000  Biso   1.000  H
  H10      1.0000 0.48470  0.19040  0.00000  Biso   1.000  H
  H11      1.0000 0.80960  0.48470  0.50000  Biso   1.000  H
  H12      1.0000 0.51530  0.80960  0.00000  Biso   1.000  H
  H13      1.0000 0.06450  0.43050  0.50000  Biso   1.000  H
  H14      1.0000 0.56950  0.06450  0.00000  Biso   1.000  H
  H15      1.0000 0.93550  0.56950  0.50000  Biso   1.000  H
  H16      1.0000 0.43050  0.93550  0.00000  Biso   1.000  H
  H17      1.0000 0.00780  0.30050  0.50000  Biso   1.000  H
  H18      1.0000 0.69950  0.00780  0.00000  Biso   1.000  H
  H19      1.0000 0.99220  0.69950  0.50000  Biso   1.000  H
  H20      1.0000 0.30050  0.99220  0.00000  Biso   1.000  H
  H21      1.0000 0.09330  0.18570  0.50000  Biso   1.000  H
  H22      1.0000 0.81430  0.09330  0.00000  Biso   1.000  H
  H23      1.0000 0.90670  0.81430  0.50000  Biso   1.000  H
  H24      1.0000 0.18570  0.90670  0.00000  Biso   1.000  H
  H25      1.0000 0.23290  0.19880  0.50000  Biso   1.000  H
  H26      1.0000 0.80120  0.23290  0.00000  Biso   1.000  H
  H27      1.0000 0.76710  0.80120  0.50000  Biso   1.000  H
  H28      1.0000 0.19880  0.76710  0.00000  Biso   1.000  H
  H29      1.0000 0.26240  0.96510  0.50000  Biso   1.000  H
  H30      1.0000 0.03490  0.26240  0.00000  Biso   1.000  H
  H31      1.0000 0.73760  0.03490  0.50000  Biso   1.000  H
  H32      1.0000 0.96510  0.73760  0.00000  Biso   1.000  H
  H33      1.0000 0.05390  0.84510  0.50000  Biso   1.000  H
  H34      1.0000 0.15490  0.05390  0.00000  Biso   1.000  H
  H35      1.0000 0.94610  0.15490  0.50000  Biso   1.000  H
  H36      1.0000 0.84510  0.94610  0.00000  Biso   1.000  H
  H37      1.0000 0.12190  0.72530  0.50000  Biso   1.000  H
  H38      1.0000 0.27470  0.12190  0.00000  Biso   1.000  H
  H39      1.0000 0.87810  0.27470  0.50000  Biso   1.000  H
  H40      1.0000 0.72530  0.87810  0.00000  Biso   1.000  H
  H41      1.0000 0.25220  0.64990  0.50000  Biso   1.000  H
  H42      1.0000 0.35010  0.25220  0.00000  Biso   1.000  H
  H43      1.0000 0.74780  0.35010  0.50000  Biso   1.000  H
  H44      1.0000 0.64990  0.74780  0.00000  Biso   1.000  H
  H45      1.0000 0.39330  0.65540  0.50000  Biso   1.000  H
  H46      1.0000 0.34460  0.39330  0.00000  Biso   1.000  H
  H47      1.0000 0.60670  0.34460  0.50000  Biso   1.000  H
  H48      1.0000 0.65540  0.60670  0.00000  Biso   1.000  H
  H49      1.0000 0.46090  0.77830  0.50000  Biso   1.000  H
  H50      1.0000 0.22170  0.46090  0.00000  Biso   1.000  H
  H51      1.0000 0.53910  0.22170  0.50000  Biso   1.000  H
  H52      1.0000 0.77830  0.53910  0.00000  Biso   1.000  H
  H53      1.0000 0.38570  0.89940  0.50000  Biso   1.000  H
  H54      1.0000 0.10060  0.38570  0.00000  Biso   1.000  H
  H55      1.0000 0.61430  0.10060  0.50000  Biso   1.000  H
  H56      1.0000 0.89940  0.61430  0.00000  Biso   1.000  H
