data_image0
_cell_length_a       19.568
_cell_length_b       11.4672
_cell_length_c       13.5953
_cell_angle_alpha    90
_cell_angle_beta     126.689
_cell_angle_gamma    90

_symmetry_space_group_name_H-M    "P 1"
_symmetry_int_tables_number       1

loop_
  _symmetry_equiv_pos_as_xyz
  'x, y, z'

loop_
  _atom_site_label
  _atom_site_occupancy
  _atom_site_fract_x
  _atom_site_fract_y
  _atom_site_fract_z
  _atom_site_thermal_displace_type
  _atom_site_B_iso_or_equiv
  _atom_site_type_symbol
  Cu1      1.0000 0.11606  0.61032  0.39678  Biso   1.000  Cu
  Cu2      1.0000 0.61606  0.11032  0.39678  Biso   1.000  Cu
  Cu3      1.0000 0.88394  0.61032  0.10322  Biso   1.000  Cu
  Cu4      1.0000 0.38394  0.11032  0.10322  Biso   1.000  Cu
  Cu5      1.0000 0.88394  0.38968  0.60322  Biso   1.000  Cu
  Cu6      1.0000 0.38394  0.88968  0.60322  Biso   1.000  Cu
  Cu7      1.0000 0.11606  0.38968  0.89678  Biso   1.000  Cu
  Cu8      1.0000 0.61606  0.88968  0.89678  Biso   1.000  Cu
  Cu9      1.0000 0.11104  0.11056  0.38875  Biso   1.000  Cu
  Cu10     1.0000 0.61104  0.61056  0.38875  Biso   1.000  Cu
  Cu11     1.0000 0.88896  0.11056  0.11125  Biso   1.000  Cu
  Cu12     1.0000 0.38896  0.61056  0.11125  Biso   1.000  Cu
  Cu13     1.0000 0.88896  0.88944  0.61125  Biso   1.000  Cu
  Cu14     1.0000 0.38896  0.38944  0.61125  Biso   1.000  Cu
  Cu15     1.0000 0.11104  0.88944  0.88875  Biso   1.000  Cu
  Cu16     1.0000 0.61104  0.38944  0.88875  Biso   1.000  Cu
  N1       1.0000 0.13130  0.76241  0.36890  Biso   1.000  N
  N2       1.0000 0.63130  0.26241  0.36890  Biso   1.000  N
  N3       1.0000 0.86870  0.76241  0.13110  Biso   1.000  N
  N4       1.0000 0.36870  0.26241  0.13110  Biso   1.000  N
  N5       1.0000 0.86870  0.23759  0.63110  Biso   1.000  N
  N6       1.0000 0.36870  0.73759  0.63110  Biso   1.000  N
  N7       1.0000 0.13130  0.23759  0.86890  Biso   1.000  N
  N8       1.0000 0.63130  0.73759  0.86890  Biso   1.000  N
  N9       1.0000 0.13010  0.95663  0.36760  Biso   1.000  N
  N10      1.0000 0.63010  0.45663  0.36760  Biso   1.000  N
  N11      1.0000 0.86990  0.95663  0.13240  Biso   1.000  N
  N12      1.0000 0.36990  0.45663  0.13240  Biso   1.000  N
  N13      1.0000 0.86990  0.04337  0.63240  Biso   1.000  N
  N14      1.0000 0.36990  0.54337  0.63240  Biso   1.000  N
  N15      1.0000 0.13010  0.04337  0.86760  Biso   1.000  N
  N16      1.0000 0.63010  0.54337  0.86760  Biso   1.000  N
  N17      1.0000 0.10175  0.26237  0.42404  Biso   1.000  N
  N18      1.0000 0.60175  0.76237  0.42404  Biso   1.000  N
  N19      1.0000 0.89825  0.26237  0.07596  Biso   1.000  N
  N20      1.0000 0.39825  0.76237  0.07596  Biso   1.000  N
  N21      1.0000 0.89825  0.73763  0.57596  Biso   1.000  N
  N22      1.0000 0.39825  0.23763  0.57596  Biso   1.000  N
  N23      1.0000 0.10175  0.73763  0.92404  Biso   1.000  N
  N24      1.0000 0.60175  0.23763  0.92404  Biso   1.000  N
  N25      1.0000 0.10437  0.45657  0.42972  Biso   1.000  N
  N26      1.0000 0.60437  0.95657  0.42972  Biso   1.000  N
  N27      1.0000 0.89563  0.45657  0.07028  Biso   1.000  N
  N28      1.0000 0.39563  0.95657  0.07028  Biso   1.000  N
  N29      1.0000 0.89563  0.54343  0.57028  Biso   1.000  N
  N30      1.0000 0.39563  0.04343  0.57028  Biso   1.000  N
  N31      1.0000 0.10437  0.54343  0.92972  Biso   1.000  N
  N32      1.0000 0.60437  0.04343  0.92972  Biso   1.000  N
  C1       1.0000 0.10225  0.85937  0.38737  Biso   1.000  C
  C2       1.0000 0.60225  0.35937  0.38737  Biso   1.000  C
  C3       1.0000 0.89775  0.85937  0.11263  Biso   1.000  C
  C4       1.0000 0.39775  0.35937  0.11263  Biso   1.000  C
  C5       1.0000 0.89775  0.14063  0.61263  Biso   1.000  C
  C6       1.0000 0.39775  0.64063  0.61263  Biso   1.000  C
  C7       1.0000 0.10225  0.14063  0.88737  Biso   1.000  C
  C8       1.0000 0.60225  0.64063  0.88737  Biso   1.000  C
  C9       1.0000 0.18149  0.80132  0.33467  Biso   1.000  C
  C10      1.0000 0.68149  0.30132  0.33467  Biso   1.000  C
  C11      1.0000 0.81851  0.80132  0.16533  Biso   1.000  C
  C12      1.0000 0.31851  0.30132  0.16533  Biso   1.000  C
  C13      1.0000 0.81851  0.19868  0.66533  Biso   1.000  C
  C14      1.0000 0.31851  0.69868  0.66533  Biso   1.000  C
  C15      1.0000 0.18149  0.19868  0.83467  Biso   1.000  C
  C16      1.0000 0.68149  0.69868  0.83467  Biso   1.000  C
  H1       1.0000 0.21120  0.75310  0.31490  Biso   1.000  H
  H2       1.0000 0.71120  0.25310  0.31490  Biso   1.000  H
  H3       1.0000 0.78880  0.75310  0.18510  Biso   1.000  H
  H4       1.0000 0.28880  0.25310  0.18510  Biso   1.000  H
  H5       1.0000 0.78880  0.24690  0.68510  Biso   1.000  H
  H6       1.0000 0.28880  0.74690  0.68510  Biso   1.000  H
  H7       1.0000 0.21120  0.24690  0.81490  Biso   1.000  H
  H8       1.0000 0.71120  0.74690  0.81490  Biso   1.000  H
  C17      1.0000 0.18102  0.91967  0.33418  Biso   1.000  C
  C18      1.0000 0.68102  0.41967  0.33418  Biso   1.000  C
  C19      1.0000 0.81898  0.91967  0.16582  Biso   1.000  C
  C20      1.0000 0.31898  0.41967  0.16582  Biso   1.000  C
  C21      1.0000 0.81898  0.08033  0.66582  Biso   1.000  C
  C22      1.0000 0.31898  0.58033  0.66582  Biso   1.000  C
  C23      1.0000 0.18102  0.08033  0.83418  Biso   1.000  C
  C24      1.0000 0.68102  0.58033  0.83418  Biso   1.000  C
  H9       1.0000 0.21040  0.96860  0.31440  Biso   1.000  H
  H10      1.0000 0.71040  0.46860  0.31440  Biso   1.000  H
  H11      1.0000 0.78960  0.96860  0.18560  Biso   1.000  H
  H12      1.0000 0.28960  0.46860  0.18560  Biso   1.000  H
  H13      1.0000 0.78960  0.03140  0.68560  Biso   1.000  H
  H14      1.0000 0.28960  0.53140  0.68560  Biso   1.000  H
  H15      1.0000 0.21040  0.03140  0.81440  Biso   1.000  H
  H16      1.0000 0.71040  0.53140  0.81440  Biso   1.000  H
  C25      1.0000 0.04732  0.85757  0.42960  Biso   1.000  C
  C26      1.0000 0.54732  0.35757  0.42960  Biso   1.000  C
  C27      1.0000 0.95268  0.85757  0.07040  Biso   1.000  C
  C28      1.0000 0.45268  0.35757  0.07040  Biso   1.000  C
  C29      1.0000 0.95268  0.14243  0.57040  Biso   1.000  C
  C30      1.0000 0.45268  0.64243  0.57040  Biso   1.000  C
  C31      1.0000 0.04732  0.14243  0.92960  Biso   1.000  C
  C32      1.0000 0.54732  0.64243  0.92960  Biso   1.000  C
  H17      1.0000 0.02640  0.77710  0.42230  Biso   1.000  H
  H18      1.0000 0.52640  0.27710  0.42230  Biso   1.000  H
  H19      1.0000 0.97360  0.77710  0.07770  Biso   1.000  H
  H20      1.0000 0.47360  0.27710  0.07770  Biso   1.000  H
  H21      1.0000 0.97360  0.22290  0.57770  Biso   1.000  H
  H22      1.0000 0.47360  0.72290  0.57770  Biso   1.000  H
  H23      1.0000 0.02640  0.22290  0.92230  Biso   1.000  H
  H24      1.0000 0.52640  0.72290  0.92230  Biso   1.000  H
  H25      1.0000 0.99710  0.90810  0.37500  Biso   1.000  H
  H26      1.0000 0.49710  0.40810  0.37500  Biso   1.000  H
  H27      1.0000 0.00290  0.90810  0.12500  Biso   1.000  H
  H28      1.0000 0.50290  0.40810  0.12500  Biso   1.000  H
  H29      1.0000 0.00290  0.09190  0.62500  Biso   1.000  H
  H30      1.0000 0.50290  0.59190  0.62500  Biso   1.000  H
  H31      1.0000 0.99710  0.09190  0.87500  Biso   1.000  H
  H32      1.0000 0.49710  0.59190  0.87500  Biso   1.000  H
  C33      1.0000 0.09307  0.89860  0.56130  Biso   1.000  C
  C34      1.0000 0.59307  0.39860  0.56130  Biso   1.000  C
  C35      1.0000 0.90693  0.89860  0.93870  Biso   1.000  C
  C36      1.0000 0.40693  0.39860  0.93870  Biso   1.000  C
  C37      1.0000 0.90693  0.10140  0.43870  Biso   1.000  C
  C38      1.0000 0.40693  0.60140  0.43870  Biso   1.000  C
  C39      1.0000 0.09307  0.10140  0.06130  Biso   1.000  C
  C40      1.0000 0.59307  0.60140  0.06130  Biso   1.000  C
  H33      1.0000 0.05380  0.89530  0.58360  Biso   1.000  H
  H34      1.0000 0.55380  0.39530  0.58360  Biso   1.000  H
  H35      1.0000 0.94620  0.89530  0.91640  Biso   1.000  H
  H36      1.0000 0.44620  0.39530  0.91640  Biso   1.000  H
  H37      1.0000 0.94620  0.10470  0.41640  Biso   1.000  H
  H38      1.0000 0.44620  0.60470  0.41640  Biso   1.000  H
  H39      1.0000 0.05380  0.10470  0.08360  Biso   1.000  H
  H40      1.0000 0.55380  0.60470  0.08360  Biso   1.000  H
  H41      1.0000 0.11270  0.97900  0.56900  Biso   1.000  H
  H42      1.0000 0.61270  0.47900  0.56900  Biso   1.000  H
  H43      1.0000 0.88730  0.97900  0.93100  Biso   1.000  H
  H44      1.0000 0.38730  0.47900  0.93100  Biso   1.000  H
  H45      1.0000 0.88730  0.02100  0.43100  Biso   1.000  H
  H46      1.0000 0.38730  0.52100  0.43100  Biso   1.000  H
  H47      1.0000 0.11270  0.02100  0.06900  Biso   1.000  H
  H48      1.0000 0.61270  0.52100  0.06900  Biso   1.000  H
  H49      1.0000 0.14210  0.84790  0.61630  Biso   1.000  H
  H50      1.0000 0.64210  0.34790  0.61630  Biso   1.000  H
  H51      1.0000 0.85790  0.84790  0.88370  Biso   1.000  H
  H52      1.0000 0.35790  0.34790  0.88370  Biso   1.000  H
  H53      1.0000 0.85790  0.15210  0.38370  Biso   1.000  H
  H54      1.0000 0.35790  0.65210  0.38370  Biso   1.000  H
  H55      1.0000 0.14210  0.15210  0.11630  Biso   1.000  H
  H56      1.0000 0.64210  0.65210  0.11630  Biso   1.000  H
  C41      1.0000 0.10383  0.36109  0.37230  Biso   1.000  C
  C42      1.0000 0.60383  0.86109  0.37230  Biso   1.000  C
  C43      1.0000 0.89617  0.36109  0.12770  Biso   1.000  C
  C44      1.0000 0.39617  0.86109  0.12770  Biso   1.000  C
  C45      1.0000 0.89617  0.63891  0.62770  Biso   1.000  C
  C46      1.0000 0.39617  0.13891  0.62770  Biso   1.000  C
  C47      1.0000 0.10383  0.63891  0.87230  Biso   1.000  C
  C48      1.0000 0.60383  0.13891  0.87230  Biso   1.000  C
  C49      1.0000 0.10059  0.29890  0.52011  Biso   1.000  C
  C50      1.0000 0.60059  0.79890  0.52011  Biso   1.000  C
  C51      1.0000 0.89941  0.29890  0.97989  Biso   1.000  C
  C52      1.0000 0.39941  0.79890  0.97989  Biso   1.000  C
  C53      1.0000 0.89941  0.70110  0.47989  Biso   1.000  C
  C54      1.0000 0.39941  0.20110  0.47989  Biso   1.000  C
  C55      1.0000 0.10059  0.70110  0.02011  Biso   1.000  C
  C56      1.0000 0.60059  0.20110  0.02011  Biso   1.000  C
  H57      1.0000 0.09890  0.24930  0.57460  Biso   1.000  H
  H58      1.0000 0.59890  0.74930  0.57460  Biso   1.000  H
  H59      1.0000 0.90110  0.24930  0.92540  Biso   1.000  H
  H60      1.0000 0.40110  0.74930  0.92540  Biso   1.000  H
  H61      1.0000 0.90110  0.75070  0.42540  Biso   1.000  H
  H62      1.0000 0.40110  0.25070  0.42540  Biso   1.000  H
  H63      1.0000 0.09890  0.75070  0.07460  Biso   1.000  H
  H64      1.0000 0.59890  0.25070  0.07460  Biso   1.000  H
  C57      1.0000 0.10224  0.41606  0.52376  Biso   1.000  C
  C58      1.0000 0.60224  0.91606  0.52376  Biso   1.000  C
  C59      1.0000 0.89776  0.41606  0.97624  Biso   1.000  C
  C60      1.0000 0.39776  0.91606  0.97624  Biso   1.000  C
  C61      1.0000 0.89776  0.58394  0.47624  Biso   1.000  C
  C62      1.0000 0.39776  0.08394  0.47624  Biso   1.000  C
  C63      1.0000 0.10224  0.58394  0.02376  Biso   1.000  C
  C64      1.0000 0.60224  0.08394  0.02376  Biso   1.000  C
  H65      1.0000 0.10200  0.46300  0.58110  Biso   1.000  H
  H66      1.0000 0.60200  0.96300  0.58110  Biso   1.000  H
  H67      1.0000 0.89800  0.46300  0.91890  Biso   1.000  H
  H68      1.0000 0.39800  0.96300  0.91890  Biso   1.000  H
  H69      1.0000 0.89800  0.53700  0.41890  Biso   1.000  H
  H70      1.0000 0.39800  0.03700  0.41890  Biso   1.000  H
  H71      1.0000 0.10200  0.53700  0.08110  Biso   1.000  H
  H72      1.0000 0.60200  0.03700  0.08110  Biso   1.000  H
  C65      1.0000 0.10709  0.36357  0.26572  Biso   1.000  C
  C66      1.0000 0.60709  0.86357  0.26572  Biso   1.000  C
  C67      1.0000 0.89291  0.36357  0.23428  Biso   1.000  C
  C68      1.0000 0.39291  0.86357  0.23428  Biso   1.000  C
  C69      1.0000 0.89291  0.63643  0.73428  Biso   1.000  C
  C70      1.0000 0.39291  0.13643  0.73428  Biso   1.000  C
  C71      1.0000 0.10709  0.63643  0.76572  Biso   1.000  C
  C72      1.0000 0.60709  0.13643  0.76572  Biso   1.000  C
  H73      1.0000 0.07610  0.43330  0.21540  Biso   1.000  H
  H74      1.0000 0.57610  0.93330  0.21540  Biso   1.000  H
  H75      1.0000 0.92390  0.43330  0.28460  Biso   1.000  H
  H76      1.0000 0.42390  0.93330  0.28460  Biso   1.000  H
  H77      1.0000 0.92390  0.56670  0.78460  Biso   1.000  H
  H78      1.0000 0.42390  0.06670  0.78460  Biso   1.000  H
  H79      1.0000 0.07610  0.56670  0.71540  Biso   1.000  H
  H80      1.0000 0.57610  0.06670  0.71540  Biso   1.000  H
  H81      1.0000 0.07730  0.29390  0.21420  Biso   1.000  H
  H82      1.0000 0.57730  0.79390  0.21420  Biso   1.000  H
  H83      1.0000 0.92270  0.29390  0.28580  Biso   1.000  H
  H84      1.0000 0.42270  0.79390  0.28580  Biso   1.000  H
  H85      1.0000 0.92270  0.70610  0.78580  Biso   1.000  H
  H86      1.0000 0.42270  0.20610  0.78580  Biso   1.000  H
  H87      1.0000 0.07730  0.70610  0.71420  Biso   1.000  H
  H88      1.0000 0.57730  0.20610  0.71420  Biso   1.000  H
  C73      1.0000 0.19710  0.36590  0.30230  Biso   1.000  C
  C74      1.0000 0.69710  0.86590  0.30230  Biso   1.000  C
  C75      1.0000 0.80290  0.36590  0.19770  Biso   1.000  C
  C76      1.0000 0.30290  0.86590  0.19770  Biso   1.000  C
  C77      1.0000 0.80290  0.63410  0.69770  Biso   1.000  C
  C78      1.0000 0.30290  0.13410  0.69770  Biso   1.000  C
  C79      1.0000 0.19710  0.63410  0.80230  Biso   1.000  C
  C80      1.0000 0.69710  0.13410  0.80230  Biso   1.000  C
  H89      1.0000 0.19500  0.36750  0.22850  Biso   1.000  H
  H90      1.0000 0.69500  0.86750  0.22850  Biso   1.000  H
  H91      1.0000 0.80500  0.36750  0.27150  Biso   1.000  H
  H92      1.0000 0.30500  0.86750  0.27150  Biso   1.000  H
  H93      1.0000 0.80500  0.63250  0.77150  Biso   1.000  H
  H94      1.0000 0.30500  0.13250  0.77150  Biso   1.000  H
  H95      1.0000 0.19500  0.63250  0.72850  Biso   1.000  H
  H96      1.0000 0.69500  0.13250  0.72850  Biso   1.000  H
  H97      1.0000 0.22780  0.29620  0.35050  Biso   1.000  H
  H98      1.0000 0.72780  0.79620  0.35050  Biso   1.000  H
  H99      1.0000 0.77220  0.29620  0.14950  Biso   1.000  H
  H100     1.0000 0.27220  0.79620  0.14950  Biso   1.000  H
  H101     1.0000 0.77220  0.70380  0.64950  Biso   1.000  H
  H102     1.0000 0.27220  0.20380  0.64950  Biso   1.000  H
  H103     1.0000 0.22780  0.70380  0.85050  Biso   1.000  H
  H104     1.0000 0.72780  0.20380  0.85050  Biso   1.000  H
  H105     1.0000 0.22660  0.43570  0.35170  Biso   1.000  H
  H106     1.0000 0.72660  0.93570  0.35170  Biso   1.000  H
  H107     1.0000 0.77340  0.43570  0.14830  Biso   1.000  H
  H108     1.0000 0.27340  0.93570  0.14830  Biso   1.000  H
  H109     1.0000 0.77340  0.56430  0.64830  Biso   1.000  H
  H110     1.0000 0.27340  0.06430  0.64830  Biso   1.000  H
  H111     1.0000 0.22660  0.56430  0.85170  Biso   1.000  H
  H112     1.0000 0.72660  0.06430  0.85170  Biso   1.000  H
