data_image0
_cell_length_a       26.6065
_cell_length_b       11.0944
_cell_length_c       17.0945
_cell_angle_alpha    90
_cell_angle_beta     106.961
_cell_angle_gamma    90

_symmetry_space_group_name_H-M    "P 1"
_symmetry_int_tables_number       1

loop_
  _symmetry_equiv_pos_as_xyz
  'x, y, z'

loop_
  _atom_site_label
  _atom_site_occupancy
  _atom_site_fract_x
  _atom_site_fract_y
  _atom_site_fract_z
  _atom_site_thermal_displace_type
  _atom_site_B_iso_or_equiv
  _atom_site_type_symbol
  Cu1      1.0000 0.44434  0.44053  0.22663  Biso   1.000  Cu
  Cu2      1.0000 0.94434  0.94053  0.22663  Biso   1.000  Cu
  Cu3      1.0000 0.55566  0.44053  0.27337  Biso   1.000  Cu
  Cu4      1.0000 0.05566  0.94053  0.27337  Biso   1.000  Cu
  Cu5      1.0000 0.55566  0.55947  0.77337  Biso   1.000  Cu
  Cu6      1.0000 0.05566  0.05947  0.77337  Biso   1.000  Cu
  Cu7      1.0000 0.44434  0.55947  0.72663  Biso   1.000  Cu
  Cu8      1.0000 0.94434  0.05947  0.72663  Biso   1.000  Cu
  Cu9      1.0000 0.42141  0.89425  0.05653  Biso   1.000  Cu
  Cu10     1.0000 0.92141  0.39425  0.05653  Biso   1.000  Cu
  Cu11     1.0000 0.57859  0.89425  0.44347  Biso   1.000  Cu
  Cu12     1.0000 0.07859  0.39425  0.44347  Biso   1.000  Cu
  Cu13     1.0000 0.57859  0.10575  0.94347  Biso   1.000  Cu
  Cu14     1.0000 0.07859  0.60575  0.94347  Biso   1.000  Cu
  Cu15     1.0000 0.42141  0.10575  0.55653  Biso   1.000  Cu
  Cu16     1.0000 0.92141  0.60575  0.55653  Biso   1.000  Cu
  Cu17     1.0000 0.34073  0.36539  0.07603  Biso   1.000  Cu
  Cu18     1.0000 0.84073  0.86539  0.07603  Biso   1.000  Cu
  Cu19     1.0000 0.65927  0.36539  0.42397  Biso   1.000  Cu
  Cu20     1.0000 0.15927  0.86539  0.42397  Biso   1.000  Cu
  Cu21     1.0000 0.65927  0.63461  0.92397  Biso   1.000  Cu
  Cu22     1.0000 0.15927  0.13461  0.92397  Biso   1.000  Cu
  Cu23     1.0000 0.34073  0.63461  0.57603  Biso   1.000  Cu
  Cu24     1.0000 0.84073  0.13461  0.57603  Biso   1.000  Cu
  Cu25     1.0000 0.34380  0.11434  0.38666  Biso   1.000  Cu
  Cu26     1.0000 0.84380  0.61434  0.38666  Biso   1.000  Cu
  Cu27     1.0000 0.65620  0.11434  0.11334  Biso   1.000  Cu
  Cu28     1.0000 0.15620  0.61434  0.11334  Biso   1.000  Cu
  Cu29     1.0000 0.65620  0.88566  0.61334  Biso   1.000  Cu
  Cu30     1.0000 0.15620  0.38566  0.61334  Biso   1.000  Cu
  Cu31     1.0000 0.34380  0.88566  0.88666  Biso   1.000  Cu
  Cu32     1.0000 0.84380  0.38566  0.88666  Biso   1.000  Cu
  N1       1.0000 0.39956  0.18553  0.35961  Biso   1.000  N
  N2       1.0000 0.89956  0.68553  0.35961  Biso   1.000  N
  N3       1.0000 0.60044  0.18553  0.14039  Biso   1.000  N
  N4       1.0000 0.10044  0.68553  0.14039  Biso   1.000  N
  N5       1.0000 0.60044  0.81447  0.64039  Biso   1.000  N
  N6       1.0000 0.10044  0.31447  0.64039  Biso   1.000  N
  N7       1.0000 0.39956  0.81447  0.85961  Biso   1.000  N
  N8       1.0000 0.89956  0.31447  0.85961  Biso   1.000  N
  N9       1.0000 0.43897  0.31914  0.29949  Biso   1.000  N
  N10      1.0000 0.93897  0.81914  0.29949  Biso   1.000  N
  N11      1.0000 0.56103  0.31914  0.20051  Biso   1.000  N
  N12      1.0000 0.06103  0.81914  0.20051  Biso   1.000  N
  N13      1.0000 0.56103  0.68086  0.70051  Biso   1.000  N
  N14      1.0000 0.06103  0.18086  0.70051  Biso   1.000  N
  N15      1.0000 0.43897  0.68086  0.79949  Biso   1.000  N
  N16      1.0000 0.93897  0.18086  0.79949  Biso   1.000  N
  N17      1.0000 0.44509  0.55809  0.14910  Biso   1.000  N
  N18      1.0000 0.94509  0.05809  0.14910  Biso   1.000  N
  N19      1.0000 0.55491  0.55809  0.35090  Biso   1.000  N
  N20      1.0000 0.05491  0.05809  0.35090  Biso   1.000  N
  N21      1.0000 0.55491  0.44191  0.85090  Biso   1.000  N
  N22      1.0000 0.05491  0.94191  0.85090  Biso   1.000  N
  N23      1.0000 0.44509  0.44191  0.64910  Biso   1.000  N
  N24      1.0000 0.94509  0.94191  0.64910  Biso   1.000  N
  N25      1.0000 0.43374  0.73194  0.08070  Biso   1.000  N
  N26      1.0000 0.93374  0.23194  0.08070  Biso   1.000  N
  N27      1.0000 0.56626  0.73194  0.41930  Biso   1.000  N
  N28      1.0000 0.06626  0.23194  0.41930  Biso   1.000  N
  N29      1.0000 0.56626  0.26806  0.91930  Biso   1.000  N
  N30      1.0000 0.06626  0.76806  0.91930  Biso   1.000  N
  N31      1.0000 0.43374  0.26806  0.58070  Biso   1.000  N
  N32      1.0000 0.93374  0.76806  0.58070  Biso   1.000  N
  N33      1.0000 0.41230  0.05984  0.04244  Biso   1.000  N
  N34      1.0000 0.91230  0.55984  0.04244  Biso   1.000  N
  N35      1.0000 0.58770  0.05984  0.45756  Biso   1.000  N
  N36      1.0000 0.08770  0.55984  0.45756  Biso   1.000  N
  N37      1.0000 0.58770  0.94016  0.95756  Biso   1.000  N
  N38      1.0000 0.08770  0.44016  0.95756  Biso   1.000  N
  N39      1.0000 0.41230  0.94016  0.54244  Biso   1.000  N
  N40      1.0000 0.91230  0.44016  0.54244  Biso   1.000  N
  N41      1.0000 0.38374  0.24509  0.05547  Biso   1.000  N
  N42      1.0000 0.88374  0.74509  0.05547  Biso   1.000  N
  N43      1.0000 0.61626  0.24509  0.44453  Biso   1.000  N
  N44      1.0000 0.11626  0.74509  0.44453  Biso   1.000  N
  N45      1.0000 0.61626  0.75491  0.94453  Biso   1.000  N
  N46      1.0000 0.11626  0.25491  0.94453  Biso   1.000  N
  N47      1.0000 0.38374  0.75491  0.55547  Biso   1.000  N
  N48      1.0000 0.88374  0.25491  0.55547  Biso   1.000  N
  N49      1.0000 0.20796  0.97985  0.41438  Biso   1.000  N
  N50      1.0000 0.70796  0.47985  0.41438  Biso   1.000  N
  N51      1.0000 0.79204  0.97985  0.08562  Biso   1.000  N
  N52      1.0000 0.29204  0.47985  0.08562  Biso   1.000  N
  N53      1.0000 0.79204  0.02015  0.58562  Biso   1.000  N
  N54      1.0000 0.29204  0.52015  0.58562  Biso   1.000  N
  N55      1.0000 0.20796  0.02015  0.91438  Biso   1.000  N
  N56      1.0000 0.70796  0.52015  0.91438  Biso   1.000  N
  N57      1.0000 0.27954  0.07080  0.40041  Biso   1.000  N
  N58      1.0000 0.77954  0.57080  0.40041  Biso   1.000  N
  N59      1.0000 0.72046  0.07080  0.09959  Biso   1.000  N
  N60      1.0000 0.22046  0.57080  0.09959  Biso   1.000  N
  N61      1.0000 0.72046  0.92920  0.59959  Biso   1.000  N
  N62      1.0000 0.22046  0.42920  0.59959  Biso   1.000  N
  N63      1.0000 0.27954  0.92920  0.90041  Biso   1.000  N
  N64      1.0000 0.77954  0.42920  0.90041  Biso   1.000  N
  C1       1.0000 0.44976  0.14640  0.36742  Biso   1.000  C
  C2       1.0000 0.94976  0.64640  0.36742  Biso   1.000  C
  C3       1.0000 0.55024  0.14640  0.13258  Biso   1.000  C
  C4       1.0000 0.05024  0.64640  0.13258  Biso   1.000  C
  C5       1.0000 0.55024  0.85360  0.63258  Biso   1.000  C
  C6       1.0000 0.05024  0.35360  0.63258  Biso   1.000  C
  C7       1.0000 0.44976  0.85360  0.86742  Biso   1.000  C
  C8       1.0000 0.94976  0.35360  0.86742  Biso   1.000  C
  H1       1.0000 0.46500  0.07430  0.39400  Biso   1.000  H
  H2       1.0000 0.96500  0.57430  0.39400  Biso   1.000  H
  H3       1.0000 0.53500  0.07430  0.10600  Biso   1.000  H
  H4       1.0000 0.03500  0.57430  0.10600  Biso   1.000  H
  H5       1.0000 0.53500  0.92570  0.60600  Biso   1.000  H
  H6       1.0000 0.03500  0.42570  0.60600  Biso   1.000  H
  H7       1.0000 0.46500  0.92570  0.89400  Biso   1.000  H
  H8       1.0000 0.96500  0.42570  0.89400  Biso   1.000  H
  C9       1.0000 0.47400  0.22690  0.33129  Biso   1.000  C
  C10      1.0000 0.97400  0.72690  0.33129  Biso   1.000  C
  C11      1.0000 0.52600  0.22690  0.16871  Biso   1.000  C
  C12      1.0000 0.02600  0.72690  0.16871  Biso   1.000  C
  C13      1.0000 0.52600  0.77310  0.66871  Biso   1.000  C
  C14      1.0000 0.02600  0.27310  0.66871  Biso   1.000  C
  C15      1.0000 0.47400  0.77310  0.83129  Biso   1.000  C
  C16      1.0000 0.97400  0.27310  0.83129  Biso   1.000  C
  H9       1.0000 0.50900  0.22110  0.32820  Biso   1.000  H
  H10      1.0000 0.00900  0.72110  0.32820  Biso   1.000  H
  H11      1.0000 0.49100  0.22110  0.17180  Biso   1.000  H
  H12      1.0000 0.99100  0.72110  0.17180  Biso   1.000  H
  H13      1.0000 0.49100  0.77890  0.67180  Biso   1.000  H
  H14      1.0000 0.99100  0.27890  0.67180  Biso   1.000  H
  H15      1.0000 0.50900  0.77890  0.82820  Biso   1.000  H
  H16      1.0000 0.00900  0.27890  0.82820  Biso   1.000  H
  C17      1.0000 0.39523  0.29070  0.31908  Biso   1.000  C
  C18      1.0000 0.89523  0.79070  0.31908  Biso   1.000  C
  C19      1.0000 0.60477  0.29070  0.18092  Biso   1.000  C
  C20      1.0000 0.10477  0.79070  0.18092  Biso   1.000  C
  C21      1.0000 0.60477  0.70930  0.68092  Biso   1.000  C
  C22      1.0000 0.10477  0.20930  0.68092  Biso   1.000  C
  C23      1.0000 0.39523  0.70930  0.81908  Biso   1.000  C
  C24      1.0000 0.89523  0.20930  0.81908  Biso   1.000  C
  C25      1.0000 0.34762  0.36920  0.30077  Biso   1.000  C
  C26      1.0000 0.84762  0.86920  0.30077  Biso   1.000  C
  C27      1.0000 0.65238  0.36920  0.19923  Biso   1.000  C
  C28      1.0000 0.15238  0.86920  0.19923  Biso   1.000  C
  C29      1.0000 0.65238  0.63080  0.69923  Biso   1.000  C
  C30      1.0000 0.15238  0.13080  0.69923  Biso   1.000  C
  C31      1.0000 0.34762  0.63080  0.80077  Biso   1.000  C
  C32      1.0000 0.84762  0.13080  0.80077  Biso   1.000  C
  H17      1.0000 0.31670  0.31900  0.29990  Biso   1.000  H
  H18      1.0000 0.81670  0.81900  0.29990  Biso   1.000  H
  H19      1.0000 0.68330  0.31900  0.20010  Biso   1.000  H
  H20      1.0000 0.18330  0.81900  0.20010  Biso   1.000  H
  H21      1.0000 0.68330  0.68100  0.70010  Biso   1.000  H
  H22      1.0000 0.18330  0.18100  0.70010  Biso   1.000  H
  H23      1.0000 0.31670  0.68100  0.79990  Biso   1.000  H
  H24      1.0000 0.81670  0.18100  0.79990  Biso   1.000  H
  H25      1.0000 0.34150  0.40470  0.24560  Biso   1.000  H
  H26      1.0000 0.84150  0.90470  0.24560  Biso   1.000  H
  H27      1.0000 0.65850  0.40470  0.25440  Biso   1.000  H
  H28      1.0000 0.15850  0.90470  0.25440  Biso   1.000  H
  H29      1.0000 0.65850  0.59530  0.75440  Biso   1.000  H
  H30      1.0000 0.15850  0.09530  0.75440  Biso   1.000  H
  H31      1.0000 0.34150  0.59530  0.74560  Biso   1.000  H
  H32      1.0000 0.84150  0.09530  0.74560  Biso   1.000  H
  C33      1.0000 0.35220  0.46960  0.36190  Biso   1.000  C
  C34      1.0000 0.85220  0.96960  0.36190  Biso   1.000  C
  C35      1.0000 0.64780  0.46960  0.13810  Biso   1.000  C
  C36      1.0000 0.14780  0.96960  0.13810  Biso   1.000  C
  C37      1.0000 0.64780  0.53040  0.63810  Biso   1.000  C
  C38      1.0000 0.14780  0.03040  0.63810  Biso   1.000  C
  C39      1.0000 0.35220  0.53040  0.86190  Biso   1.000  C
  C40      1.0000 0.85220  0.03040  0.86190  Biso   1.000  C
  H33      1.0000 0.31990  0.51790  0.34680  Biso   1.000  H
  H34      1.0000 0.81990  0.01790  0.34680  Biso   1.000  H
  H35      1.0000 0.68010  0.51790  0.15320  Biso   1.000  H
  H36      1.0000 0.18010  0.01790  0.15320  Biso   1.000  H
  H37      1.0000 0.68010  0.48210  0.65320  Biso   1.000  H
  H38      1.0000 0.18010  0.98210  0.65320  Biso   1.000  H
  H39      1.0000 0.31990  0.48210  0.84680  Biso   1.000  H
  H40      1.0000 0.81990  0.98210  0.84680  Biso   1.000  H
  H41      1.0000 0.38220  0.52100  0.36220  Biso   1.000  H
  H42      1.0000 0.88220  0.02100  0.36220  Biso   1.000  H
  H43      1.0000 0.61780  0.52100  0.13780  Biso   1.000  H
  H44      1.0000 0.11780  0.02100  0.13780  Biso   1.000  H
  H45      1.0000 0.61780  0.47900  0.63780  Biso   1.000  H
  H46      1.0000 0.11780  0.97900  0.63780  Biso   1.000  H
  H47      1.0000 0.38220  0.47900  0.86220  Biso   1.000  H
  H48      1.0000 0.88220  0.97900  0.86220  Biso   1.000  H
  H49      1.0000 0.35740  0.43520  0.41650  Biso   1.000  H
  H50      1.0000 0.85740  0.93520  0.41650  Biso   1.000  H
  H51      1.0000 0.64260  0.43520  0.08350  Biso   1.000  H
  H52      1.0000 0.14260  0.93520  0.08350  Biso   1.000  H
  H53      1.0000 0.64260  0.56480  0.58350  Biso   1.000  H
  H54      1.0000 0.14260  0.06480  0.58350  Biso   1.000  H
  H55      1.0000 0.35740  0.56480  0.91650  Biso   1.000  H
  H56      1.0000 0.85740  0.06480  0.91650  Biso   1.000  H
  C41      1.0000 0.46615  0.54720  0.08454  Biso   1.000  C
  C42      1.0000 0.96615  0.04720  0.08454  Biso   1.000  C
  C43      1.0000 0.53385  0.54720  0.41546  Biso   1.000  C
  C44      1.0000 0.03385  0.04720  0.41546  Biso   1.000  C
  C45      1.0000 0.53385  0.45280  0.91546  Biso   1.000  C
  C46      1.0000 0.03385  0.95280  0.91546  Biso   1.000  C
  C47      1.0000 0.46615  0.45280  0.58454  Biso   1.000  C
  C48      1.0000 0.96615  0.95280  0.58454  Biso   1.000  C
  H57      1.0000 0.48280  0.47730  0.07160  Biso   1.000  H
  H58      1.0000 0.98280  0.97730  0.07160  Biso   1.000  H
  H59      1.0000 0.51720  0.47730  0.42840  Biso   1.000  H
  H60      1.0000 0.01720  0.97730  0.42840  Biso   1.000  H
  H61      1.0000 0.51720  0.52270  0.92840  Biso   1.000  H
  H62      1.0000 0.01720  0.02270  0.92840  Biso   1.000  H
  H63      1.0000 0.48280  0.52270  0.57160  Biso   1.000  H
  H64      1.0000 0.98280  0.02270  0.57160  Biso   1.000  H
  C49      1.0000 0.45916  0.65260  0.04284  Biso   1.000  C
  C50      1.0000 0.95916  0.15260  0.04284  Biso   1.000  C
  C51      1.0000 0.54084  0.65260  0.45716  Biso   1.000  C
  C52      1.0000 0.04084  0.15260  0.45716  Biso   1.000  C
  C53      1.0000 0.54084  0.34740  0.95716  Biso   1.000  C
  C54      1.0000 0.04084  0.84740  0.95716  Biso   1.000  C
  C55      1.0000 0.45916  0.34740  0.54284  Biso   1.000  C
  C56      1.0000 0.95916  0.84740  0.54284  Biso   1.000  C
  H65      1.0000 0.46990  0.66920  0.99560  Biso   1.000  H
  H66      1.0000 0.96990  0.16920  0.99560  Biso   1.000  H
  H67      1.0000 0.53010  0.66920  0.50440  Biso   1.000  H
  H68      1.0000 0.03010  0.16920  0.50440  Biso   1.000  H
  H69      1.0000 0.53010  0.33080  0.00440  Biso   1.000  H
  H70      1.0000 0.03010  0.83080  0.00440  Biso   1.000  H
  H71      1.0000 0.46990  0.33080  0.49560  Biso   1.000  H
  H72      1.0000 0.96990  0.83080  0.49560  Biso   1.000  H
  C57      1.0000 0.42628  0.67150  0.14423  Biso   1.000  C
  C58      1.0000 0.92628  0.17150  0.14423  Biso   1.000  C
  C59      1.0000 0.57372  0.67150  0.35577  Biso   1.000  C
  C60      1.0000 0.07372  0.17150  0.35577  Biso   1.000  C
  C61      1.0000 0.57372  0.32850  0.85577  Biso   1.000  C
  C62      1.0000 0.07372  0.82850  0.85577  Biso   1.000  C
  C63      1.0000 0.42628  0.32850  0.64423  Biso   1.000  C
  C64      1.0000 0.92628  0.82850  0.64423  Biso   1.000  C
  C65      1.0000 0.40014  0.72320  0.20300  Biso   1.000  C
  C66      1.0000 0.90014  0.22320  0.20300  Biso   1.000  C
  C67      1.0000 0.59986  0.72320  0.29700  Biso   1.000  C
  C68      1.0000 0.09986  0.22320  0.29700  Biso   1.000  C
  C69      1.0000 0.59986  0.27680  0.79700  Biso   1.000  C
  C70      1.0000 0.09986  0.77680  0.79700  Biso   1.000  C
  C71      1.0000 0.40014  0.27680  0.70300  Biso   1.000  C
  C72      1.0000 0.90014  0.77680  0.70300  Biso   1.000  C
  H73      1.0000 0.38160  0.65780  0.22270  Biso   1.000  H
  H74      1.0000 0.88160  0.15780  0.22270  Biso   1.000  H
  H75      1.0000 0.61840  0.65780  0.27730  Biso   1.000  H
  H76      1.0000 0.11840  0.15780  0.27730  Biso   1.000  H
  H77      1.0000 0.61840  0.34220  0.77730  Biso   1.000  H
  H78      1.0000 0.11840  0.84220  0.77730  Biso   1.000  H
  H79      1.0000 0.38160  0.34220  0.72270  Biso   1.000  H
  H80      1.0000 0.88160  0.84220  0.72270  Biso   1.000  H
  H81      1.0000 0.37340  0.78250  0.17380  Biso   1.000  H
  H82      1.0000 0.87340  0.28250  0.17380  Biso   1.000  H
  H83      1.0000 0.62660  0.78250  0.32620  Biso   1.000  H
  H84      1.0000 0.12660  0.28250  0.32620  Biso   1.000  H
  H85      1.0000 0.62660  0.21750  0.82620  Biso   1.000  H
  H86      1.0000 0.12660  0.71750  0.82620  Biso   1.000  H
  H87      1.0000 0.37340  0.21750  0.67380  Biso   1.000  H
  H88      1.0000 0.87340  0.71750  0.67380  Biso   1.000  H
  C73      1.0000 0.43768  0.78450  0.27601  Biso   1.000  C
  C74      1.0000 0.93768  0.28450  0.27601  Biso   1.000  C
  C75      1.0000 0.56232  0.78450  0.22399  Biso   1.000  C
  C76      1.0000 0.06232  0.28450  0.22399  Biso   1.000  C
  C77      1.0000 0.56232  0.21550  0.72399  Biso   1.000  C
  C78      1.0000 0.06232  0.71550  0.72399  Biso   1.000  C
  C79      1.0000 0.43768  0.21550  0.77601  Biso   1.000  C
  C80      1.0000 0.93768  0.71550  0.77601  Biso   1.000  C
  H89      1.0000 0.41800  0.81620  0.31190  Biso   1.000  H
  H90      1.0000 0.91800  0.31620  0.31190  Biso   1.000  H
  H91      1.0000 0.58200  0.81620  0.18810  Biso   1.000  H
  H92      1.0000 0.08200  0.31620  0.18810  Biso   1.000  H
  H93      1.0000 0.58200  0.18380  0.68810  Biso   1.000  H
  H94      1.0000 0.08200  0.68380  0.68810  Biso   1.000  H
  H95      1.0000 0.41800  0.18380  0.81190  Biso   1.000  H
  H96      1.0000 0.91800  0.68380  0.81190  Biso   1.000  H
  H97      1.0000 0.45550  0.85080  0.25720  Biso   1.000  H
  H98      1.0000 0.95550  0.35080  0.25720  Biso   1.000  H
  H99      1.0000 0.54450  0.85080  0.24280  Biso   1.000  H
  H100     1.0000 0.04450  0.35080  0.24280  Biso   1.000  H
  H101     1.0000 0.54450  0.14920  0.74280  Biso   1.000  H
  H102     1.0000 0.04450  0.64920  0.74280  Biso   1.000  H
  H103     1.0000 0.45550  0.14920  0.75720  Biso   1.000  H
  H104     1.0000 0.95550  0.64920  0.75720  Biso   1.000  H
  H105     1.0000 0.46380  0.72600  0.30620  Biso   1.000  H
  H106     1.0000 0.96380  0.22600  0.30620  Biso   1.000  H
  H107     1.0000 0.53620  0.72600  0.19380  Biso   1.000  H
  H108     1.0000 0.03620  0.22600  0.19380  Biso   1.000  H
  H109     1.0000 0.53620  0.27400  0.69380  Biso   1.000  H
  H110     1.0000 0.03620  0.77400  0.69380  Biso   1.000  H
  H111     1.0000 0.46380  0.27400  0.80620  Biso   1.000  H
  H112     1.0000 0.96380  0.77400  0.80620  Biso   1.000  H
  C81      1.0000 0.42650  0.13420  0.98791  Biso   1.000  C
  C82      1.0000 0.92650  0.63420  0.98791  Biso   1.000  C
  C83      1.0000 0.57350  0.13420  0.51209  Biso   1.000  C
  C84      1.0000 0.07350  0.63420  0.51209  Biso   1.000  C
  C85      1.0000 0.57350  0.86580  0.01209  Biso   1.000  C
  C86      1.0000 0.07350  0.36580  0.01209  Biso   1.000  C
  C87      1.0000 0.42650  0.86580  0.48791  Biso   1.000  C
  C88      1.0000 0.92650  0.36580  0.48791  Biso   1.000  C
  H113     1.0000 0.44540  0.11040  0.95110  Biso   1.000  H
  H114     1.0000 0.94540  0.61040  0.95110  Biso   1.000  H
  H115     1.0000 0.55460  0.11040  0.54890  Biso   1.000  H
  H116     1.0000 0.05460  0.61040  0.54890  Biso   1.000  H
  H117     1.0000 0.55460  0.88960  0.04890  Biso   1.000  H
  H118     1.0000 0.05460  0.38960  0.04890  Biso   1.000  H
  H119     1.0000 0.44540  0.88960  0.45110  Biso   1.000  H
  H120     1.0000 0.94540  0.38960  0.45110  Biso   1.000  H
  C89      1.0000 0.40909  0.24680  0.99559  Biso   1.000  C
  C90      1.0000 0.90909  0.74680  0.99559  Biso   1.000  C
  C91      1.0000 0.59091  0.24680  0.50441  Biso   1.000  C
  C92      1.0000 0.09091  0.74680  0.50441  Biso   1.000  C
  C93      1.0000 0.59091  0.75320  0.00441  Biso   1.000  C
  C94      1.0000 0.09091  0.25320  0.00441  Biso   1.000  C
  C95      1.0000 0.40909  0.75320  0.49559  Biso   1.000  C
  C96      1.0000 0.90909  0.25320  0.49559  Biso   1.000  C
  H121     1.0000 0.41350  0.31540  0.96500  Biso   1.000  H
  H122     1.0000 0.91350  0.81540  0.96500  Biso   1.000  H
  H123     1.0000 0.58650  0.31540  0.53500  Biso   1.000  H
  H124     1.0000 0.08650  0.81540  0.53500  Biso   1.000  H
  H125     1.0000 0.58650  0.68460  0.03500  Biso   1.000  H
  H126     1.0000 0.08650  0.18460  0.03500  Biso   1.000  H
  H127     1.0000 0.41350  0.68460  0.46500  Biso   1.000  H
  H128     1.0000 0.91350  0.18460  0.46500  Biso   1.000  H
  C97      1.0000 0.38671  0.13090  0.08182  Biso   1.000  C
  C98      1.0000 0.88671  0.63090  0.08182  Biso   1.000  C
  C99      1.0000 0.61329  0.13090  0.41818  Biso   1.000  C
  C100     1.0000 0.11329  0.63090  0.41818  Biso   1.000  C
  C101     1.0000 0.61329  0.86910  0.91818  Biso   1.000  C
  C102     1.0000 0.11329  0.36910  0.91818  Biso   1.000  C
  C103     1.0000 0.38671  0.86910  0.58182  Biso   1.000  C
  C104     1.0000 0.88671  0.36910  0.58182  Biso   1.000  C
  C105     1.0000 0.36331  0.08770  0.14613  Biso   1.000  C
  C106     1.0000 0.86331  0.58770  0.14613  Biso   1.000  C
  C107     1.0000 0.63669  0.08770  0.35387  Biso   1.000  C
  C108     1.0000 0.13669  0.58770  0.35387  Biso   1.000  C
  C109     1.0000 0.63669  0.91230  0.85387  Biso   1.000  C
  C110     1.0000 0.13669  0.41230  0.85387  Biso   1.000  C
  C111     1.0000 0.36331  0.91230  0.64613  Biso   1.000  C
  C112     1.0000 0.86331  0.41230  0.64613  Biso   1.000  C
  H129     1.0000 0.36070  0.15630  0.18180  Biso   1.000  H
  H130     1.0000 0.86070  0.65630  0.18180  Biso   1.000  H
  H131     1.0000 0.63930  0.15630  0.31820  Biso   1.000  H
  H132     1.0000 0.13930  0.65630  0.31820  Biso   1.000  H
  H133     1.0000 0.63930  0.84370  0.81820  Biso   1.000  H
  H134     1.0000 0.13930  0.34370  0.81820  Biso   1.000  H
  H135     1.0000 0.36070  0.84370  0.68180  Biso   1.000  H
  H136     1.0000 0.86070  0.34370  0.68180  Biso   1.000  H
  H137     1.0000 0.38700  0.02700  0.18050  Biso   1.000  H
  H138     1.0000 0.88700  0.52700  0.18050  Biso   1.000  H
  H139     1.0000 0.61300  0.02700  0.31950  Biso   1.000  H
  H140     1.0000 0.11300  0.52700  0.31950  Biso   1.000  H
  H141     1.0000 0.61300  0.97300  0.81950  Biso   1.000  H
  H142     1.0000 0.11300  0.47300  0.81950  Biso   1.000  H
  H143     1.0000 0.38700  0.97300  0.68050  Biso   1.000  H
  H144     1.0000 0.88700  0.47300  0.68050  Biso   1.000  H
  C113     1.0000 0.30911  0.03210  0.11142  Biso   1.000  C
  C114     1.0000 0.80911  0.53210  0.11142  Biso   1.000  C
  C115     1.0000 0.69089  0.03210  0.38858  Biso   1.000  C
  C116     1.0000 0.19089  0.53210  0.38858  Biso   1.000  C
  C117     1.0000 0.69089  0.96790  0.88858  Biso   1.000  C
  C118     1.0000 0.19089  0.46790  0.88858  Biso   1.000  C
  C119     1.0000 0.30911  0.96790  0.61142  Biso   1.000  C
  C120     1.0000 0.80911  0.46790  0.61142  Biso   1.000  C
  H145     1.0000 0.29580  0.00560  0.15640  Biso   1.000  H
  H146     1.0000 0.79580  0.50560  0.15640  Biso   1.000  H
  H147     1.0000 0.70420  0.00560  0.34360  Biso   1.000  H
  H148     1.0000 0.20420  0.50560  0.34360  Biso   1.000  H
  H149     1.0000 0.70420  0.99440  0.84360  Biso   1.000  H
  H150     1.0000 0.20420  0.49440  0.84360  Biso   1.000  H
  H151     1.0000 0.29580  0.99440  0.65640  Biso   1.000  H
  H152     1.0000 0.79580  0.49440  0.65640  Biso   1.000  H
  H153     1.0000 0.31140  0.96280  0.07710  Biso   1.000  H
  H154     1.0000 0.81140  0.46280  0.07710  Biso   1.000  H
  H155     1.0000 0.68860  0.96280  0.42290  Biso   1.000  H
  H156     1.0000 0.18860  0.46280  0.42290  Biso   1.000  H
  H157     1.0000 0.68860  0.03720  0.92290  Biso   1.000  H
  H158     1.0000 0.18860  0.53720  0.92290  Biso   1.000  H
  H159     1.0000 0.31140  0.03720  0.57710  Biso   1.000  H
  H160     1.0000 0.81140  0.53720  0.57710  Biso   1.000  H
  H161     1.0000 0.28510  0.09220  0.07840  Biso   1.000  H
  H162     1.0000 0.78510  0.59220  0.07840  Biso   1.000  H
  H163     1.0000 0.71490  0.09220  0.42160  Biso   1.000  H
  H164     1.0000 0.21490  0.59220  0.42160  Biso   1.000  H
  H165     1.0000 0.71490  0.90780  0.92160  Biso   1.000  H
  H166     1.0000 0.21490  0.40780  0.92160  Biso   1.000  H
  H167     1.0000 0.28510  0.90780  0.57840  Biso   1.000  H
  H168     1.0000 0.78510  0.40780  0.57840  Biso   1.000  H
  C121     1.0000 0.20498  0.10070  0.43131  Biso   1.000  C
  C122     1.0000 0.70498  0.60070  0.43131  Biso   1.000  C
  C123     1.0000 0.79502  0.10070  0.06869  Biso   1.000  C
  C124     1.0000 0.29502  0.60070  0.06869  Biso   1.000  C
  C125     1.0000 0.79502  0.89930  0.56869  Biso   1.000  C
  C126     1.0000 0.29502  0.39930  0.56869  Biso   1.000  C
  C127     1.0000 0.20498  0.89930  0.93131  Biso   1.000  C
  C128     1.0000 0.70498  0.39930  0.93131  Biso   1.000  C
  H169     1.0000 0.17740  0.13870  0.44690  Biso   1.000  H
  H170     1.0000 0.67740  0.63870  0.44690  Biso   1.000  H
  H171     1.0000 0.82260  0.13870  0.05310  Biso   1.000  H
  H172     1.0000 0.32260  0.63870  0.05310  Biso   1.000  H
  H173     1.0000 0.82260  0.86130  0.55310  Biso   1.000  H
  H174     1.0000 0.32260  0.36130  0.55310  Biso   1.000  H
  H175     1.0000 0.17740  0.86130  0.94690  Biso   1.000  H
  H176     1.0000 0.67740  0.36130  0.94690  Biso   1.000  H
  C129     1.0000 0.24830  0.15600  0.42193  Biso   1.000  C
  C130     1.0000 0.74830  0.65600  0.42193  Biso   1.000  C
  C131     1.0000 0.75170  0.15600  0.07807  Biso   1.000  C
  C132     1.0000 0.25170  0.65600  0.07807  Biso   1.000  C
  C133     1.0000 0.75170  0.84400  0.57807  Biso   1.000  C
  C134     1.0000 0.25170  0.34400  0.57807  Biso   1.000  C
  C135     1.0000 0.24830  0.84400  0.92193  Biso   1.000  C
  C136     1.0000 0.74830  0.34400  0.92193  Biso   1.000  C
  H177     1.0000 0.25590  0.23960  0.42900  Biso   1.000  H
  H178     1.0000 0.75590  0.73960  0.42900  Biso   1.000  H
  H179     1.0000 0.74410  0.23960  0.07100  Biso   1.000  H
  H180     1.0000 0.24410  0.73960  0.07100  Biso   1.000  H
  H181     1.0000 0.74410  0.76040  0.57100  Biso   1.000  H
  H182     1.0000 0.24410  0.26040  0.57100  Biso   1.000  H
  H183     1.0000 0.25590  0.76040  0.92900  Biso   1.000  H
  H184     1.0000 0.75590  0.26040  0.92900  Biso   1.000  H
  C137     1.0000 0.25379  0.96580  0.39661  Biso   1.000  C
  C138     1.0000 0.75379  0.46580  0.39661  Biso   1.000  C
  C139     1.0000 0.74621  0.96580  0.10339  Biso   1.000  C
  C140     1.0000 0.24621  0.46580  0.10339  Biso   1.000  C
  C141     1.0000 0.74621  0.03420  0.60339  Biso   1.000  C
  C142     1.0000 0.24621  0.53420  0.60339  Biso   1.000  C
  C143     1.0000 0.25379  0.03420  0.89661  Biso   1.000  C
  C144     1.0000 0.75379  0.53420  0.89661  Biso   1.000  C
  C145     1.0000 0.27361  0.84630  0.37800  Biso   1.000  C
  C146     1.0000 0.77361  0.34630  0.37800  Biso   1.000  C
  C147     1.0000 0.72639  0.84630  0.12200  Biso   1.000  C
  C148     1.0000 0.22639  0.34630  0.12200  Biso   1.000  C
  C149     1.0000 0.72639  0.15370  0.62200  Biso   1.000  C
  C150     1.0000 0.22639  0.65370  0.62200  Biso   1.000  C
  C151     1.0000 0.27361  0.15370  0.87800  Biso   1.000  C
  C152     1.0000 0.77361  0.65370  0.87800  Biso   1.000  C
  H185     1.0000 0.24420  0.78810  0.36550  Biso   1.000  H
  H186     1.0000 0.74420  0.28810  0.36550  Biso   1.000  H
  H187     1.0000 0.75580  0.78810  0.13450  Biso   1.000  H
  H188     1.0000 0.25580  0.28810  0.13450  Biso   1.000  H
  H189     1.0000 0.75580  0.21190  0.63450  Biso   1.000  H
  H190     1.0000 0.25580  0.71190  0.63450  Biso   1.000  H
  H191     1.0000 0.24420  0.21190  0.86550  Biso   1.000  H
  H192     1.0000 0.74420  0.71190  0.86550  Biso   1.000  H
  H193     1.0000 0.30050  0.81720  0.42750  Biso   1.000  H
  H194     1.0000 0.80050  0.31720  0.42750  Biso   1.000  H
  H195     1.0000 0.69950  0.81720  0.07250  Biso   1.000  H
  H196     1.0000 0.19950  0.31720  0.07250  Biso   1.000  H
  H197     1.0000 0.69950  0.18280  0.57250  Biso   1.000  H
  H198     1.0000 0.19950  0.68280  0.57250  Biso   1.000  H
  H199     1.0000 0.30050  0.18280  0.92750  Biso   1.000  H
  H200     1.0000 0.80050  0.68280  0.92750  Biso   1.000  H
  C153     1.0000 0.29729  0.84750  0.30728  Biso   1.000  C
  C154     1.0000 0.79729  0.34750  0.30728  Biso   1.000  C
  C155     1.0000 0.70271  0.84750  0.19272  Biso   1.000  C
  C156     1.0000 0.20271  0.34750  0.19272  Biso   1.000  C
  C157     1.0000 0.70271  0.15250  0.69272  Biso   1.000  C
  C158     1.0000 0.20271  0.65250  0.69272  Biso   1.000  C
  C159     1.0000 0.29729  0.15250  0.80728  Biso   1.000  C
  C160     1.0000 0.79729  0.65250  0.80728  Biso   1.000  C
  H201     1.0000 0.30930  0.76620  0.29910  Biso   1.000  H
  H202     1.0000 0.80930  0.26620  0.29910  Biso   1.000  H
  H203     1.0000 0.69070  0.76620  0.20090  Biso   1.000  H
  H204     1.0000 0.19070  0.26620  0.20090  Biso   1.000  H
  H205     1.0000 0.69070  0.23380  0.70090  Biso   1.000  H
  H206     1.0000 0.19070  0.73380  0.70090  Biso   1.000  H
  H207     1.0000 0.30930  0.23380  0.79910  Biso   1.000  H
  H208     1.0000 0.80930  0.73380  0.79910  Biso   1.000  H
  H209     1.0000 0.32720  0.90310  0.31960  Biso   1.000  H
  H210     1.0000 0.82720  0.40310  0.31960  Biso   1.000  H
  H211     1.0000 0.67280  0.90310  0.18040  Biso   1.000  H
  H212     1.0000 0.17280  0.40310  0.18040  Biso   1.000  H
  H213     1.0000 0.67280  0.09690  0.68040  Biso   1.000  H
  H214     1.0000 0.17280  0.59690  0.68040  Biso   1.000  H
  H215     1.0000 0.32720  0.09690  0.81960  Biso   1.000  H
  H216     1.0000 0.82720  0.59690  0.81960  Biso   1.000  H
  H217     1.0000 0.27070  0.87390  0.25740  Biso   1.000  H
  H218     1.0000 0.77070  0.37390  0.25740  Biso   1.000  H
  H219     1.0000 0.72930  0.87390  0.24260  Biso   1.000  H
  H220     1.0000 0.22930  0.37390  0.24260  Biso   1.000  H
  H221     1.0000 0.72930  0.12610  0.74260  Biso   1.000  H
  H222     1.0000 0.22930  0.62610  0.74260  Biso   1.000  H
  H223     1.0000 0.27070  0.12610  0.75740  Biso   1.000  H
  H224     1.0000 0.77070  0.62610  0.75740  Biso   1.000  H
