data_image0
_cell_length_a       18.853
_cell_length_b       22.631
_cell_length_c       16.1982
_cell_angle_alpha    90
_cell_angle_beta     95.732
_cell_angle_gamma    90

_symmetry_space_group_name_H-M    "P 1"
_symmetry_int_tables_number       1

loop_
  _symmetry_equiv_pos_as_xyz
  'x, y, z'

loop_
  _atom_site_label
  _atom_site_occupancy
  _atom_site_fract_x
  _atom_site_fract_y
  _atom_site_fract_z
  _atom_site_thermal_displace_type
  _atom_site_B_iso_or_equiv
  _atom_site_type_symbol
  Mo1      1.0000 0.12282  0.44056  0.81722  Biso   1.000  Mo
  Mo2      1.0000 0.87718  0.44056  0.68278  Biso   1.000  Mo
  Mo3      1.0000 0.62282  0.94056  0.81722  Biso   1.000  Mo
  Mo4      1.0000 0.37718  0.94056  0.68278  Biso   1.000  Mo
  Mo5      1.0000 0.87718  0.55944  0.18278  Biso   1.000  Mo
  Mo6      1.0000 0.12282  0.55944  0.31722  Biso   1.000  Mo
  Mo7      1.0000 0.37718  0.05944  0.18278  Biso   1.000  Mo
  Mo8      1.0000 0.62282  0.05944  0.31722  Biso   1.000  Mo
  Mo9      1.0000 0.07635  0.32250  0.96018  Biso   1.000  Mo
  Mo10     1.0000 0.92365  0.32250  0.53982  Biso   1.000  Mo
  Mo11     1.0000 0.57635  0.82250  0.96018  Biso   1.000  Mo
  Mo12     1.0000 0.42365  0.82250  0.53982  Biso   1.000  Mo
  Mo13     1.0000 0.92365  0.67750  0.03982  Biso   1.000  Mo
  Mo14     1.0000 0.07635  0.67750  0.46018  Biso   1.000  Mo
  Mo15     1.0000 0.42365  0.17750  0.03982  Biso   1.000  Mo
  Mo16     1.0000 0.57635  0.17750  0.46018  Biso   1.000  Mo
  Mo17     1.0000 0.95237  0.21888  0.89311  Biso   1.000  Mo
  Mo18     1.0000 0.04763  0.21888  0.60689  Biso   1.000  Mo
  Mo19     1.0000 0.45237  0.71888  0.89311  Biso   1.000  Mo
  Mo20     1.0000 0.54763  0.71888  0.60689  Biso   1.000  Mo
  Mo21     1.0000 0.04763  0.78112  0.10689  Biso   1.000  Mo
  Mo22     1.0000 0.95237  0.78112  0.39311  Biso   1.000  Mo
  Mo23     1.0000 0.54763  0.28112  0.10689  Biso   1.000  Mo
  Mo24     1.0000 0.45237  0.28112  0.39311  Biso   1.000  Mo
  Mo25     1.0000 0.82330  0.33237  0.80798  Biso   1.000  Mo
  Mo26     1.0000 0.17670  0.33237  0.69202  Biso   1.000  Mo
  Mo27     1.0000 0.32330  0.83237  0.80798  Biso   1.000  Mo
  Mo28     1.0000 0.67670  0.83237  0.69202  Biso   1.000  Mo
  Mo29     1.0000 0.17670  0.66763  0.19202  Biso   1.000  Mo
  Mo30     1.0000 0.82330  0.66763  0.30798  Biso   1.000  Mo
  Mo31     1.0000 0.67670  0.16763  0.19202  Biso   1.000  Mo
  Mo32     1.0000 0.32330  0.16763  0.30798  Biso   1.000  Mo
  Mo33     1.0000 0.88102  0.21378  0.67227  Biso   1.000  Mo
  Mo34     1.0000 0.11898  0.21378  0.82773  Biso   1.000  Mo
  Mo35     1.0000 0.38102  0.71378  0.67227  Biso   1.000  Mo
  Mo36     1.0000 0.61898  0.71378  0.82773  Biso   1.000  Mo
  Mo37     1.0000 0.11898  0.78622  0.32773  Biso   1.000  Mo
  Mo38     1.0000 0.88102  0.78622  0.17227  Biso   1.000  Mo
  Mo39     1.0000 0.61898  0.28622  0.32773  Biso   1.000  Mo
  Mo40     1.0000 0.38102  0.28622  0.17227  Biso   1.000  Mo
  Mo41     1.0000 0.05718  0.43519  0.61211  Biso   1.000  Mo
  Mo42     1.0000 0.94282  0.43519  0.88789  Biso   1.000  Mo
  Mo43     1.0000 0.55718  0.93519  0.61211  Biso   1.000  Mo
  Mo44     1.0000 0.44282  0.93519  0.88789  Biso   1.000  Mo
  Mo45     1.0000 0.94282  0.56481  0.38789  Biso   1.000  Mo
  Mo46     1.0000 0.05718  0.56481  0.11211  Biso   1.000  Mo
  Mo47     1.0000 0.44282  0.06481  0.38789  Biso   1.000  Mo
  Mo48     1.0000 0.55718  0.06481  0.11211  Biso   1.000  Mo
  Cu1      1.0000 0.92415  0.15045  0.09023  Biso   1.000  Cu
  Cu2      1.0000 0.07585  0.15045  0.40977  Biso   1.000  Cu
  Cu3      1.0000 0.42415  0.65045  0.09023  Biso   1.000  Cu
  Cu4      1.0000 0.57585  0.65045  0.40977  Biso   1.000  Cu
  Cu5      1.0000 0.07585  0.84955  0.90977  Biso   1.000  Cu
  Cu6      1.0000 0.92415  0.84955  0.59023  Biso   1.000  Cu
  Cu7      1.0000 0.57585  0.34955  0.90977  Biso   1.000  Cu
  Cu8      1.0000 0.42415  0.34955  0.59023  Biso   1.000  Cu
  Cu9      1.0000 0.00000  0.24170  0.25000  Biso   1.000  Cu
  Cu10     1.0000 0.50000  0.74170  0.25000  Biso   1.000  Cu
  Cu11     1.0000 0.00000  0.75830  0.75000  Biso   1.000  Cu
  Cu12     1.0000 0.50000  0.25830  0.75000  Biso   1.000  Cu
  S1       1.0000 0.82080  0.95673  0.25607  Biso   1.000  S
  S2       1.0000 0.17920  0.95673  0.24393  Biso   1.000  S
  S3       1.0000 0.32080  0.45673  0.25607  Biso   1.000  S
  S4       1.0000 0.67920  0.45673  0.24393  Biso   1.000  S
  S5       1.0000 0.17920  0.04327  0.74393  Biso   1.000  S
  S6       1.0000 0.82080  0.04327  0.75607  Biso   1.000  S
  S7       1.0000 0.67920  0.54327  0.74393  Biso   1.000  S
  S8       1.0000 0.32080  0.54327  0.75607  Biso   1.000  S
  S9       1.0000 0.91822  0.08144  0.50204  Biso   1.000  S
  S10      1.0000 0.08178  0.08144  0.99796  Biso   1.000  S
  S11      1.0000 0.41822  0.58144  0.50204  Biso   1.000  S
  S12      1.0000 0.58178  0.58144  0.99796  Biso   1.000  S
  S13      1.0000 0.08178  0.91856  0.49796  Biso   1.000  S
  S14      1.0000 0.91822  0.91856  0.00204  Biso   1.000  S
  S15      1.0000 0.58178  0.41856  0.49796  Biso   1.000  S
  S16      1.0000 0.41822  0.41856  0.00204  Biso   1.000  S
  S17      1.0000 0.86700  0.37883  0.22750  Biso   1.000  S
  S18      1.0000 0.13300  0.37883  0.27250  Biso   1.000  S
  S19      1.0000 0.36700  0.87883  0.22750  Biso   1.000  S
  S20      1.0000 0.63300  0.87883  0.27250  Biso   1.000  S
  S21      1.0000 0.13300  0.62117  0.77250  Biso   1.000  S
  S22      1.0000 0.86700  0.62117  0.72750  Biso   1.000  S
  S23      1.0000 0.63300  0.12117  0.77250  Biso   1.000  S
  S24      1.0000 0.36700  0.12117  0.72750  Biso   1.000  S
  P1       1.0000 0.00000  0.32685  0.75000  Biso   1.000  P
  P2       1.0000 0.50000  0.82685  0.75000  Biso   1.000  P
  P3       1.0000 0.00000  0.67315  0.25000  Biso   1.000  P
  P4       1.0000 0.50000  0.17315  0.25000  Biso   1.000  P
  O1       1.0000 0.85670  0.39220  0.88860  Biso   1.000  O
  O2       1.0000 0.14330  0.39220  0.61140  Biso   1.000  O
  O3       1.0000 0.35670  0.89220  0.88860  Biso   1.000  O
  O4       1.0000 0.64330  0.89220  0.61140  Biso   1.000  O
  O5       1.0000 0.14330  0.60780  0.11140  Biso   1.000  O
  O6       1.0000 0.85670  0.60780  0.38860  Biso   1.000  O
  O7       1.0000 0.64330  0.10780  0.11140  Biso   1.000  O
  O8       1.0000 0.35670  0.10780  0.38860  Biso   1.000  O
  O9       1.0000 0.74280  0.31900  0.83620  Biso   1.000  O
  O10      1.0000 0.25720  0.31900  0.66380  Biso   1.000  O
  O11      1.0000 0.24280  0.81900  0.83620  Biso   1.000  O
  O12      1.0000 0.75720  0.81900  0.66380  Biso   1.000  O
  O13      1.0000 0.25720  0.68100  0.16380  Biso   1.000  O
  O14      1.0000 0.74280  0.68100  0.33620  Biso   1.000  O
  O15      1.0000 0.75720  0.18100  0.16380  Biso   1.000  O
  O16      1.0000 0.24280  0.18100  0.33620  Biso   1.000  O
  O17      1.0000 0.03130  0.45788  0.84620  Biso   1.000  O
  O18      1.0000 0.96870  0.45788  0.65380  Biso   1.000  O
  O19      1.0000 0.53130  0.95788  0.84620  Biso   1.000  O
  O20      1.0000 0.46870  0.95788  0.65380  Biso   1.000  O
  O21      1.0000 0.96870  0.54212  0.15380  Biso   1.000  O
  O22      1.0000 0.03130  0.54212  0.34620  Biso   1.000  O
  O23      1.0000 0.46870  0.04212  0.15380  Biso   1.000  O
  O24      1.0000 0.53130  0.04212  0.34620  Biso   1.000  O
  O25      1.0000 0.19590  0.39389  0.76970  Biso   1.000  O
  O26      1.0000 0.80410  0.39389  0.73030  Biso   1.000  O
  O27      1.0000 0.69590  0.89389  0.76970  Biso   1.000  O
  O28      1.0000 0.30410  0.89389  0.73030  Biso   1.000  O
  O29      1.0000 0.80410  0.60611  0.23030  Biso   1.000  O
  O30      1.0000 0.19590  0.60611  0.26970  Biso   1.000  O
  O31      1.0000 0.30410  0.10611  0.23030  Biso   1.000  O
  O32      1.0000 0.69590  0.10611  0.26970  Biso   1.000  O
  O33      1.0000 0.81680  0.16360  0.65060  Biso   1.000  O
  O34      1.0000 0.18320  0.16360  0.84940  Biso   1.000  O
  O35      1.0000 0.31680  0.66360  0.65060  Biso   1.000  O
  O36      1.0000 0.68320  0.66360  0.84940  Biso   1.000  O
  O37      1.0000 0.18320  0.83640  0.34940  Biso   1.000  O
  O38      1.0000 0.81680  0.83640  0.15060  Biso   1.000  O
  O39      1.0000 0.68320  0.33640  0.34940  Biso   1.000  O
  O40      1.0000 0.31680  0.33640  0.15060  Biso   1.000  O
  O41      1.0000 0.11180  0.33540  0.05720  Biso   1.000  O
  O42      1.0000 0.88820  0.33540  0.44280  Biso   1.000  O
  O43      1.0000 0.61180  0.83540  0.05720  Biso   1.000  O
  O44      1.0000 0.38820  0.83540  0.44280  Biso   1.000  O
  O45      1.0000 0.88820  0.66460  0.94280  Biso   1.000  O
  O46      1.0000 0.11180  0.66460  0.55720  Biso   1.000  O
  O47      1.0000 0.38820  0.16460  0.94280  Biso   1.000  O
  O48      1.0000 0.61180  0.16460  0.55720  Biso   1.000  O
  O49      1.0000 0.17470  0.49070  0.87000  Biso   1.000  O
  O50      1.0000 0.82530  0.49070  0.63000  Biso   1.000  O
  O51      1.0000 0.67470  0.99070  0.87000  Biso   1.000  O
  O52      1.0000 0.32530  0.99070  0.63000  Biso   1.000  O
  O53      1.0000 0.82530  0.50930  0.13000  Biso   1.000  O
  O54      1.0000 0.17470  0.50930  0.37000  Biso   1.000  O
  O55      1.0000 0.32530  0.00930  0.13000  Biso   1.000  O
  O56      1.0000 0.67470  0.00930  0.37000  Biso   1.000  O
  O57      1.0000 0.13480  0.26041  0.92940  Biso   1.000  O
  O58      1.0000 0.86520  0.26041  0.57060  Biso   1.000  O
  O59      1.0000 0.63480  0.76041  0.92940  Biso   1.000  O
  O60      1.0000 0.36520  0.76041  0.57060  Biso   1.000  O
  O61      1.0000 0.86520  0.73959  0.07060  Biso   1.000  O
  O62      1.0000 0.13480  0.73959  0.42940  Biso   1.000  O
  O63      1.0000 0.36520  0.23959  0.07060  Biso   1.000  O
  O64      1.0000 0.63480  0.23959  0.42940  Biso   1.000  O
  O65      1.0000 0.91510  0.16600  0.94900  Biso   1.000  O
  O66      1.0000 0.08490  0.16600  0.55100  Biso   1.000  O
  O67      1.0000 0.41510  0.66600  0.94900  Biso   1.000  O
  O68      1.0000 0.58490  0.66600  0.55100  Biso   1.000  O
  O69      1.0000 0.08490  0.83400  0.05100  Biso   1.000  O
  O70      1.0000 0.91510  0.83400  0.44900  Biso   1.000  O
  O71      1.0000 0.58490  0.33400  0.05100  Biso   1.000  O
  O72      1.0000 0.41510  0.33400  0.44900  Biso   1.000  O
  O73      1.0000 0.12270  0.37746  0.89870  Biso   1.000  O
  O74      1.0000 0.87730  0.37746  0.60130  Biso   1.000  O
  O75      1.0000 0.62270  0.87746  0.89870  Biso   1.000  O
  O76      1.0000 0.37730  0.87746  0.60130  Biso   1.000  O
  O77      1.0000 0.87730  0.62254  0.10130  Biso   1.000  O
  O78      1.0000 0.12270  0.62254  0.39870  Biso   1.000  O
  O79      1.0000 0.37730  0.12254  0.10130  Biso   1.000  O
  O80      1.0000 0.62270  0.12254  0.39870  Biso   1.000  O
  O81      1.0000 0.00530  0.26189  0.97750  Biso   1.000  O
  O82      1.0000 0.99470  0.26189  0.52250  Biso   1.000  O
  O83      1.0000 0.50530  0.76189  0.97750  Biso   1.000  O
  O84      1.0000 0.49470  0.76189  0.52250  Biso   1.000  O
  O85      1.0000 0.99470  0.73811  0.02250  Biso   1.000  O
  O86      1.0000 0.00530  0.73811  0.47750  Biso   1.000  O
  O87      1.0000 0.49470  0.23811  0.02250  Biso   1.000  O
  O88      1.0000 0.50530  0.23811  0.47750  Biso   1.000  O
  O89      1.0000 0.88250  0.27685  0.87820  Biso   1.000  O
  O90      1.0000 0.11750  0.27685  0.62180  Biso   1.000  O
  O91      1.0000 0.38250  0.77685  0.87820  Biso   1.000  O
  O92      1.0000 0.61750  0.77685  0.62180  Biso   1.000  O
  O93      1.0000 0.11750  0.72315  0.12180  Biso   1.000  O
  O94      1.0000 0.88250  0.72315  0.37820  Biso   1.000  O
  O95      1.0000 0.61750  0.22315  0.12180  Biso   1.000  O
  O96      1.0000 0.38250  0.22315  0.37820  Biso   1.000  O
  O97      1.0000 0.06860  0.48710  0.54190  Biso   1.000  O
  O98      1.0000 0.93140  0.48710  0.95810  Biso   1.000  O
  O99      1.0000 0.56860  0.98710  0.54190  Biso   1.000  O
  O100     1.0000 0.43140  0.98710  0.95810  Biso   1.000  O
  O101     1.0000 0.93140  0.51290  0.45810  Biso   1.000  O
  O102     1.0000 0.06860  0.51290  0.04190  Biso   1.000  O
  O103     1.0000 0.43140  0.01290  0.45810  Biso   1.000  O
  O104     1.0000 0.56860  0.01290  0.04190  Biso   1.000  O
  O105     1.0000 0.91990  0.19466  0.78020  Biso   1.000  O
  O106     1.0000 0.08010  0.19466  0.71980  Biso   1.000  O
  O107     1.0000 0.41990  0.69466  0.78020  Biso   1.000  O
  O108     1.0000 0.58010  0.69466  0.71980  Biso   1.000  O
  O109     1.0000 0.08010  0.80534  0.21980  Biso   1.000  O
  O110     1.0000 0.91990  0.80534  0.28020  Biso   1.000  O
  O111     1.0000 0.58010  0.30534  0.21980  Biso   1.000  O
  O112     1.0000 0.41990  0.30534  0.28020  Biso   1.000  O
  O113     1.0000 0.10360  0.47535  0.71200  Biso   1.000  O
  O114     1.0000 0.89640  0.47535  0.78800  Biso   1.000  O
  O115     1.0000 0.60360  0.97535  0.71200  Biso   1.000  O
  O116     1.0000 0.39640  0.97535  0.78800  Biso   1.000  O
  O117     1.0000 0.89640  0.52465  0.28800  Biso   1.000  O
  O118     1.0000 0.10360  0.52465  0.21200  Biso   1.000  O
  O119     1.0000 0.39640  0.02465  0.28800  Biso   1.000  O
  O120     1.0000 0.60360  0.02465  0.21200  Biso   1.000  O
  O121     1.0000 0.99580  0.37730  0.94820  Biso   1.000  O
  O122     1.0000 0.00420  0.37730  0.55180  Biso   1.000  O
  O123     1.0000 0.49580  0.87730  0.94820  Biso   1.000  O
  O124     1.0000 0.50420  0.87730  0.55180  Biso   1.000  O
  O125     1.0000 0.00420  0.62270  0.05180  Biso   1.000  O
  O126     1.0000 0.99580  0.62270  0.44820  Biso   1.000  O
  O127     1.0000 0.50420  0.12270  0.05180  Biso   1.000  O
  O128     1.0000 0.49580  0.12270  0.44820  Biso   1.000  O
  O129     1.0000 0.02487  0.28803  0.82450  Biso   1.000  O
  O130     1.0000 0.97513  0.28803  0.67550  Biso   1.000  O
  O131     1.0000 0.52487  0.78803  0.82450  Biso   1.000  O
  O132     1.0000 0.47513  0.78803  0.67550  Biso   1.000  O
  O133     1.0000 0.97513  0.71197  0.17550  Biso   1.000  O
  O134     1.0000 0.02487  0.71197  0.32450  Biso   1.000  O
  O135     1.0000 0.47513  0.21197  0.17550  Biso   1.000  O
  O136     1.0000 0.52487  0.21197  0.32450  Biso   1.000  O
  O137     1.0000 0.04140  0.17943  0.87510  Biso   1.000  O
  O138     1.0000 0.95860  0.17943  0.62490  Biso   1.000  O
  O139     1.0000 0.54140  0.67943  0.87510  Biso   1.000  O
  O140     1.0000 0.45860  0.67943  0.62490  Biso   1.000  O
  O141     1.0000 0.95860  0.82057  0.12490  Biso   1.000  O
  O142     1.0000 0.04140  0.82057  0.37510  Biso   1.000  O
  O143     1.0000 0.45860  0.32057  0.12490  Biso   1.000  O
  O144     1.0000 0.54140  0.32057  0.37510  Biso   1.000  O
  O145     1.0000 0.06168  0.36594  0.72800  Biso   1.000  O
  O146     1.0000 0.93832  0.36594  0.77200  Biso   1.000  O
  O147     1.0000 0.56168  0.86594  0.72800  Biso   1.000  O
  O148     1.0000 0.43832  0.86594  0.77200  Biso   1.000  O
  O149     1.0000 0.93832  0.63406  0.27200  Biso   1.000  O
  O150     1.0000 0.06168  0.63406  0.22800  Biso   1.000  O
  O151     1.0000 0.43832  0.13406  0.27200  Biso   1.000  O
  O152     1.0000 0.56168  0.13406  0.22800  Biso   1.000  O
  O153     1.0000 0.83160  0.27677  0.72370  Biso   1.000  O
  O154     1.0000 0.16840  0.27677  0.77630  Biso   1.000  O
  O155     1.0000 0.33160  0.77677  0.72370  Biso   1.000  O
  O156     1.0000 0.66840  0.77677  0.77630  Biso   1.000  O
  O157     1.0000 0.16840  0.72323  0.27630  Biso   1.000  O
  O158     1.0000 0.83160  0.72323  0.22370  Biso   1.000  O
  O159     1.0000 0.66840  0.22323  0.27630  Biso   1.000  O
  O160     1.0000 0.33160  0.22323  0.22370  Biso   1.000  O
  N1       1.0000 0.86860  0.08100  0.11270  Biso   1.000  N
  N2       1.0000 0.13140  0.08100  0.38730  Biso   1.000  N
  N3       1.0000 0.36860  0.58100  0.11270  Biso   1.000  N
  N4       1.0000 0.63140  0.58100  0.38730  Biso   1.000  N
  N5       1.0000 0.13140  0.91900  0.88730  Biso   1.000  N
  N6       1.0000 0.86860  0.91900  0.61270  Biso   1.000  N
  N7       1.0000 0.63140  0.41900  0.88730  Biso   1.000  N
  N8       1.0000 0.36860  0.41900  0.61270  Biso   1.000  N
  N9       1.0000 0.88200  0.05130  0.18360  Biso   1.000  N
  N10      1.0000 0.11800  0.05130  0.31640  Biso   1.000  N
  N11      1.0000 0.38200  0.55130  0.18360  Biso   1.000  N
  N12      1.0000 0.61800  0.55130  0.31640  Biso   1.000  N
  N13      1.0000 0.11800  0.94870  0.81640  Biso   1.000  N
  N14      1.0000 0.88200  0.94870  0.68360  Biso   1.000  N
  N15      1.0000 0.61800  0.44870  0.81640  Biso   1.000  N
  N16      1.0000 0.38200  0.44870  0.68360  Biso   1.000  N
  N17      1.0000 0.79290  0.01280  0.11150  Biso   1.000  N
  N18      1.0000 0.20710  0.01280  0.38850  Biso   1.000  N
  N19      1.0000 0.29290  0.51280  0.11150  Biso   1.000  N
  N20      1.0000 0.70710  0.51280  0.38850  Biso   1.000  N
  N21      1.0000 0.20710  0.98720  0.88850  Biso   1.000  N
  N22      1.0000 0.79290  0.98720  0.61150  Biso   1.000  N
  N23      1.0000 0.70710  0.48720  0.88850  Biso   1.000  N
  N24      1.0000 0.29290  0.48720  0.61150  Biso   1.000  N
  N25      1.0000 0.81430  0.05880  0.06730  Biso   1.000  N
  N26      1.0000 0.18570  0.05880  0.43270  Biso   1.000  N
  N27      1.0000 0.31430  0.55880  0.06730  Biso   1.000  N
  N28      1.0000 0.68570  0.55880  0.43270  Biso   1.000  N
  N29      1.0000 0.18570  0.94120  0.93270  Biso   1.000  N
  N30      1.0000 0.81430  0.94120  0.56730  Biso   1.000  N
  N31      1.0000 0.68570  0.44120  0.93270  Biso   1.000  N
  N32      1.0000 0.31430  0.44120  0.56730  Biso   1.000  N
  N33      1.0000 0.96920  0.15520  0.38780  Biso   1.000  N
  N34      1.0000 0.03080  0.15520  0.11220  Biso   1.000  N
  N35      1.0000 0.46920  0.65520  0.38780  Biso   1.000  N
  N36      1.0000 0.53080  0.65520  0.11220  Biso   1.000  N
  N37      1.0000 0.03080  0.84480  0.61220  Biso   1.000  N
  N38      1.0000 0.96920  0.84480  0.88780  Biso   1.000  N
  N39      1.0000 0.53080  0.34480  0.61220  Biso   1.000  N
  N40      1.0000 0.46920  0.34480  0.88780  Biso   1.000  N
  N41      1.0000 0.94250  0.19810  0.33460  Biso   1.000  N
  N42      1.0000 0.05750  0.19810  0.16540  Biso   1.000  N
  N43      1.0000 0.44250  0.69810  0.33460  Biso   1.000  N
  N44      1.0000 0.55750  0.69810  0.16540  Biso   1.000  N
  N45      1.0000 0.05750  0.80190  0.66540  Biso   1.000  N
  N46      1.0000 0.94250  0.80190  0.83460  Biso   1.000  N
  N47      1.0000 0.55750  0.30190  0.66540  Biso   1.000  N
  N48      1.0000 0.44250  0.30190  0.83460  Biso   1.000  N
  N49      1.0000 0.87620  0.20730  0.34350  Biso   1.000  N
  N50      1.0000 0.12380  0.20730  0.15650  Biso   1.000  N
  N51      1.0000 0.37620  0.70730  0.34350  Biso   1.000  N
  N52      1.0000 0.62380  0.70730  0.15650  Biso   1.000  N
  N53      1.0000 0.12380  0.79270  0.65650  Biso   1.000  N
  N54      1.0000 0.87620  0.79270  0.84350  Biso   1.000  N
  N55      1.0000 0.62380  0.29270  0.65650  Biso   1.000  N
  N56      1.0000 0.37620  0.29270  0.84350  Biso   1.000  N
  N57      1.0000 0.85900  0.17100  0.40310  Biso   1.000  N
  N58      1.0000 0.14100  0.17100  0.09690  Biso   1.000  N
  N59      1.0000 0.35900  0.67100  0.40310  Biso   1.000  N
  N60      1.0000 0.64100  0.67100  0.09690  Biso   1.000  N
  N61      1.0000 0.14100  0.82900  0.59690  Biso   1.000  N
  N62      1.0000 0.85900  0.82900  0.90310  Biso   1.000  N
  N63      1.0000 0.64100  0.32900  0.59690  Biso   1.000  N
  N64      1.0000 0.35900  0.32900  0.90310  Biso   1.000  N
  N65      1.0000 0.91510  0.27130  0.17120  Biso   1.000  N
  N66      1.0000 0.08490  0.27130  0.32880  Biso   1.000  N
  N67      1.0000 0.41510  0.77130  0.17120  Biso   1.000  N
  N68      1.0000 0.58490  0.77130  0.32880  Biso   1.000  N
  N69      1.0000 0.08490  0.72870  0.82880  Biso   1.000  N
  N70      1.0000 0.91510  0.72870  0.67120  Biso   1.000  N
  N71      1.0000 0.58490  0.22870  0.82880  Biso   1.000  N
  N72      1.0000 0.41510  0.22870  0.67120  Biso   1.000  N
  N73      1.0000 0.89210  0.23460  0.10760  Biso   1.000  N
  N74      1.0000 0.10790  0.23460  0.39240  Biso   1.000  N
  N75      1.0000 0.39210  0.73460  0.10760  Biso   1.000  N
  N76      1.0000 0.60790  0.73460  0.39240  Biso   1.000  N
  N77      1.0000 0.10790  0.76540  0.89240  Biso   1.000  N
  N78      1.0000 0.89210  0.76540  0.60760  Biso   1.000  N
  N79      1.0000 0.60790  0.26540  0.89240  Biso   1.000  N
  N80      1.0000 0.39210  0.26540  0.60760  Biso   1.000  N
  N81      1.0000 0.83800  0.25680  0.06320  Biso   1.000  N
  N82      1.0000 0.16200  0.25680  0.43680  Biso   1.000  N
  N83      1.0000 0.33800  0.75680  0.06320  Biso   1.000  N
  N84      1.0000 0.66200  0.75680  0.43680  Biso   1.000  N
  N85      1.0000 0.16200  0.74320  0.93680  Biso   1.000  N
  N86      1.0000 0.83800  0.74320  0.56320  Biso   1.000  N
  N87      1.0000 0.66200  0.24320  0.93680  Biso   1.000  N
  N88      1.0000 0.33800  0.24320  0.56320  Biso   1.000  N
  N89      1.0000 0.82470  0.30810  0.09790  Biso   1.000  N
  N90      1.0000 0.17530  0.30810  0.40210  Biso   1.000  N
  N91      1.0000 0.32470  0.80810  0.09790  Biso   1.000  N
  N92      1.0000 0.67530  0.80810  0.40210  Biso   1.000  N
  N93      1.0000 0.17530  0.69190  0.90210  Biso   1.000  N
  N94      1.0000 0.82470  0.69190  0.59790  Biso   1.000  N
  N95      1.0000 0.67530  0.19190  0.90210  Biso   1.000  N
  N96      1.0000 0.32470  0.19190  0.59790  Biso   1.000  N
  C1       1.0000 0.73340  0.97520  0.07870  Biso   1.000  C
  C2       1.0000 0.26660  0.97520  0.42130  Biso   1.000  C
  C3       1.0000 0.23340  0.47520  0.07870  Biso   1.000  C
  C4       1.0000 0.76660  0.47520  0.42130  Biso   1.000  C
  C5       1.0000 0.26660  0.02480  0.92130  Biso   1.000  C
  C6       1.0000 0.73340  0.02480  0.57870  Biso   1.000  C
  C7       1.0000 0.76660  0.52480  0.92130  Biso   1.000  C
  C8       1.0000 0.23340  0.52480  0.57870  Biso   1.000  C
  H1       1.0000 0.72570  0.94490  0.11820  Biso   1.000  H
  H2       1.0000 0.27430  0.94490  0.38180  Biso   1.000  H
  H3       1.0000 0.22570  0.44490  0.11820  Biso   1.000  H
  H4       1.0000 0.77430  0.44490  0.38180  Biso   1.000  H
  H5       1.0000 0.27430  0.05510  0.88180  Biso   1.000  H
  H6       1.0000 0.72570  0.05510  0.61820  Biso   1.000  H
  H7       1.0000 0.77430  0.55510  0.88180  Biso   1.000  H
  H8       1.0000 0.22570  0.55510  0.61820  Biso   1.000  H
  H9       1.0000 0.74430  0.95740  0.02770  Biso   1.000  H
  H10      1.0000 0.25570  0.95740  0.47230  Biso   1.000  H
  H11      1.0000 0.24430  0.45740  0.02770  Biso   1.000  H
  H12      1.0000 0.75570  0.45740  0.47230  Biso   1.000  H
  H13      1.0000 0.25570  0.04260  0.97230  Biso   1.000  H
  H14      1.0000 0.74430  0.04260  0.52770  Biso   1.000  H
  H15      1.0000 0.75570  0.54260  0.97230  Biso   1.000  H
  H16      1.0000 0.24430  0.54260  0.52770  Biso   1.000  H
  H17      1.0000 0.69110  0.99880  0.06860  Biso   1.000  H
  H18      1.0000 0.30890  0.99880  0.43140  Biso   1.000  H
  H19      1.0000 0.19110  0.49880  0.06860  Biso   1.000  H
  H20      1.0000 0.80890  0.49880  0.43140  Biso   1.000  H
  H21      1.0000 0.30890  0.00120  0.93140  Biso   1.000  H
  H22      1.0000 0.69110  0.00120  0.56860  Biso   1.000  H
  H23      1.0000 0.80890  0.50120  0.93140  Biso   1.000  H
  H24      1.0000 0.19110  0.50120  0.56860  Biso   1.000  H
  C9       1.0000 0.78810  0.17140  0.43050  Biso   1.000  C
  C10      1.0000 0.21190  0.17140  0.06950  Biso   1.000  C
  C11      1.0000 0.28810  0.67140  0.43050  Biso   1.000  C
  C12      1.0000 0.71190  0.67140  0.06950  Biso   1.000  C
  C13      1.0000 0.21190  0.82860  0.56950  Biso   1.000  C
  C14      1.0000 0.78810  0.82860  0.93050  Biso   1.000  C
  C15      1.0000 0.71190  0.32860  0.56950  Biso   1.000  C
  C16      1.0000 0.28810  0.32860  0.93050  Biso   1.000  C
  H25      1.0000 0.75930  0.20030  0.39940  Biso   1.000  H
  H26      1.0000 0.24070  0.20030  0.10060  Biso   1.000  H
  H27      1.0000 0.25930  0.70030  0.39940  Biso   1.000  H
  H28      1.0000 0.74070  0.70030  0.10060  Biso   1.000  H
  H29      1.0000 0.24070  0.79970  0.60060  Biso   1.000  H
  H30      1.0000 0.75930  0.79970  0.89940  Biso   1.000  H
  H31      1.0000 0.74070  0.29970  0.60060  Biso   1.000  H
  H32      1.0000 0.25930  0.29970  0.89940  Biso   1.000  H
  H33      1.0000 0.79110  0.18110  0.48840  Biso   1.000  H
  H34      1.0000 0.20890  0.18110  0.01160  Biso   1.000  H
  H35      1.0000 0.29110  0.68110  0.48840  Biso   1.000  H
  H36      1.0000 0.70890  0.68110  0.01160  Biso   1.000  H
  H37      1.0000 0.20890  0.81890  0.51160  Biso   1.000  H
  H38      1.0000 0.79110  0.81890  0.98840  Biso   1.000  H
  H39      1.0000 0.70890  0.31890  0.51160  Biso   1.000  H
  H40      1.0000 0.29110  0.31890  0.98840  Biso   1.000  H
  H41      1.0000 0.76680  0.13310  0.42180  Biso   1.000  H
  H42      1.0000 0.23320  0.13310  0.07820  Biso   1.000  H
  H43      1.0000 0.26680  0.63310  0.42180  Biso   1.000  H
  H44      1.0000 0.73320  0.63310  0.07820  Biso   1.000  H
  H45      1.0000 0.23320  0.86690  0.57820  Biso   1.000  H
  H46      1.0000 0.76680  0.86690  0.92180  Biso   1.000  H
  H47      1.0000 0.73320  0.36690  0.57820  Biso   1.000  H
  H48      1.0000 0.26680  0.36690  0.92180  Biso   1.000  H
  C17      1.0000 0.83340  0.00940  0.18200  Biso   1.000  C
  C18      1.0000 0.16660  0.00940  0.31800  Biso   1.000  C
  C19      1.0000 0.33340  0.50940  0.18200  Biso   1.000  C
  C20      1.0000 0.66660  0.50940  0.31800  Biso   1.000  C
  C21      1.0000 0.16660  0.99060  0.81800  Biso   1.000  C
  C22      1.0000 0.83340  0.99060  0.68200  Biso   1.000  C
  C23      1.0000 0.66660  0.49060  0.81800  Biso   1.000  C
  C24      1.0000 0.33340  0.49060  0.68200  Biso   1.000  C
  C25      1.0000 0.91610  0.13790  0.42960  Biso   1.000  C
  C26      1.0000 0.08390  0.13790  0.07040  Biso   1.000  C
  C27      1.0000 0.41610  0.63790  0.42960  Biso   1.000  C
  C28      1.0000 0.58390  0.63790  0.07040  Biso   1.000  C
  C29      1.0000 0.08390  0.86210  0.57040  Biso   1.000  C
  C30      1.0000 0.91610  0.86210  0.92960  Biso   1.000  C
  C31      1.0000 0.58390  0.36210  0.57040  Biso   1.000  C
  C32      1.0000 0.41610  0.36210  0.92960  Biso   1.000  C
  C33      1.0000 0.76540  0.34620  0.06240  Biso   1.000  C
  C34      1.0000 0.23460  0.34620  0.43760  Biso   1.000  C
  C35      1.0000 0.26540  0.84620  0.06240  Biso   1.000  C
  C36      1.0000 0.73460  0.84620  0.43760  Biso   1.000  C
  C37      1.0000 0.23460  0.65380  0.93760  Biso   1.000  C
  C38      1.0000 0.76540  0.65380  0.56240  Biso   1.000  C
  C39      1.0000 0.73460  0.15380  0.93760  Biso   1.000  C
  C40      1.0000 0.26540  0.15380  0.56240  Biso   1.000  C
  H49      1.0000 0.74170  0.32760  0.01400  Biso   1.000  H
  H50      1.0000 0.25830  0.32760  0.48600  Biso   1.000  H
  H51      1.0000 0.24170  0.82760  0.01400  Biso   1.000  H
  H52      1.0000 0.75830  0.82760  0.48600  Biso   1.000  H
  H53      1.0000 0.25830  0.67240  0.98600  Biso   1.000  H
  H54      1.0000 0.74170  0.67240  0.51400  Biso   1.000  H
  H55      1.0000 0.75830  0.17240  0.98600  Biso   1.000  H
  H56      1.0000 0.24170  0.17240  0.51400  Biso   1.000  H
  H57      1.0000 0.78400  0.38380  0.04730  Biso   1.000  H
  H58      1.0000 0.21600  0.38380  0.45270  Biso   1.000  H
  H59      1.0000 0.28400  0.88380  0.04730  Biso   1.000  H
  H60      1.0000 0.71600  0.88380  0.45270  Biso   1.000  H
  H61      1.0000 0.21600  0.61620  0.95270  Biso   1.000  H
  H62      1.0000 0.78400  0.61620  0.54730  Biso   1.000  H
  H63      1.0000 0.71600  0.11620  0.95270  Biso   1.000  H
  H64      1.0000 0.28400  0.11620  0.54730  Biso   1.000  H
  H65      1.0000 0.73210  0.35200  0.10280  Biso   1.000  H
  H66      1.0000 0.26790  0.35200  0.39720  Biso   1.000  H
  H67      1.0000 0.23210  0.85200  0.10280  Biso   1.000  H
  H68      1.0000 0.76790  0.85200  0.39720  Biso   1.000  H
  H69      1.0000 0.26790  0.64800  0.89720  Biso   1.000  H
  H70      1.0000 0.73210  0.64800  0.60280  Biso   1.000  H
  H71      1.0000 0.76790  0.14800  0.89720  Biso   1.000  H
  H72      1.0000 0.23210  0.14800  0.60280  Biso   1.000  H
  C41      1.0000 0.87100  0.31710  0.16510  Biso   1.000  C
  C42      1.0000 0.12900  0.31710  0.33490  Biso   1.000  C
  C43      1.0000 0.37100  0.81710  0.16510  Biso   1.000  C
  C44      1.0000 0.62900  0.81710  0.33490  Biso   1.000  C
  C45      1.0000 0.12900  0.68290  0.83490  Biso   1.000  C
  C46      1.0000 0.87100  0.68290  0.66510  Biso   1.000  C
  C47      1.0000 0.62900  0.18290  0.83490  Biso   1.000  C
  C48      1.0000 0.37100  0.18290  0.66510  Biso   1.000  C
  C49      1.0000 0.94600  0.38140  0.28720  Biso   1.000  C
  C50      1.0000 0.05400  0.38140  0.21280  Biso   1.000  C
  C51      1.0000 0.44600  0.88140  0.28720  Biso   1.000  C
  C52      1.0000 0.55400  0.88140  0.21280  Biso   1.000  C
  C53      1.0000 0.05400  0.61860  0.71280  Biso   1.000  C
  C54      1.0000 0.94600  0.61860  0.78720  Biso   1.000  C
  C55      1.0000 0.55400  0.11860  0.71280  Biso   1.000  C
  C56      1.0000 0.44600  0.11860  0.78720  Biso   1.000  C
  C57      1.0000 0.00950  0.40550  0.28930  Biso   1.000  C
  C58      1.0000 0.99050  0.40550  0.21070  Biso   1.000  C
  C59      1.0000 0.50950  0.90550  0.28930  Biso   1.000  C
  C60      1.0000 0.49050  0.90550  0.21070  Biso   1.000  C
  C61      1.0000 0.99050  0.59450  0.71070  Biso   1.000  C
  C62      1.0000 0.00950  0.59450  0.78930  Biso   1.000  C
  C63      1.0000 0.49050  0.09450  0.71070  Biso   1.000  C
  C64      1.0000 0.50950  0.09450  0.78930  Biso   1.000  C
  C65      1.0000 0.90720  0.95740  0.31300  Biso   1.000  C
  C66      1.0000 0.09280  0.95740  0.18700  Biso   1.000  C
  C67      1.0000 0.40720  0.45740  0.31300  Biso   1.000  C
  C68      1.0000 0.59280  0.45740  0.18700  Biso   1.000  C
  C69      1.0000 0.09280  0.04260  0.68700  Biso   1.000  C
  C70      1.0000 0.90720  0.04260  0.81300  Biso   1.000  C
  C71      1.0000 0.59280  0.54260  0.68700  Biso   1.000  C
  C72      1.0000 0.40720  0.54260  0.81300  Biso   1.000  C
  H73      1.0000 0.90880  0.92350  0.34980  Biso   1.000  H
  H74      1.0000 0.09120  0.92350  0.15020  Biso   1.000  H
  H75      1.0000 0.40880  0.42350  0.34980  Biso   1.000  H
  H76      1.0000 0.59120  0.42350  0.15020  Biso   1.000  H
  H77      1.0000 0.09120  0.07650  0.65020  Biso   1.000  H
  H78      1.0000 0.90880  0.07650  0.84980  Biso   1.000  H
  H79      1.0000 0.59120  0.57650  0.65020  Biso   1.000  H
  H80      1.0000 0.40880  0.57650  0.84980  Biso   1.000  H
  H81      1.0000 0.94110  0.94960  0.27310  Biso   1.000  H
  H82      1.0000 0.05890  0.94960  0.22690  Biso   1.000  H
  H83      1.0000 0.44110  0.44960  0.27310  Biso   1.000  H
  H84      1.0000 0.55890  0.44960  0.22690  Biso   1.000  H
  H85      1.0000 0.05890  0.05040  0.72690  Biso   1.000  H
  H86      1.0000 0.94110  0.05040  0.77310  Biso   1.000  H
  H87      1.0000 0.55890  0.55040  0.72690  Biso   1.000  H
  H88      1.0000 0.44110  0.55040  0.77310  Biso   1.000  H
  C73      1.0000 0.89850  0.02010  0.42700  Biso   1.000  C
  C74      1.0000 0.10150  0.02010  0.07300  Biso   1.000  C
  C75      1.0000 0.39850  0.52010  0.42700  Biso   1.000  C
  C76      1.0000 0.60150  0.52010  0.07300  Biso   1.000  C
  C77      1.0000 0.10150  0.97990  0.57300  Biso   1.000  C
  C78      1.0000 0.89850  0.97990  0.92700  Biso   1.000  C
  C79      1.0000 0.60150  0.47990  0.57300  Biso   1.000  C
  C80      1.0000 0.39850  0.47990  0.92700  Biso   1.000  C
  H89      1.0000 0.89840  0.98420  0.45970  Biso   1.000  H
  H90      1.0000 0.10160  0.98420  0.04030  Biso   1.000  H
  H91      1.0000 0.39840  0.48420  0.45970  Biso   1.000  H
  H92      1.0000 0.60160  0.48420  0.04030  Biso   1.000  H
  H93      1.0000 0.10160  0.01580  0.54030  Biso   1.000  H
  H94      1.0000 0.89840  0.01580  0.95970  Biso   1.000  H
  H95      1.0000 0.60160  0.51580  0.54030  Biso   1.000  H
  H96      1.0000 0.39840  0.51580  0.95970  Biso   1.000  H
  H97      1.0000 0.84990  0.02610  0.40280  Biso   1.000  H
  H98      1.0000 0.15010  0.02610  0.09720  Biso   1.000  H
  H99      1.0000 0.34990  0.52610  0.40280  Biso   1.000  H
  H100     1.0000 0.65010  0.52610  0.09720  Biso   1.000  H
  H101     1.0000 0.15010  0.97390  0.59720  Biso   1.000  H
  H102     1.0000 0.84990  0.97390  0.90280  Biso   1.000  H
  H103     1.0000 0.65010  0.47390  0.59720  Biso   1.000  H
  H104     1.0000 0.34990  0.47390  0.90280  Biso   1.000  H
  C81      1.0000 0.93660  0.00830  0.36450  Biso   1.000  C
  C82      1.0000 0.06340  0.00830  0.13550  Biso   1.000  C
  C83      1.0000 0.43660  0.50830  0.36450  Biso   1.000  C
  C84      1.0000 0.56340  0.50830  0.13550  Biso   1.000  C
  C85      1.0000 0.06340  0.99170  0.63550  Biso   1.000  C
  C86      1.0000 0.93660  0.99170  0.86450  Biso   1.000  C
  C87      1.0000 0.56340  0.49170  0.63550  Biso   1.000  C
  C88      1.0000 0.43660  0.49170  0.86450  Biso   1.000  C
  H105     1.0000 0.98520  0.99940  0.38620  Biso   1.000  H
  H106     1.0000 0.01480  0.99940  0.11380  Biso   1.000  H
  H107     1.0000 0.48520  0.49940  0.38620  Biso   1.000  H
  H108     1.0000 0.51480  0.49940  0.11380  Biso   1.000  H
  H109     1.0000 0.01480  0.00060  0.61380  Biso   1.000  H
  H110     1.0000 0.98520  0.00060  0.88620  Biso   1.000  H
  H111     1.0000 0.51480  0.50060  0.61380  Biso   1.000  H
  H112     1.0000 0.48520  0.50060  0.88620  Biso   1.000  H
  H113     1.0000 0.93770  0.04300  0.32950  Biso   1.000  H
  H114     1.0000 0.06230  0.04300  0.17050  Biso   1.000  H
  H115     1.0000 0.43770  0.54300  0.32950  Biso   1.000  H
  H116     1.0000 0.56230  0.54300  0.17050  Biso   1.000  H
  H117     1.0000 0.06230  0.95700  0.67050  Biso   1.000  H
  H118     1.0000 0.93770  0.95700  0.82950  Biso   1.000  H
  H119     1.0000 0.56230  0.45700  0.67050  Biso   1.000  H
  H120     1.0000 0.43770  0.45700  0.82950  Biso   1.000  H
