data_image0
_cell_length_a       18.888
_cell_length_b       22.612
_cell_length_c       16.303
_cell_angle_alpha    90
_cell_angle_beta     95.871
_cell_angle_gamma    90

_symmetry_space_group_name_H-M    "P 1"
_symmetry_int_tables_number       1

loop_
  _symmetry_equiv_pos_as_xyz
  'x, y, z'

loop_
  _atom_site_label
  _atom_site_occupancy
  _atom_site_fract_x
  _atom_site_fract_y
  _atom_site_fract_z
  _atom_site_thermal_displace_type
  _atom_site_B_iso_or_equiv
  _atom_site_type_symbol
  Cu1      1.0000 0.50000  0.23976  0.25000  Biso   1.000  Cu
  Cu2      1.0000 0.00000  0.73976  0.25000  Biso   1.000  Cu
  Cu3      1.0000 0.50000  0.76024  0.75000  Biso   1.000  Cu
  Cu4      1.0000 0.00000  0.26024  0.75000  Biso   1.000  Cu
  Cu5      1.0000 0.42458  0.14929  0.08943  Biso   1.000  Cu
  Cu6      1.0000 0.57542  0.14929  0.41057  Biso   1.000  Cu
  Cu7      1.0000 0.92458  0.64929  0.08943  Biso   1.000  Cu
  Cu8      1.0000 0.07542  0.64929  0.41057  Biso   1.000  Cu
  Cu9      1.0000 0.57542  0.85071  0.91057  Biso   1.000  Cu
  Cu10     1.0000 0.42458  0.85071  0.58943  Biso   1.000  Cu
  Cu11     1.0000 0.07542  0.35071  0.91057  Biso   1.000  Cu
  Cu12     1.0000 0.92458  0.35071  0.58943  Biso   1.000  Cu
  P1       1.0000 0.50000  0.32815  0.75000  Biso   1.000  P
  P2       1.0000 0.00000  0.82815  0.75000  Biso   1.000  P
  P3       1.0000 0.50000  0.67185  0.25000  Biso   1.000  P
  P4       1.0000 0.00000  0.17185  0.25000  Biso   1.000  P
  W1       1.0000 0.32445  0.33289  0.81103  Biso   1.000  W
  W2       1.0000 0.67555  0.33289  0.68897  Biso   1.000  W
  W3       1.0000 0.82445  0.83289  0.81103  Biso   1.000  W
  W4       1.0000 0.17555  0.83289  0.68897  Biso   1.000  W
  W5       1.0000 0.67555  0.66711  0.18897  Biso   1.000  W
  W6       1.0000 0.32445  0.66711  0.31103  Biso   1.000  W
  W7       1.0000 0.17555  0.16711  0.18897  Biso   1.000  W
  W8       1.0000 0.82445  0.16711  0.31103  Biso   1.000  W
  W9       1.0000 0.44349  0.43941  0.88395  Biso   1.000  W
  W10      1.0000 0.55651  0.43941  0.61605  Biso   1.000  W
  W11      1.0000 0.94349  0.93941  0.88395  Biso   1.000  W
  W12      1.0000 0.05651  0.93941  0.61605  Biso   1.000  W
  W13      1.0000 0.55651  0.56059  0.11605  Biso   1.000  W
  W14      1.0000 0.44349  0.56059  0.38395  Biso   1.000  W
  W15      1.0000 0.05651  0.06059  0.11605  Biso   1.000  W
  W16      1.0000 0.94349  0.06059  0.38395  Biso   1.000  W
  W17      1.0000 0.45234  0.21723  0.88908  Biso   1.000  W
  W18      1.0000 0.54766  0.21723  0.61092  Biso   1.000  W
  W19      1.0000 0.95234  0.71723  0.88908  Biso   1.000  W
  W20      1.0000 0.04766  0.71723  0.61092  Biso   1.000  W
  W21      1.0000 0.54766  0.78277  0.11092  Biso   1.000  W
  W22      1.0000 0.45234  0.78277  0.38908  Biso   1.000  W
  W23      1.0000 0.04766  0.28277  0.11092  Biso   1.000  W
  W24      1.0000 0.95234  0.28277  0.38908  Biso   1.000  W
  W25      1.0000 0.62153  0.21685  0.82953  Biso   1.000  W
  W26      1.0000 0.37847  0.21685  0.67047  Biso   1.000  W
  W27      1.0000 0.12153  0.71685  0.82953  Biso   1.000  W
  W28      1.0000 0.87847  0.71685  0.67047  Biso   1.000  W
  W29      1.0000 0.37847  0.78315  0.17047  Biso   1.000  W
  W30      1.0000 0.62153  0.78315  0.32953  Biso   1.000  W
  W31      1.0000 0.87847  0.28315  0.17047  Biso   1.000  W
  W32      1.0000 0.12153  0.28315  0.32953  Biso   1.000  W
  W33      1.0000 0.57152  0.32423  0.96080  Biso   1.000  W
  W34      1.0000 0.42848  0.32423  0.53920  Biso   1.000  W
  W35      1.0000 0.07152  0.82423  0.96080  Biso   1.000  W
  W36      1.0000 0.92848  0.82423  0.53920  Biso   1.000  W
  W37      1.0000 0.42848  0.67577  0.03920  Biso   1.000  W
  W38      1.0000 0.57152  0.67577  0.46080  Biso   1.000  W
  W39      1.0000 0.92848  0.17577  0.03920  Biso   1.000  W
  W40      1.0000 0.07152  0.17577  0.46080  Biso   1.000  W
  W41      1.0000 0.37483  0.43961  0.68026  Biso   1.000  W
  W42      1.0000 0.62517  0.43961  0.81974  Biso   1.000  W
  W43      1.0000 0.87483  0.93961  0.68026  Biso   1.000  W
  W44      1.0000 0.12517  0.93961  0.81974  Biso   1.000  W
  W45      1.0000 0.62517  0.56039  0.31974  Biso   1.000  W
  W46      1.0000 0.37483  0.56039  0.18026  Biso   1.000  W
  W47      1.0000 0.12517  0.06039  0.31974  Biso   1.000  W
  W48      1.0000 0.87483  0.06039  0.18026  Biso   1.000  W
  S1       1.0000 0.63120  0.37820  0.27490  Biso   1.000  S
  S2       1.0000 0.36880  0.37820  0.22510  Biso   1.000  S
  S3       1.0000 0.13120  0.87820  0.27490  Biso   1.000  S
  S4       1.0000 0.86880  0.87820  0.22510  Biso   1.000  S
  S5       1.0000 0.36880  0.62180  0.72510  Biso   1.000  S
  S6       1.0000 0.63120  0.62180  0.77490  Biso   1.000  S
  S7       1.0000 0.86880  0.12180  0.72510  Biso   1.000  S
  S8       1.0000 0.13120  0.12180  0.77490  Biso   1.000  S
  S9       1.0000 0.58330  0.08156  0.99860  Biso   1.000  S
  S10      1.0000 0.41670  0.08156  0.50140  Biso   1.000  S
  S11      1.0000 0.08330  0.58156  0.99860  Biso   1.000  S
  S12      1.0000 0.91670  0.58156  0.50140  Biso   1.000  S
  S13      1.0000 0.41670  0.91844  0.00140  Biso   1.000  S
  S14      1.0000 0.58330  0.91844  0.49860  Biso   1.000  S
  S15      1.0000 0.91670  0.41844  0.00140  Biso   1.000  S
  S16      1.0000 0.08330  0.41844  0.49860  Biso   1.000  S
  S17      1.0000 0.67570  0.95390  0.24700  Biso   1.000  S
  S18      1.0000 0.32430  0.95390  0.25300  Biso   1.000  S
  S19      1.0000 0.17570  0.45390  0.24700  Biso   1.000  S
  S20      1.0000 0.82430  0.45390  0.25300  Biso   1.000  S
  S21      1.0000 0.32430  0.04610  0.75300  Biso   1.000  S
  S22      1.0000 0.67570  0.04610  0.74700  Biso   1.000  S
  S23      1.0000 0.82430  0.54610  0.75300  Biso   1.000  S
  S24      1.0000 0.17570  0.54610  0.74700  Biso   1.000  S
  O1       1.0000 0.24270  0.32030  0.83910  Biso   1.000  O
  O2       1.0000 0.75730  0.32030  0.66090  Biso   1.000  O
  O3       1.0000 0.74270  0.82030  0.83910  Biso   1.000  O
  O4       1.0000 0.25730  0.82030  0.66090  Biso   1.000  O
  O5       1.0000 0.75730  0.67970  0.16090  Biso   1.000  O
  O6       1.0000 0.24270  0.67970  0.33910  Biso   1.000  O
  O7       1.0000 0.25730  0.17970  0.16090  Biso   1.000  O
  O8       1.0000 0.74270  0.17970  0.33910  Biso   1.000  O
  O9       1.0000 0.43940  0.36710  0.77220  Biso   1.000  O
  O10      1.0000 0.56060  0.36710  0.72780  Biso   1.000  O
  O11      1.0000 0.93940  0.86710  0.77220  Biso   1.000  O
  O12      1.0000 0.06060  0.86710  0.72780  Biso   1.000  O
  O13      1.0000 0.56060  0.63290  0.22780  Biso   1.000  O
  O14      1.0000 0.43940  0.63290  0.27220  Biso   1.000  O
  O15      1.0000 0.06060  0.13290  0.22780  Biso   1.000  O
  O16      1.0000 0.93940  0.13290  0.27220  Biso   1.000  O
  O17      1.0000 0.38200  0.27820  0.87600  Biso   1.000  O
  O18      1.0000 0.61800  0.27820  0.62400  Biso   1.000  O
  O19      1.0000 0.88200  0.77820  0.87600  Biso   1.000  O
  O20      1.0000 0.11800  0.77820  0.62400  Biso   1.000  O
  O21      1.0000 0.61800  0.72180  0.12400  Biso   1.000  O
  O22      1.0000 0.38200  0.72180  0.37600  Biso   1.000  O
  O23      1.0000 0.11800  0.22180  0.12400  Biso   1.000  O
  O24      1.0000 0.88200  0.22180  0.37600  Biso   1.000  O
  O25      1.0000 0.52530  0.28900  0.82430  Biso   1.000  O
  O26      1.0000 0.47470  0.28900  0.67570  Biso   1.000  O
  O27      1.0000 0.02530  0.78900  0.82430  Biso   1.000  O
  O28      1.0000 0.97470  0.78900  0.67570  Biso   1.000  O
  O29      1.0000 0.47470  0.71100  0.17570  Biso   1.000  O
  O30      1.0000 0.52530  0.71100  0.32430  Biso   1.000  O
  O31      1.0000 0.97470  0.21100  0.17570  Biso   1.000  O
  O32      1.0000 0.02530  0.21100  0.32430  Biso   1.000  O
  O33      1.0000 0.41890  0.19590  0.77860  Biso   1.000  O
  O34      1.0000 0.58110  0.19590  0.72140  Biso   1.000  O
  O35      1.0000 0.91890  0.69590  0.77860  Biso   1.000  O
  O36      1.0000 0.08110  0.69590  0.72140  Biso   1.000  O
  O37      1.0000 0.58110  0.80410  0.22140  Biso   1.000  O
  O38      1.0000 0.41890  0.80410  0.27860  Biso   1.000  O
  O39      1.0000 0.08110  0.30410  0.22140  Biso   1.000  O
  O40      1.0000 0.91890  0.30410  0.27860  Biso   1.000  O
  O41      1.0000 0.33070  0.27770  0.72340  Biso   1.000  O
  O42      1.0000 0.66930  0.27770  0.77660  Biso   1.000  O
  O43      1.0000 0.83070  0.77770  0.72340  Biso   1.000  O
  O44      1.0000 0.16930  0.77770  0.77660  Biso   1.000  O
  O45      1.0000 0.66930  0.72230  0.27660  Biso   1.000  O
  O46      1.0000 0.33070  0.72230  0.22340  Biso   1.000  O
  O47      1.0000 0.16930  0.22230  0.27660  Biso   1.000  O
  O48      1.0000 0.83070  0.22230  0.22340  Biso   1.000  O
  O49      1.0000 0.50290  0.26280  0.97410  Biso   1.000  O
  O50      1.0000 0.49710  0.26280  0.52590  Biso   1.000  O
  O51      1.0000 0.00290  0.76280  0.97410  Biso   1.000  O
  O52      1.0000 0.99710  0.76280  0.52590  Biso   1.000  O
  O53      1.0000 0.49710  0.73720  0.02590  Biso   1.000  O
  O54      1.0000 0.50290  0.73720  0.47410  Biso   1.000  O
  O55      1.0000 0.99710  0.23720  0.02590  Biso   1.000  O
  O56      1.0000 0.00290  0.23720  0.47410  Biso   1.000  O
  O57      1.0000 0.39710  0.47590  0.78580  Biso   1.000  O
  O58      1.0000 0.60290  0.47590  0.71420  Biso   1.000  O
  O59      1.0000 0.89710  0.97590  0.78580  Biso   1.000  O
  O60      1.0000 0.10290  0.97590  0.71420  Biso   1.000  O
  O61      1.0000 0.60290  0.52410  0.21420  Biso   1.000  O
  O62      1.0000 0.39710  0.52410  0.28580  Biso   1.000  O
  O63      1.0000 0.10290  0.02410  0.21420  Biso   1.000  O
  O64      1.0000 0.89710  0.02410  0.28580  Biso   1.000  O
  O65      1.0000 0.30540  0.39380  0.72890  Biso   1.000  O
  O66      1.0000 0.69460  0.39380  0.77110  Biso   1.000  O
  O67      1.0000 0.80540  0.89380  0.72890  Biso   1.000  O
  O68      1.0000 0.19460  0.89380  0.77110  Biso   1.000  O
  O69      1.0000 0.69460  0.60620  0.27110  Biso   1.000  O
  O70      1.0000 0.30540  0.60620  0.22890  Biso   1.000  O
  O71      1.0000 0.19460  0.10620  0.27110  Biso   1.000  O
  O72      1.0000 0.80540  0.10620  0.22890  Biso   1.000  O
  O73      1.0000 0.41610  0.16500  0.94680  Biso   1.000  O
  O74      1.0000 0.58390  0.16500  0.55320  Biso   1.000  O
  O75      1.0000 0.91610  0.66500  0.94680  Biso   1.000  O
  O76      1.0000 0.08390  0.66500  0.55320  Biso   1.000  O
  O77      1.0000 0.58390  0.83500  0.05320  Biso   1.000  O
  O78      1.0000 0.41610  0.83500  0.44680  Biso   1.000  O
  O79      1.0000 0.08390  0.33500  0.05320  Biso   1.000  O
  O80      1.0000 0.91610  0.33500  0.44680  Biso   1.000  O
  O81      1.0000 0.63290  0.26320  0.92910  Biso   1.000  O
  O82      1.0000 0.36710  0.26320  0.57090  Biso   1.000  O
  O83      1.0000 0.13290  0.76320  0.92910  Biso   1.000  O
  O84      1.0000 0.86710  0.76320  0.57090  Biso   1.000  O
  O85      1.0000 0.36710  0.73680  0.07090  Biso   1.000  O
  O86      1.0000 0.63290  0.73680  0.42910  Biso   1.000  O
  O87      1.0000 0.86710  0.23680  0.07090  Biso   1.000  O
  O88      1.0000 0.13290  0.23680  0.42910  Biso   1.000  O
  O89      1.0000 0.43250  0.49320  0.95460  Biso   1.000  O
  O90      1.0000 0.56750  0.49320  0.54540  Biso   1.000  O
  O91      1.0000 0.93250  0.99320  0.95460  Biso   1.000  O
  O92      1.0000 0.06750  0.99320  0.54540  Biso   1.000  O
  O93      1.0000 0.56750  0.50680  0.04540  Biso   1.000  O
  O94      1.0000 0.43250  0.50680  0.45460  Biso   1.000  O
  O95      1.0000 0.06750  0.00680  0.04540  Biso   1.000  O
  O96      1.0000 0.93250  0.00680  0.45460  Biso   1.000  O
  O97      1.0000 0.49490  0.37910  0.94560  Biso   1.000  O
  O98      1.0000 0.50510  0.37910  0.55440  Biso   1.000  O
  O99      1.0000 0.99490  0.87910  0.94560  Biso   1.000  O
  O100     1.0000 0.00510  0.87910  0.55440  Biso   1.000  O
  O101     1.0000 0.50510  0.62090  0.05440  Biso   1.000  O
  O102     1.0000 0.49490  0.62090  0.44560  Biso   1.000  O
  O103     1.0000 0.00510  0.12090  0.05440  Biso   1.000  O
  O104     1.0000 0.99490  0.12090  0.44560  Biso   1.000  O
  O105     1.0000 0.54100  0.18120  0.87190  Biso   1.000  O
  O106     1.0000 0.45900  0.18120  0.62810  Biso   1.000  O
  O107     1.0000 0.04100  0.68120  0.87190  Biso   1.000  O
  O108     1.0000 0.95900  0.68120  0.62810  Biso   1.000  O
  O109     1.0000 0.45900  0.81880  0.12810  Biso   1.000  O
  O110     1.0000 0.54100  0.81880  0.37190  Biso   1.000  O
  O111     1.0000 0.95900  0.31880  0.12810  Biso   1.000  O
  O112     1.0000 0.04100  0.31880  0.37190  Biso   1.000  O
  O113     1.0000 0.60660  0.33630  0.05860  Biso   1.000  O
  O114     1.0000 0.39340  0.33630  0.44140  Biso   1.000  O
  O115     1.0000 0.10660  0.83630  0.05860  Biso   1.000  O
  O116     1.0000 0.89340  0.83630  0.44140  Biso   1.000  O
  O117     1.0000 0.39340  0.66370  0.94140  Biso   1.000  O
  O118     1.0000 0.60660  0.66370  0.55860  Biso   1.000  O
  O119     1.0000 0.89340  0.16370  0.94140  Biso   1.000  O
  O120     1.0000 0.10660  0.16370  0.55860  Biso   1.000  O
  O121     1.0000 0.53200  0.45920  0.84580  Biso   1.000  O
  O122     1.0000 0.46800  0.45920  0.65420  Biso   1.000  O
  O123     1.0000 0.03200  0.95920  0.84580  Biso   1.000  O
  O124     1.0000 0.96800  0.95920  0.65420  Biso   1.000  O
  O125     1.0000 0.46800  0.54080  0.15420  Biso   1.000  O
  O126     1.0000 0.53200  0.54080  0.34580  Biso   1.000  O
  O127     1.0000 0.96800  0.04080  0.15420  Biso   1.000  O
  O128     1.0000 0.03200  0.04080  0.34580  Biso   1.000  O
  O129     1.0000 0.68520  0.16600  0.85310  Biso   1.000  O
  O130     1.0000 0.31480  0.16600  0.64690  Biso   1.000  O
  O131     1.0000 0.18520  0.66600  0.85310  Biso   1.000  O
  O132     1.0000 0.81480  0.66600  0.64690  Biso   1.000  O
  O133     1.0000 0.31480  0.83400  0.14690  Biso   1.000  O
  O134     1.0000 0.68520  0.83400  0.35310  Biso   1.000  O
  O135     1.0000 0.81480  0.33400  0.14690  Biso   1.000  O
  O136     1.0000 0.18520  0.33400  0.35310  Biso   1.000  O
  O137     1.0000 0.35800  0.39370  0.88630  Biso   1.000  O
  O138     1.0000 0.64200  0.39370  0.61370  Biso   1.000  O
  O139     1.0000 0.85800  0.89370  0.88630  Biso   1.000  O
  O140     1.0000 0.14200  0.89370  0.61370  Biso   1.000  O
  O141     1.0000 0.64200  0.60630  0.11370  Biso   1.000  O
  O142     1.0000 0.35800  0.60630  0.38630  Biso   1.000  O
  O143     1.0000 0.14200  0.10630  0.11370  Biso   1.000  O
  O144     1.0000 0.85800  0.10630  0.38630  Biso   1.000  O
  O145     1.0000 0.32280  0.49060  0.62970  Biso   1.000  O
  O146     1.0000 0.67720  0.49060  0.87030  Biso   1.000  O
  O147     1.0000 0.82280  0.99060  0.62970  Biso   1.000  O
  O148     1.0000 0.17720  0.99060  0.87030  Biso   1.000  O
  O149     1.0000 0.67720  0.50940  0.37030  Biso   1.000  O
  O150     1.0000 0.32280  0.50940  0.12970  Biso   1.000  O
  O151     1.0000 0.17720  0.00940  0.37030  Biso   1.000  O
  O152     1.0000 0.82280  0.00940  0.12970  Biso   1.000  O
  O153     1.0000 0.62220  0.37840  0.89980  Biso   1.000  O
  O154     1.0000 0.37780  0.37840  0.60020  Biso   1.000  O
  O155     1.0000 0.12220  0.87840  0.89980  Biso   1.000  O
  O156     1.0000 0.87780  0.87840  0.60020  Biso   1.000  O
  O157     1.0000 0.37780  0.62160  0.10020  Biso   1.000  O
  O158     1.0000 0.62220  0.62160  0.39980  Biso   1.000  O
  O159     1.0000 0.87780  0.12160  0.10020  Biso   1.000  O
  O160     1.0000 0.12220  0.12160  0.39980  Biso   1.000  O
  N1       1.0000 0.64020  0.17160  0.09750  Biso   1.000  N
  N2       1.0000 0.35980  0.17160  0.40250  Biso   1.000  N
  N3       1.0000 0.14020  0.67160  0.09750  Biso   1.000  N
  N4       1.0000 0.85980  0.67160  0.40250  Biso   1.000  N
  N5       1.0000 0.35980  0.82840  0.90250  Biso   1.000  N
  N6       1.0000 0.64020  0.82840  0.59750  Biso   1.000  N
  N7       1.0000 0.85980  0.32840  0.90250  Biso   1.000  N
  N8       1.0000 0.14020  0.32840  0.59750  Biso   1.000  N
  N9       1.0000 0.53150  0.15440  0.11230  Biso   1.000  N
  N10      1.0000 0.46850  0.15440  0.38770  Biso   1.000  N
  N11      1.0000 0.03150  0.65440  0.11230  Biso   1.000  N
  N12      1.0000 0.96850  0.65440  0.38770  Biso   1.000  N
  N13      1.0000 0.46850  0.84560  0.88770  Biso   1.000  N
  N14      1.0000 0.53150  0.84560  0.61230  Biso   1.000  N
  N15      1.0000 0.96850  0.34560  0.88770  Biso   1.000  N
  N16      1.0000 0.03150  0.34560  0.61230  Biso   1.000  N
  N17      1.0000 0.60790  0.23370  0.39520  Biso   1.000  N
  N18      1.0000 0.39210  0.23370  0.10480  Biso   1.000  N
  N19      1.0000 0.10790  0.73370  0.39520  Biso   1.000  N
  N20      1.0000 0.89210  0.73370  0.10480  Biso   1.000  N
  N21      1.0000 0.39210  0.76630  0.60480  Biso   1.000  N
  N22      1.0000 0.60790  0.76630  0.89520  Biso   1.000  N
  N23      1.0000 0.89210  0.26630  0.60480  Biso   1.000  N
  N24      1.0000 0.10790  0.26630  0.89520  Biso   1.000  N
  N25      1.0000 0.62440  0.20810  0.15710  Biso   1.000  N
  N26      1.0000 0.37560  0.20810  0.34290  Biso   1.000  N
  N27      1.0000 0.12440  0.70810  0.15710  Biso   1.000  N
  N28      1.0000 0.87560  0.70810  0.34290  Biso   1.000  N
  N29      1.0000 0.37560  0.79190  0.84290  Biso   1.000  N
  N30      1.0000 0.62440  0.79190  0.65710  Biso   1.000  N
  N31      1.0000 0.87560  0.29190  0.84290  Biso   1.000  N
  N32      1.0000 0.12440  0.29190  0.65710  Biso   1.000  N
  N33      1.0000 0.70550  0.01080  0.39130  Biso   1.000  N
  N34      1.0000 0.29450  0.01080  0.10870  Biso   1.000  N
  N35      1.0000 0.20550  0.51080  0.39130  Biso   1.000  N
  N36      1.0000 0.79450  0.51080  0.10870  Biso   1.000  N
  N37      1.0000 0.29450  0.98920  0.60870  Biso   1.000  N
  N38      1.0000 0.70550  0.98920  0.89130  Biso   1.000  N
  N39      1.0000 0.79450  0.48920  0.60870  Biso   1.000  N
  N40      1.0000 0.20550  0.48920  0.89130  Biso   1.000  N
  N41      1.0000 0.63060  0.07920  0.38930  Biso   1.000  N
  N42      1.0000 0.36940  0.07920  0.11070  Biso   1.000  N
  N43      1.0000 0.13060  0.57920  0.38930  Biso   1.000  N
  N44      1.0000 0.86940  0.57920  0.11070  Biso   1.000  N
  N45      1.0000 0.36940  0.92080  0.61070  Biso   1.000  N
  N46      1.0000 0.63060  0.92080  0.88930  Biso   1.000  N
  N47      1.0000 0.86940  0.42080  0.61070  Biso   1.000  N
  N48      1.0000 0.13060  0.42080  0.88930  Biso   1.000  N
  N49      1.0000 0.58520  0.26890  0.32930  Biso   1.000  N
  N50      1.0000 0.41480  0.26890  0.17070  Biso   1.000  N
  N51      1.0000 0.08520  0.76890  0.32930  Biso   1.000  N
  N52      1.0000 0.91480  0.76890  0.17070  Biso   1.000  N
  N53      1.0000 0.41480  0.73110  0.67070  Biso   1.000  N
  N54      1.0000 0.58520  0.73110  0.82930  Biso   1.000  N
  N55      1.0000 0.91480  0.23110  0.67070  Biso   1.000  N
  N56      1.0000 0.08520  0.23110  0.82930  Biso   1.000  N
  N57      1.0000 0.55740  0.19740  0.16540  Biso   1.000  N
  N58      1.0000 0.44260  0.19740  0.33460  Biso   1.000  N
  N59      1.0000 0.05740  0.69740  0.16540  Biso   1.000  N
  N60      1.0000 0.94260  0.69740  0.33460  Biso   1.000  N
  N61      1.0000 0.44260  0.80260  0.83460  Biso   1.000  N
  N62      1.0000 0.55740  0.80260  0.66540  Biso   1.000  N
  N63      1.0000 0.94260  0.30260  0.83460  Biso   1.000  N
  N64      1.0000 0.05740  0.30260  0.66540  Biso   1.000  N
  N65      1.0000 0.66040  0.25640  0.43910  Biso   1.000  N
  N66      1.0000 0.33960  0.25640  0.06090  Biso   1.000  N
  N67      1.0000 0.16040  0.75640  0.43910  Biso   1.000  N
  N68      1.0000 0.83960  0.75640  0.06090  Biso   1.000  N
  N69      1.0000 0.33960  0.74360  0.56090  Biso   1.000  N
  N70      1.0000 0.66040  0.74360  0.93910  Biso   1.000  N
  N71      1.0000 0.83960  0.24360  0.56090  Biso   1.000  N
  N72      1.0000 0.16040  0.24360  0.93910  Biso   1.000  N
  N73      1.0000 0.67520  0.30720  0.40400  Biso   1.000  N
  N74      1.0000 0.32480  0.30720  0.09600  Biso   1.000  N
  N75      1.0000 0.17520  0.80720  0.40400  Biso   1.000  N
  N76      1.0000 0.82480  0.80720  0.09600  Biso   1.000  N
  N77      1.0000 0.32480  0.69280  0.59600  Biso   1.000  N
  N78      1.0000 0.67520  0.69280  0.90400  Biso   1.000  N
  N79      1.0000 0.82480  0.19280  0.59600  Biso   1.000  N
  N80      1.0000 0.17520  0.19280  0.90400  Biso   1.000  N
  N81      1.0000 0.61510  0.05060  0.31820  Biso   1.000  N
  N82      1.0000 0.38490  0.05060  0.18180  Biso   1.000  N
  N83      1.0000 0.11510  0.55060  0.31820  Biso   1.000  N
  N84      1.0000 0.88490  0.55060  0.18180  Biso   1.000  N
  N85      1.0000 0.38490  0.94940  0.68180  Biso   1.000  N
  N86      1.0000 0.61510  0.94940  0.81820  Biso   1.000  N
  N87      1.0000 0.88490  0.44940  0.68180  Biso   1.000  N
  N88      1.0000 0.11510  0.44940  0.81820  Biso   1.000  N
  N89      1.0000 0.68390  0.05730  0.43420  Biso   1.000  N
  N90      1.0000 0.31610  0.05730  0.06580  Biso   1.000  N
  N91      1.0000 0.18390  0.55730  0.43420  Biso   1.000  N
  N92      1.0000 0.81610  0.55730  0.06580  Biso   1.000  N
  N93      1.0000 0.31610  0.94270  0.56580  Biso   1.000  N
  N94      1.0000 0.68390  0.94270  0.93420  Biso   1.000  N
  N95      1.0000 0.81610  0.44270  0.56580  Biso   1.000  N
  N96      1.0000 0.18390  0.44270  0.93420  Biso   1.000  N
  C1       1.0000 0.61190  0.02160  0.08100  Biso   1.000  C
  C2       1.0000 0.38810  0.02160  0.41900  Biso   1.000  C
  C3       1.0000 0.11190  0.52160  0.08100  Biso   1.000  C
  C4       1.0000 0.88810  0.52160  0.41900  Biso   1.000  C
  C5       1.0000 0.38810  0.97840  0.91900  Biso   1.000  C
  C6       1.0000 0.61190  0.97840  0.58100  Biso   1.000  C
  C7       1.0000 0.88810  0.47840  0.91900  Biso   1.000  C
  C8       1.0000 0.11190  0.47840  0.58100  Biso   1.000  C
  H1       1.0000 0.62330  0.98550  0.05280  Biso   1.000  H
  H2       1.0000 0.37670  0.98550  0.44720  Biso   1.000  H
  H3       1.0000 0.12330  0.48550  0.05280  Biso   1.000  H
  H4       1.0000 0.87670  0.48550  0.44720  Biso   1.000  H
  H5       1.0000 0.37670  0.01450  0.94720  Biso   1.000  H
  H6       1.0000 0.62330  0.01450  0.55280  Biso   1.000  H
  H7       1.0000 0.87670  0.51450  0.94720  Biso   1.000  H
  H8       1.0000 0.12330  0.51450  0.55280  Biso   1.000  H
  H9       1.0000 0.65490  0.03470  0.11340  Biso   1.000  H
  H10      1.0000 0.34510  0.03470  0.38660  Biso   1.000  H
  H11      1.0000 0.15490  0.53470  0.11340  Biso   1.000  H
  H12      1.0000 0.84510  0.53470  0.38660  Biso   1.000  H
  H13      1.0000 0.34510  0.96530  0.88660  Biso   1.000  H
  H14      1.0000 0.65490  0.96530  0.61340  Biso   1.000  H
  H15      1.0000 0.84510  0.46530  0.88660  Biso   1.000  H
  H16      1.0000 0.15490  0.46530  0.61340  Biso   1.000  H
  C9       1.0000 0.55370  0.37950  0.21300  Biso   1.000  C
  C10      1.0000 0.44630  0.37950  0.28700  Biso   1.000  C
  C11      1.0000 0.05370  0.87950  0.21300  Biso   1.000  C
  C12      1.0000 0.94630  0.87950  0.28700  Biso   1.000  C
  C13      1.0000 0.44630  0.62050  0.78700  Biso   1.000  C
  C14      1.0000 0.55370  0.62050  0.71300  Biso   1.000  C
  C15      1.0000 0.94630  0.12050  0.78700  Biso   1.000  C
  C16      1.0000 0.05370  0.12050  0.71300  Biso   1.000  C
  C17      1.0000 0.62860  0.31590  0.33690  Biso   1.000  C
  C18      1.0000 0.37140  0.31590  0.16310  Biso   1.000  C
  C19      1.0000 0.12860  0.81590  0.33690  Biso   1.000  C
  C20      1.0000 0.87140  0.81590  0.16310  Biso   1.000  C
  C21      1.0000 0.37140  0.68410  0.66310  Biso   1.000  C
  C22      1.0000 0.62860  0.68410  0.83690  Biso   1.000  C
  C23      1.0000 0.87140  0.18410  0.66310  Biso   1.000  C
  C24      1.0000 0.12860  0.18410  0.83690  Biso   1.000  C
  C25      1.0000 0.56410  0.00990  0.12990  Biso   1.000  C
  C26      1.0000 0.43590  0.00990  0.37010  Biso   1.000  C
  C27      1.0000 0.06410  0.50990  0.12990  Biso   1.000  C
  C28      1.0000 0.93590  0.50990  0.37010  Biso   1.000  C
  C29      1.0000 0.43590  0.99010  0.87010  Biso   1.000  C
  C30      1.0000 0.56410  0.99010  0.62990  Biso   1.000  C
  C31      1.0000 0.93590  0.49010  0.87010  Biso   1.000  C
  C32      1.0000 0.06410  0.49010  0.62990  Biso   1.000  C
  H17      1.0000 0.51990  0.99720  0.09940  Biso   1.000  H
  H18      1.0000 0.48010  0.99720  0.40060  Biso   1.000  H
  H19      1.0000 0.01990  0.49720  0.09940  Biso   1.000  H
  H20      1.0000 0.98010  0.49720  0.40060  Biso   1.000  H
  H21      1.0000 0.48010  0.00280  0.90060  Biso   1.000  H
  H22      1.0000 0.51990  0.00280  0.59940  Biso   1.000  H
  H23      1.0000 0.98010  0.50280  0.90060  Biso   1.000  H
  H24      1.0000 0.01990  0.50280  0.59940  Biso   1.000  H
  H25      1.0000 0.55480  0.04410  0.16320  Biso   1.000  H
  H26      1.0000 0.44520  0.04410  0.33680  Biso   1.000  H
  H27      1.0000 0.05480  0.54410  0.16320  Biso   1.000  H
  H28      1.0000 0.94520  0.54410  0.33680  Biso   1.000  H
  H29      1.0000 0.44520  0.95590  0.83680  Biso   1.000  H
  H30      1.0000 0.55480  0.95590  0.66320  Biso   1.000  H
  H31      1.0000 0.94520  0.45590  0.83680  Biso   1.000  H
  H32      1.0000 0.05480  0.45590  0.66320  Biso   1.000  H
  C33      1.0000 0.73180  0.34440  0.43920  Biso   1.000  C
  C34      1.0000 0.26820  0.34440  0.06080  Biso   1.000  C
  C35      1.0000 0.23180  0.84440  0.43920  Biso   1.000  C
  C36      1.0000 0.76820  0.84440  0.06080  Biso   1.000  C
  C37      1.0000 0.26820  0.65560  0.56080  Biso   1.000  C
  C38      1.0000 0.73180  0.65560  0.93920  Biso   1.000  C
  C39      1.0000 0.76820  0.15560  0.56080  Biso   1.000  C
  C40      1.0000 0.23180  0.15560  0.93920  Biso   1.000  C
  H33      1.0000 0.73520  0.37870  0.40500  Biso   1.000  H
  H34      1.0000 0.26480  0.37870  0.09500  Biso   1.000  H
  H35      1.0000 0.23520  0.87870  0.40500  Biso   1.000  H
  H36      1.0000 0.76480  0.87870  0.09500  Biso   1.000  H
  H37      1.0000 0.26480  0.62130  0.59500  Biso   1.000  H
  H38      1.0000 0.73520  0.62130  0.90500  Biso   1.000  H
  H39      1.0000 0.76480  0.12130  0.59500  Biso   1.000  H
  H40      1.0000 0.23520  0.12130  0.90500  Biso   1.000  H
  H41      1.0000 0.77590  0.32300  0.44270  Biso   1.000  H
  H42      1.0000 0.22410  0.32300  0.05730  Biso   1.000  H
  H43      1.0000 0.27590  0.82300  0.44270  Biso   1.000  H
  H44      1.0000 0.72410  0.82300  0.05730  Biso   1.000  H
  H45      1.0000 0.22410  0.67700  0.55730  Biso   1.000  H
  H46      1.0000 0.77590  0.67700  0.94270  Biso   1.000  H
  H47      1.0000 0.72410  0.17700  0.55730  Biso   1.000  H
  H48      1.0000 0.27590  0.17700  0.94270  Biso   1.000  H
  H49      1.0000 0.72220  0.35660  0.49340  Biso   1.000  H
  H50      1.0000 0.27780  0.35660  0.00660  Biso   1.000  H
  H51      1.0000 0.22220  0.85660  0.49340  Biso   1.000  H
  H52      1.0000 0.77780  0.85660  0.00660  Biso   1.000  H
  H53      1.0000 0.27780  0.64340  0.50660  Biso   1.000  H
  H54      1.0000 0.72220  0.64340  0.99340  Biso   1.000  H
  H55      1.0000 0.77780  0.14340  0.50660  Biso   1.000  H
  H56      1.0000 0.22220  0.14340  0.99340  Biso   1.000  H
  C41      1.0000 0.51960  0.40790  0.28400  Biso   1.000  C
  C42      1.0000 0.48040  0.40790  0.21600  Biso   1.000  C
  C43      1.0000 0.01960  0.90790  0.28400  Biso   1.000  C
  C44      1.0000 0.98040  0.90790  0.21600  Biso   1.000  C
  C45      1.0000 0.48040  0.59210  0.71600  Biso   1.000  C
  C46      1.0000 0.51960  0.59210  0.78400  Biso   1.000  C
  C47      1.0000 0.98040  0.09210  0.71600  Biso   1.000  C
  C48      1.0000 0.01960  0.09210  0.78400  Biso   1.000  C
  C49      1.0000 0.71230  0.17260  0.07050  Biso   1.000  C
  C50      1.0000 0.28770  0.17260  0.42950  Biso   1.000  C
  C51      1.0000 0.21230  0.67260  0.07050  Biso   1.000  C
  C52      1.0000 0.78770  0.67260  0.42950  Biso   1.000  C
  C53      1.0000 0.28770  0.82740  0.92950  Biso   1.000  C
  C54      1.0000 0.71230  0.82740  0.57050  Biso   1.000  C
  C55      1.0000 0.78770  0.32740  0.92950  Biso   1.000  C
  C56      1.0000 0.21230  0.32740  0.57050  Biso   1.000  C
  H57      1.0000 0.71510  0.14440  0.02680  Biso   1.000  H
  H58      1.0000 0.28490  0.14440  0.47320  Biso   1.000  H
  H59      1.0000 0.21510  0.64440  0.02680  Biso   1.000  H
  H60      1.0000 0.78490  0.64440  0.47320  Biso   1.000  H
  H61      1.0000 0.28490  0.85560  0.97320  Biso   1.000  H
  H62      1.0000 0.71510  0.85560  0.52680  Biso   1.000  H
  H63      1.0000 0.78490  0.35560  0.97320  Biso   1.000  H
  H64      1.0000 0.21510  0.35560  0.52680  Biso   1.000  H
  H65      1.0000 0.74640  0.16250  0.11610  Biso   1.000  H
  H66      1.0000 0.25360  0.16250  0.38390  Biso   1.000  H
  H67      1.0000 0.24640  0.66250  0.11610  Biso   1.000  H
  H68      1.0000 0.75360  0.66250  0.38390  Biso   1.000  H
  H69      1.0000 0.25360  0.83750  0.88390  Biso   1.000  H
  H70      1.0000 0.74640  0.83750  0.61610  Biso   1.000  H
  H71      1.0000 0.75360  0.33750  0.88390  Biso   1.000  H
  H72      1.0000 0.24640  0.33750  0.61610  Biso   1.000  H
  H73      1.0000 0.72240  0.21140  0.05110  Biso   1.000  H
  H74      1.0000 0.27760  0.21140  0.44890  Biso   1.000  H
  H75      1.0000 0.22240  0.71140  0.05110  Biso   1.000  H
  H76      1.0000 0.77760  0.71140  0.44890  Biso   1.000  H
  H77      1.0000 0.27760  0.78860  0.94890  Biso   1.000  H
  H78      1.0000 0.72240  0.78860  0.55110  Biso   1.000  H
  H79      1.0000 0.77760  0.28860  0.94890  Biso   1.000  H
  H80      1.0000 0.22240  0.28860  0.55110  Biso   1.000  H
  C57      1.0000 0.58570  0.13810  0.07060  Biso   1.000  C
  C58      1.0000 0.41430  0.13810  0.42940  Biso   1.000  C
  C59      1.0000 0.08570  0.63810  0.07060  Biso   1.000  C
  C60      1.0000 0.91430  0.63810  0.42940  Biso   1.000  C
  C61      1.0000 0.41430  0.86190  0.92940  Biso   1.000  C
  C62      1.0000 0.58570  0.86190  0.57060  Biso   1.000  C
  C63      1.0000 0.91430  0.36190  0.92940  Biso   1.000  C
  C64      1.0000 0.08570  0.36190  0.57060  Biso   1.000  C
  C65      1.0000 0.76410  0.97440  0.41960  Biso   1.000  C
  C66      1.0000 0.23590  0.97440  0.08040  Biso   1.000  C
  C67      1.0000 0.26410  0.47440  0.41960  Biso   1.000  C
  C68      1.0000 0.73590  0.47440  0.08040  Biso   1.000  C
  C69      1.0000 0.23590  0.02560  0.58040  Biso   1.000  C
  C70      1.0000 0.76410  0.02560  0.91960  Biso   1.000  C
  C71      1.0000 0.73590  0.52560  0.58040  Biso   1.000  C
  C72      1.0000 0.26410  0.52560  0.91960  Biso   1.000  C
  H81      1.0000 0.77030  0.94430  0.37930  Biso   1.000  H
  H82      1.0000 0.22970  0.94430  0.12070  Biso   1.000  H
  H83      1.0000 0.27030  0.44430  0.37930  Biso   1.000  H
  H84      1.0000 0.72970  0.44430  0.12070  Biso   1.000  H
  H85      1.0000 0.22970  0.05570  0.62070  Biso   1.000  H
  H86      1.0000 0.77030  0.05570  0.87930  Biso   1.000  H
  H87      1.0000 0.72970  0.55570  0.62070  Biso   1.000  H
  H88      1.0000 0.27030  0.55570  0.87930  Biso   1.000  H
  H89      1.0000 0.75530  0.95610  0.47070  Biso   1.000  H
  H90      1.0000 0.24470  0.95610  0.02930  Biso   1.000  H
  H91      1.0000 0.25530  0.45610  0.47070  Biso   1.000  H
  H92      1.0000 0.74470  0.45610  0.02930  Biso   1.000  H
  H93      1.0000 0.24470  0.04390  0.52930  Biso   1.000  H
  H94      1.0000 0.75530  0.04390  0.97070  Biso   1.000  H
  H95      1.0000 0.74470  0.54390  0.52930  Biso   1.000  H
  H96      1.0000 0.25530  0.54390  0.97070  Biso   1.000  H
  H97      1.0000 0.80640  0.99800  0.42780  Biso   1.000  H
  H98      1.0000 0.19360  0.99800  0.07220  Biso   1.000  H
  H99      1.0000 0.30640  0.49800  0.42780  Biso   1.000  H
  H100     1.0000 0.69360  0.49800  0.07220  Biso   1.000  H
  H101     1.0000 0.19360  0.00200  0.57220  Biso   1.000  H
  H102     1.0000 0.80640  0.00200  0.92780  Biso   1.000  H
  H103     1.0000 0.69360  0.50200  0.57220  Biso   1.000  H
  H104     1.0000 0.30640  0.50200  0.92780  Biso   1.000  H
  C73      1.0000 0.66520  0.00870  0.31830  Biso   1.000  C
  C74      1.0000 0.33480  0.00870  0.18170  Biso   1.000  C
  C75      1.0000 0.16520  0.50870  0.31830  Biso   1.000  C
  C76      1.0000 0.83480  0.50870  0.18170  Biso   1.000  C
  C77      1.0000 0.33480  0.99130  0.68170  Biso   1.000  C
  C78      1.0000 0.66520  0.99130  0.81830  Biso   1.000  C
  C79      1.0000 0.83480  0.49130  0.68170  Biso   1.000  C
  C80      1.0000 0.16520  0.49130  0.81830  Biso   1.000  C
  C81      1.0000 0.59580  0.96320  0.17960  Biso   1.000  C
  C82      1.0000 0.40420  0.96320  0.32040  Biso   1.000  C
  C83      1.0000 0.09580  0.46320  0.17960  Biso   1.000  C
  C84      1.0000 0.90420  0.46320  0.32040  Biso   1.000  C
  C85      1.0000 0.40420  0.03680  0.82040  Biso   1.000  C
  C86      1.0000 0.59580  0.03680  0.67960  Biso   1.000  C
  C87      1.0000 0.90420  0.53680  0.82040  Biso   1.000  C
  C88      1.0000 0.09580  0.53680  0.67960  Biso   1.000  C
  H105     1.0000 0.59760  0.93090  0.14080  Biso   1.000  H
  H106     1.0000 0.40240  0.93090  0.35920  Biso   1.000  H
  H107     1.0000 0.09760  0.43090  0.14080  Biso   1.000  H
  H108     1.0000 0.90240  0.43090  0.35920  Biso   1.000  H
  H109     1.0000 0.40240  0.06910  0.85920  Biso   1.000  H
  H110     1.0000 0.59760  0.06910  0.64080  Biso   1.000  H
  H111     1.0000 0.90240  0.56910  0.85920  Biso   1.000  H
  H112     1.0000 0.09760  0.56910  0.64080  Biso   1.000  H
  H113     1.0000 0.55880  0.95240  0.21390  Biso   1.000  H
  H114     1.0000 0.44120  0.95240  0.28610  Biso   1.000  H
  H115     1.0000 0.05880  0.45240  0.21390  Biso   1.000  H
  H116     1.0000 0.94120  0.45240  0.28610  Biso   1.000  H
  H117     1.0000 0.44120  0.04760  0.78610  Biso   1.000  H
  H118     1.0000 0.55880  0.04760  0.71390  Biso   1.000  H
  H119     1.0000 0.94120  0.54760  0.78610  Biso   1.000  H
  H120     1.0000 0.05880  0.54760  0.71390  Biso   1.000  H
