data_image0
_cell_length_a       9.9969
_cell_length_b       16.5736
_cell_length_c       14.6322
_cell_angle_alpha    90
_cell_angle_beta     109.248
_cell_angle_gamma    90

_symmetry_space_group_name_H-M    "P 1"
_symmetry_int_tables_number       1

loop_
  _symmetry_equiv_pos_as_xyz
  'x, y, z'

loop_
  _atom_site_label
  _atom_site_occupancy
  _atom_site_fract_x
  _atom_site_fract_y
  _atom_site_fract_z
  _atom_site_thermal_displace_type
  _atom_site_B_iso_or_equiv
  _atom_site_type_symbol
  Cu1      1.0000 0.36504  0.25142  0.37368  Biso   1.000  Cu
  Cu2      1.0000 0.13496  0.75142  0.12632  Biso   1.000  Cu
  Cu3      1.0000 0.63496  0.74858  0.62632  Biso   1.000  Cu
  Cu4      1.0000 0.86504  0.24858  0.87368  Biso   1.000  Cu
  N1       1.0000 0.15810  0.21134  0.31400  Biso   1.000  N
  N2       1.0000 0.34190  0.71134  0.18600  Biso   1.000  N
  N3       1.0000 0.84190  0.78866  0.68600  Biso   1.000  N
  N4       1.0000 0.65810  0.28866  0.81400  Biso   1.000  N
  N5       1.0000 0.47610  0.82584  0.55160  Biso   1.000  N
  N6       1.0000 0.02390  0.32584  0.94840  Biso   1.000  N
  N7       1.0000 0.52390  0.17416  0.44840  Biso   1.000  N
  N8       1.0000 0.97610  0.67416  0.05160  Biso   1.000  N
  C1       1.0000 0.06510  0.26930  0.27020  Biso   1.000  C
  C2       1.0000 0.43490  0.76930  0.22980  Biso   1.000  C
  C3       1.0000 0.93490  0.73070  0.72980  Biso   1.000  C
  C4       1.0000 0.56510  0.23070  0.77020  Biso   1.000  C
  H1       1.0000 0.10140  0.31820  0.25790  Biso   1.000  H
  H2       1.0000 0.39860  0.81820  0.24210  Biso   1.000  H
  H3       1.0000 0.89860  0.68180  0.74210  Biso   1.000  H
  H4       1.0000 0.60140  0.18180  0.75790  Biso   1.000  H
  C5       1.0000 0.92230  0.26170  0.24270  Biso   1.000  C
  C6       1.0000 0.57770  0.76170  0.25730  Biso   1.000  C
  C7       1.0000 0.07770  0.73830  0.75730  Biso   1.000  C
  C8       1.0000 0.42230  0.23830  0.74270  Biso   1.000  C
  H5       1.0000 0.86340  0.30440  0.21310  Biso   1.000  H
  H6       1.0000 0.63660  0.80440  0.28690  Biso   1.000  H
  H7       1.0000 0.13660  0.69560  0.78690  Biso   1.000  H
  H8       1.0000 0.36340  0.19560  0.71310  Biso   1.000  H
  C9       1.0000 0.86620  0.18950  0.25950  Biso   1.000  C
  C10      1.0000 0.63380  0.68950  0.24050  Biso   1.000  C
  C11      1.0000 0.13380  0.81050  0.74050  Biso   1.000  C
  C12      1.0000 0.36620  0.31050  0.75950  Biso   1.000  C
  H9       1.0000 0.76880  0.18220  0.24190  Biso   1.000  H
  H10      1.0000 0.73120  0.68220  0.25810  Biso   1.000  H
  H11      1.0000 0.23120  0.81780  0.75810  Biso   1.000  H
  H12      1.0000 0.26880  0.31780  0.74190  Biso   1.000  H
  C13      1.0000 0.95860  0.12840  0.30310  Biso   1.000  C
  C14      1.0000 0.54140  0.62840  0.19690  Biso   1.000  C
  C15      1.0000 0.04140  0.87160  0.69690  Biso   1.000  C
  C16      1.0000 0.45860  0.37160  0.80310  Biso   1.000  C
  H13      1.0000 0.92320  0.07910  0.31510  Biso   1.000  H
  H14      1.0000 0.57680  0.57910  0.18490  Biso   1.000  H
  H15      1.0000 0.07680  0.92090  0.68490  Biso   1.000  H
  H16      1.0000 0.42320  0.42090  0.81510  Biso   1.000  H
  C17      1.0000 0.10260  0.13966  0.32910  Biso   1.000  C
  C18      1.0000 0.39740  0.63966  0.17090  Biso   1.000  C
  C19      1.0000 0.89740  0.86034  0.67090  Biso   1.000  C
  C20      1.0000 0.60260  0.36034  0.82910  Biso   1.000  C
  C21      1.0000 0.20400  0.07448  0.37010  Biso   1.000  C
  C22      1.0000 0.29600  0.57448  0.12990  Biso   1.000  C
  C23      1.0000 0.79600  0.92552  0.62990  Biso   1.000  C
  C24      1.0000 0.70400  0.42552  0.87010  Biso   1.000  C
  H17      1.0000 0.28870  0.07520  0.35680  Biso   1.000  H
  H18      1.0000 0.21130  0.57520  0.14320  Biso   1.000  H
  H19      1.0000 0.71130  0.92480  0.64320  Biso   1.000  H
  H20      1.0000 0.78870  0.42480  0.85680  Biso   1.000  H
  C25      1.0000 0.18490  0.01480  0.42450  Biso   1.000  C
  C26      1.0000 0.31510  0.51480  0.07550  Biso   1.000  C
  C27      1.0000 0.81510  0.98520  0.57550  Biso   1.000  C
  C28      1.0000 0.68490  0.48520  0.92450  Biso   1.000  C
  H21      1.0000 0.10120  0.01520  0.43920  Biso   1.000  H
  H22      1.0000 0.39880  0.51520  0.06080  Biso   1.000  H
  H23      1.0000 0.89880  0.98480  0.56080  Biso   1.000  H
  H24      1.0000 0.60120  0.48480  0.93920  Biso   1.000  H
  C29      1.0000 0.28320  0.94797  0.46380  Biso   1.000  C
  C30      1.0000 0.21680  0.44797  0.03620  Biso   1.000  C
  C31      1.0000 0.71680  0.05203  0.53620  Biso   1.000  C
  C32      1.0000 0.78320  0.55203  0.96380  Biso   1.000  C
  C33      1.0000 0.27410  0.90480  0.54200  Biso   1.000  C
  C34      1.0000 0.22590  0.40480  0.95800  Biso   1.000  C
  C35      1.0000 0.72590  0.09520  0.45800  Biso   1.000  C
  C36      1.0000 0.77410  0.59520  0.04200  Biso   1.000  C
  H25      1.0000 0.20160  0.91580  0.56690  Biso   1.000  H
  H26      1.0000 0.29840  0.41580  0.93310  Biso   1.000  H
  H27      1.0000 0.79840  0.08420  0.43310  Biso   1.000  H
  H28      1.0000 0.70160  0.58420  0.06690  Biso   1.000  H
  C37      1.0000 0.37110  0.84590  0.58350  Biso   1.000  C
  C38      1.0000 0.12890  0.34590  0.91650  Biso   1.000  C
  C39      1.0000 0.62890  0.15410  0.41650  Biso   1.000  C
  C40      1.0000 0.87110  0.65410  0.08350  Biso   1.000  C
  H29      1.0000 0.36280  0.81850  0.63680  Biso   1.000  H
  H30      1.0000 0.13720  0.31850  0.86320  Biso   1.000  H
  H31      1.0000 0.63720  0.18150  0.36320  Biso   1.000  H
  H32      1.0000 0.86280  0.68150  0.13680  Biso   1.000  H
  C41      1.0000 0.48110  0.86500  0.47330  Biso   1.000  C
  C42      1.0000 0.01890  0.36500  0.02670  Biso   1.000  C
  C43      1.0000 0.51890  0.13500  0.52670  Biso   1.000  C
  C44      1.0000 0.98110  0.63500  0.97330  Biso   1.000  C
  H33      1.0000 0.55090  0.85030  0.44720  Biso   1.000  H
  H34      1.0000 0.94910  0.35030  0.05280  Biso   1.000  H
  H35      1.0000 0.44910  0.14970  0.55280  Biso   1.000  H
  H36      1.0000 0.05090  0.64970  0.94720  Biso   1.000  H
  C45      1.0000 0.38900  0.92580  0.42860  Biso   1.000  C
  C46      1.0000 0.11100  0.42580  0.07140  Biso   1.000  C
  C47      1.0000 0.61100  0.07420  0.57140  Biso   1.000  C
  C48      1.0000 0.88900  0.57420  0.92860  Biso   1.000  C
  H37      1.0000 0.39840  0.95170  0.37470  Biso   1.000  H
  H38      1.0000 0.10160  0.45170  0.12530  Biso   1.000  H
  H39      1.0000 0.60160  0.04830  0.62530  Biso   1.000  H
  H40      1.0000 0.89840  0.54830  0.87470  Biso   1.000  H
  N9       1.0000 0.40630  0.28007  0.24330  Biso   1.000  N
  N10      1.0000 0.09370  0.78007  0.25670  Biso   1.000  N
  N11      1.0000 0.59370  0.71993  0.75670  Biso   1.000  N
  N12      1.0000 0.90630  0.21993  0.74330  Biso   1.000  N
  N13      1.0000 0.62600  0.66026  0.52600  Biso   1.000  N
  N14      1.0000 0.87400  0.16026  0.97400  Biso   1.000  N
  N15      1.0000 0.37400  0.33974  0.47400  Biso   1.000  N
  N16      1.0000 0.12600  0.83974  0.02600  Biso   1.000  N
  C49      1.0000 0.38840  0.21960  0.18010  Biso   1.000  C
  C50      1.0000 0.11160  0.71960  0.31990  Biso   1.000  C
  C51      1.0000 0.61160  0.78040  0.81990  Biso   1.000  C
  C52      1.0000 0.88840  0.28040  0.68010  Biso   1.000  C
  H41      1.0000 0.33340  0.17580  0.18570  Biso   1.000  H
  H42      1.0000 0.16660  0.67580  0.31430  Biso   1.000  H
  H43      1.0000 0.66660  0.82420  0.81430  Biso   1.000  H
  H44      1.0000 0.83340  0.32420  0.68570  Biso   1.000  H
  C53      1.0000 0.44670  0.21860  0.10750  Biso   1.000  C
  C54      1.0000 0.05330  0.71860  0.39250  Biso   1.000  C
  C55      1.0000 0.55330  0.78140  0.89250  Biso   1.000  C
  C56      1.0000 0.94670  0.28140  0.60750  Biso   1.000  C
  H45      1.0000 0.42970  0.17580  0.06400  Biso   1.000  H
  H46      1.0000 0.07030  0.67580  0.43600  Biso   1.000  H
  H47      1.0000 0.57030  0.82420  0.93600  Biso   1.000  H
  H48      1.0000 0.92970  0.32420  0.56400  Biso   1.000  H
  C57      1.0000 0.53000  0.28160  0.10070  Biso   1.000  C
  C58      1.0000 0.97000  0.78160  0.39930  Biso   1.000  C
  C59      1.0000 0.47000  0.71840  0.89930  Biso   1.000  C
  C60      1.0000 0.03000  0.21840  0.60070  Biso   1.000  C
  H49      1.0000 0.57320  0.28180  0.05320  Biso   1.000  H
  H50      1.0000 0.92680  0.78180  0.44680  Biso   1.000  H
  H51      1.0000 0.42680  0.71820  0.94680  Biso   1.000  H
  H52      1.0000 0.07320  0.21820  0.55320  Biso   1.000  H
  C61      1.0000 0.54990  0.34510  0.16430  Biso   1.000  C
  C62      1.0000 0.95010  0.84510  0.33570  Biso   1.000  C
  C63      1.0000 0.45010  0.65490  0.83570  Biso   1.000  C
  C64      1.0000 0.04990  0.15490  0.66430  Biso   1.000  C
  H53      1.0000 0.60610  0.38870  0.16000  Biso   1.000  H
  H54      1.0000 0.89390  0.88870  0.34000  Biso   1.000  H
  H55      1.0000 0.39390  0.61130  0.84000  Biso   1.000  H
  H56      1.0000 0.10610  0.11130  0.66000  Biso   1.000  H
  C65      1.0000 0.48580  0.34340  0.23460  Biso   1.000  C
  C66      1.0000 0.01420  0.84340  0.26540  Biso   1.000  C
  C67      1.0000 0.51420  0.65660  0.76540  Biso   1.000  C
  C68      1.0000 0.98580  0.15660  0.73460  Biso   1.000  C
  C69      1.0000 0.49040  0.41300  0.30170  Biso   1.000  C
  C70      1.0000 0.00960  0.91300  0.19830  Biso   1.000  C
  C71      1.0000 0.50960  0.58700  0.69830  Biso   1.000  C
  C72      1.0000 0.99040  0.08700  0.80170  Biso   1.000  C
  H57      1.0000 0.40950  0.42390  0.31770  Biso   1.000  H
  H58      1.0000 0.09050  0.92390  0.18230  Biso   1.000  H
  H59      1.0000 0.59050  0.57610  0.68230  Biso   1.000  H
  H60      1.0000 0.90950  0.07610  0.81770  Biso   1.000  H
  C73      1.0000 0.60070  0.45890  0.33880  Biso   1.000  C
  C74      1.0000 0.89930  0.95890  0.16120  Biso   1.000  C
  C75      1.0000 0.39930  0.54110  0.66120  Biso   1.000  C
  C76      1.0000 0.10070  0.04110  0.83880  Biso   1.000  C
  H61      1.0000 0.68180  0.44690  0.32370  Biso   1.000  H
  H62      1.0000 0.81820  0.94690  0.17630  Biso   1.000  H
  H63      1.0000 0.31820  0.55310  0.67630  Biso   1.000  H
  H64      1.0000 0.18180  0.05310  0.82370  Biso   1.000  H
  C77      1.0000 0.60720  0.52880  0.40340  Biso   1.000  C
  C78      1.0000 0.89280  0.02880  0.09660  Biso   1.000  C
  C79      1.0000 0.39280  0.47120  0.59660  Biso   1.000  C
  C80      1.0000 0.10720  0.97120  0.90340  Biso   1.000  C
  C81      1.0000 0.73460  0.55790  0.45980  Biso   1.000  C
  C82      1.0000 0.76540  0.05790  0.04020  Biso   1.000  C
  C83      1.0000 0.26540  0.44210  0.54020  Biso   1.000  C
  C84      1.0000 0.23460  0.94210  0.95980  Biso   1.000  C
  H65      1.0000 0.81790  0.53410  0.45790  Biso   1.000  H
  H66      1.0000 0.68210  0.03410  0.04210  Biso   1.000  H
  H67      1.0000 0.18210  0.46590  0.54210  Biso   1.000  H
  H68      1.0000 0.31790  0.96590  0.95790  Biso   1.000  H
  C85      1.0000 0.74010  0.62220  0.51910  Biso   1.000  C
  C86      1.0000 0.75990  0.12220  0.98090  Biso   1.000  C
  C87      1.0000 0.25990  0.37780  0.48090  Biso   1.000  C
  C88      1.0000 0.24010  0.87780  0.01910  Biso   1.000  C
  H69      1.0000 0.82890  0.64070  0.55710  Biso   1.000  H
  H70      1.0000 0.67110  0.14070  0.94290  Biso   1.000  H
  H71      1.0000 0.17110  0.35930  0.44290  Biso   1.000  H
  H72      1.0000 0.32890  0.85930  0.05710  Biso   1.000  H
  C89      1.0000 0.50050  0.63340  0.46900  Biso   1.000  C
  C90      1.0000 0.99950  0.13340  0.03100  Biso   1.000  C
  C91      1.0000 0.49950  0.36660  0.53100  Biso   1.000  C
  C92      1.0000 0.00050  0.86660  0.96900  Biso   1.000  C
  H73      1.0000 0.41930  0.65990  0.47070  Biso   1.000  H
  H74      1.0000 0.08070  0.15990  0.02930  Biso   1.000  H
  H75      1.0000 0.58070  0.34010  0.52930  Biso   1.000  H
  H76      1.0000 0.91930  0.84010  0.97070  Biso   1.000  H
  C93      1.0000 0.48470  0.56810  0.40760  Biso   1.000  C
  C94      1.0000 0.01530  0.06810  0.09240  Biso   1.000  C
  C95      1.0000 0.51530  0.43190  0.59240  Biso   1.000  C
  C96      1.0000 0.98470  0.93190  0.90760  Biso   1.000  C
  H77      1.0000 0.39520  0.55060  0.36990  Biso   1.000  H
  H78      1.0000 0.10480  0.05060  0.13010  Biso   1.000  H
  H79      1.0000 0.60480  0.44940  0.63010  Biso   1.000  H
  H80      1.0000 0.89520  0.94940  0.86990  Biso   1.000  H
  B1       1.0000 0.54830  0.99020  0.21810  Biso   1.000  B
  B2       1.0000 0.95170  0.49020  0.28190  Biso   1.000  B
  B3       1.0000 0.45170  0.00980  0.78190  Biso   1.000  B
  B4       1.0000 0.04830  0.50980  0.71810  Biso   1.000  B
  F1       1.0000 0.41520  0.00410  0.21980  Biso   1.000  F
  F2       1.0000 0.08480  0.50410  0.28020  Biso   1.000  F
  F3       1.0000 0.58480  0.99590  0.78020  Biso   1.000  F
  F4       1.0000 0.91520  0.49590  0.71980  Biso   1.000  F
  F5       1.0000 0.54810  0.94317  0.14090  Biso   1.000  F
  F6       1.0000 0.95190  0.44317  0.35910  Biso   1.000  F
  F7       1.0000 0.45190  0.05683  0.85910  Biso   1.000  F
  F8       1.0000 0.04810  0.55683  0.64090  Biso   1.000  F
  F9       1.0000 0.62250  0.94997  0.30330  Biso   1.000  F
  F10      1.0000 0.87750  0.44997  0.19670  Biso   1.000  F
  F11      1.0000 0.37750  0.05003  0.69670  Biso   1.000  F
  F12      1.0000 0.12250  0.55003  0.80330  Biso   1.000  F
  F13      1.0000 0.61830  0.06071  0.21700  Biso   1.000  F
  F14      1.0000 0.88170  0.56071  0.28300  Biso   1.000  F
  F15      1.0000 0.38170  0.93929  0.78300  Biso   1.000  F
  F16      1.0000 0.11830  0.43929  0.71700  Biso   1.000  F
