data_image0
_cell_length_a       13.116
_cell_length_b       10.2671
_cell_length_c       25.7648
_cell_angle_alpha    90
_cell_angle_beta     96.474
_cell_angle_gamma    90

_symmetry_space_group_name_H-M    "P 1"
_symmetry_int_tables_number       1

loop_
  _symmetry_equiv_pos_as_xyz
  'x, y, z'

loop_
  _atom_site_label
  _atom_site_occupancy
  _atom_site_fract_x
  _atom_site_fract_y
  _atom_site_fract_z
  _atom_site_thermal_displace_type
  _atom_site_B_iso_or_equiv
  _atom_site_type_symbol
  Fe1      1.0000 0.39482  0.21137  0.14115  Biso   1.000  Fe
  Fe2      1.0000 0.10518  0.71137  0.35885  Biso   1.000  Fe
  Fe3      1.0000 0.60518  0.78863  0.85885  Biso   1.000  Fe
  Fe4      1.0000 0.89482  0.28863  0.64115  Biso   1.000  Fe
  Cu1      1.0000 0.60002  0.26713  0.31691  Biso   1.000  Cu
  Cu2      1.0000 0.89998  0.76713  0.18309  Biso   1.000  Cu
  Cu3      1.0000 0.39998  0.73287  0.68309  Biso   1.000  Cu
  Cu4      1.0000 0.10002  0.23287  0.81691  Biso   1.000  Cu
  Cu5      1.0000 0.68636  0.44909  0.07591  Biso   1.000  Cu
  Cu6      1.0000 0.81364  0.94909  0.42409  Biso   1.000  Cu
  Cu7      1.0000 0.31364  0.55091  0.92409  Biso   1.000  Cu
  Cu8      1.0000 0.18636  0.05091  0.57591  Biso   1.000  Cu
  N1       1.0000 0.46050  0.04300  0.12885  Biso   1.000  N
  N2       1.0000 0.03950  0.54300  0.37115  Biso   1.000  N
  N3       1.0000 0.53950  0.95700  0.87115  Biso   1.000  N
  N4       1.0000 0.96050  0.45700  0.62885  Biso   1.000  N
  C1       1.0000 0.46480  0.23030  0.21070  Biso   1.000  C
  C2       1.0000 0.03520  0.73030  0.28930  Biso   1.000  C
  C3       1.0000 0.53520  0.76970  0.78930  Biso   1.000  C
  C4       1.0000 0.96480  0.26970  0.71070  Biso   1.000  C
  N5       1.0000 0.50780  0.24350  0.25180  Biso   1.000  N
  N6       1.0000 0.99220  0.74350  0.24820  Biso   1.000  N
  N7       1.0000 0.49220  0.75650  0.74820  Biso   1.000  N
  N8       1.0000 0.00780  0.25650  0.75180  Biso   1.000  N
  N9       1.0000 0.27770  0.12500  0.17093  Biso   1.000  N
  N10      1.0000 0.22230  0.62500  0.32907  Biso   1.000  N
  N11      1.0000 0.72230  0.87500  0.82907  Biso   1.000  N
  N12      1.0000 0.77770  0.37500  0.67093  Biso   1.000  N
  C5       1.0000 0.22610  0.34440  0.17470  Biso   1.000  C
  C6       1.0000 0.27390  0.84440  0.32530  Biso   1.000  C
  C7       1.0000 0.77390  0.65560  0.82530  Biso   1.000  C
  C8       1.0000 0.72610  0.15560  0.67470  Biso   1.000  C
  N13      1.0000 0.33080  0.18280  0.06756  Biso   1.000  N
  N14      1.0000 0.16920  0.68280  0.43244  Biso   1.000  N
  N15      1.0000 0.66920  0.81720  0.93244  Biso   1.000  N
  N16      1.0000 0.83080  0.31720  0.56756  Biso   1.000  N
  C9       1.0000 0.20940  0.21250  0.18650  Biso   1.000  C
  C10      1.0000 0.29060  0.71250  0.31350  Biso   1.000  C
  C11      1.0000 0.79060  0.78750  0.81350  Biso   1.000  C
  C12      1.0000 0.70940  0.28750  0.68650  Biso   1.000  C
  N17      1.0000 0.31220  0.36930  0.15082  Biso   1.000  N
  N18      1.0000 0.18780  0.86930  0.34918  Biso   1.000  N
  N19      1.0000 0.68780  0.63070  0.84918  Biso   1.000  N
  N20      1.0000 0.81220  0.13070  0.65082  Biso   1.000  N
  C13      1.0000 0.48750  0.55670  0.41750  Biso   1.000  C
  C14      1.0000 0.01250  0.05670  0.08250  Biso   1.000  C
  C15      1.0000 0.51250  0.44330  0.58250  Biso   1.000  C
  C16      1.0000 0.98750  0.94330  0.91750  Biso   1.000  C
  N21      1.0000 0.64770  0.46510  0.31527  Biso   1.000  N
  N22      1.0000 0.85230  0.96510  0.18473  Biso   1.000  N
  N23      1.0000 0.35230  0.53490  0.68473  Biso   1.000  N
  N24      1.0000 0.14770  0.03490  0.81527  Biso   1.000  N
  C17      1.0000 0.26100  0.99990  0.18040  Biso   1.000  C
  C18      1.0000 0.23900  0.49990  0.31960  Biso   1.000  C
  C19      1.0000 0.73900  0.00010  0.81960  Biso   1.000  C
  C20      1.0000 0.76100  0.50010  0.68040  Biso   1.000  C
  H1       1.0000 0.30630  0.93850  0.16960  Biso   1.000  H
  H2       1.0000 0.19370  0.43850  0.33040  Biso   1.000  H
  H3       1.0000 0.69370  0.06150  0.83040  Biso   1.000  H
  H4       1.0000 0.80630  0.56150  0.66960  Biso   1.000  H
  N25      1.0000 0.52110  0.35040  0.37658  Biso   1.000  N
  N26      1.0000 0.97890  0.85040  0.12342  Biso   1.000  N
  N27      1.0000 0.47890  0.64960  0.62342  Biso   1.000  N
  N28      1.0000 0.02110  0.14960  0.87658  Biso   1.000  N
  N29      1.0000 0.56850  0.36390  0.10030  Biso   1.000  N
  N30      1.0000 0.93150  0.86390  0.39970  Biso   1.000  N
  N31      1.0000 0.43150  0.63610  0.89970  Biso   1.000  N
  N32      1.0000 0.06850  0.13610  0.60030  Biso   1.000  N
  C21      1.0000 0.42800  0.99020  0.08110  Biso   1.000  C
  C22      1.0000 0.07200  0.49020  0.41890  Biso   1.000  C
  C23      1.0000 0.57200  0.00980  0.91890  Biso   1.000  C
  C24      1.0000 0.92800  0.50980  0.58110  Biso   1.000  C
  C25      1.0000 0.35860  0.06620  0.04770  Biso   1.000  C
  C26      1.0000 0.14140  0.56620  0.45230  Biso   1.000  C
  C27      1.0000 0.64140  0.93380  0.95230  Biso   1.000  C
  C28      1.0000 0.85860  0.43380  0.54770  Biso   1.000  C
  C29      1.0000 0.53660  0.48050  0.38250  Biso   1.000  C
  C30      1.0000 0.96340  0.98050  0.11750  Biso   1.000  C
  C31      1.0000 0.46340  0.51950  0.61750  Biso   1.000  C
  C32      1.0000 0.03660  0.01950  0.88250  Biso   1.000  C
  C33      1.0000 0.79770  0.41840  0.97830  Biso   1.000  C
  C34      1.0000 0.70230  0.91840  0.52170  Biso   1.000  C
  C35      1.0000 0.20230  0.58160  0.02170  Biso   1.000  C
  C36      1.0000 0.29770  0.08160  0.47830  Biso   1.000  C
  C37      1.0000 0.60690  0.54140  0.35080  Biso   1.000  C
  C38      1.0000 0.89310  0.04140  0.14920  Biso   1.000  C
  C39      1.0000 0.39310  0.45860  0.64920  Biso   1.000  C
  C40      1.0000 0.10690  0.95860  0.85080  Biso   1.000  C
  C41      1.0000 0.15800  0.44110  0.18800  Biso   1.000  C
  C42      1.0000 0.34200  0.94110  0.31200  Biso   1.000  C
  C43      1.0000 0.84200  0.55890  0.81200  Biso   1.000  C
  C44      1.0000 0.65800  0.05890  0.68800  Biso   1.000  C
  C45      1.0000 0.45820  0.29360  0.40660  Biso   1.000  C
  C46      1.0000 0.04180  0.79360  0.09340  Biso   1.000  C
  C47      1.0000 0.54180  0.70640  0.59340  Biso   1.000  C
  C48      1.0000 0.95820  0.20640  0.90660  Biso   1.000  C
  H5       1.0000 0.44940  0.20390  0.40400  Biso   1.000  H
  H6       1.0000 0.05060  0.70390  0.09600  Biso   1.000  H
  H7       1.0000 0.55060  0.79610  0.59600  Biso   1.000  H
  H8       1.0000 0.94940  0.29610  0.90400  Biso   1.000  H
  C49      1.0000 0.23830  0.23000  0.98390  Biso   1.000  C
  C50      1.0000 0.26170  0.73000  0.51610  Biso   1.000  C
  C51      1.0000 0.76170  0.77000  0.01610  Biso   1.000  C
  C52      1.0000 0.73830  0.27000  0.48390  Biso   1.000  C
  H9       1.0000 0.19900  0.28830  0.96240  Biso   1.000  H
  H10      1.0000 0.30100  0.78830  0.53760  Biso   1.000  H
  H11      1.0000 0.80100  0.71170  0.03760  Biso   1.000  H
  H12      1.0000 0.69900  0.21170  0.46240  Biso   1.000  H
  C53      1.0000 0.27080  0.26120  0.03660  Biso   1.000  C
  C54      1.0000 0.22920  0.76120  0.46340  Biso   1.000  C
  C55      1.0000 0.72920  0.73880  0.96340  Biso   1.000  C
  C56      1.0000 0.77080  0.23880  0.53660  Biso   1.000  C
  H13      1.0000 0.24930  0.33930  0.05010  Biso   1.000  H
  H14      1.0000 0.25070  0.83930  0.44990  Biso   1.000  H
  H15      1.0000 0.75070  0.66070  0.94990  Biso   1.000  H
  H16      1.0000 0.74930  0.16070  0.55010  Biso   1.000  H
  C57      1.0000 0.12500  0.17600  0.21330  Biso   1.000  C
  C58      1.0000 0.37500  0.67600  0.28670  Biso   1.000  C
  C59      1.0000 0.87500  0.82400  0.78670  Biso   1.000  C
  C60      1.0000 0.62500  0.32400  0.71330  Biso   1.000  C
  C61      1.0000 0.69900  0.72790  0.32560  Biso   1.000  C
  C62      1.0000 0.80100  0.22790  0.17440  Biso   1.000  C
  C63      1.0000 0.30100  0.27210  0.67440  Biso   1.000  C
  C64      1.0000 0.19900  0.77210  0.82560  Biso   1.000  C
  H17      1.0000 0.71810  0.81490  0.32950  Biso   1.000  H
  H18      1.0000 0.78190  0.31490  0.17050  Biso   1.000  H
  H19      1.0000 0.28190  0.18510  0.67050  Biso   1.000  H
  H20      1.0000 0.21810  0.68510  0.82950  Biso   1.000  H
  C65      1.0000 0.50320  0.30540  0.11510  Biso   1.000  C
  C66      1.0000 0.99680  0.80540  0.38490  Biso   1.000  C
  C67      1.0000 0.49680  0.69460  0.88490  Biso   1.000  C
  C68      1.0000 0.00320  0.19460  0.61510  Biso   1.000  C
  C69      1.0000 0.32860  0.49320  0.13840  Biso   1.000  C
  C70      1.0000 0.17140  0.99320  0.36160  Biso   1.000  C
  C71      1.0000 0.67140  0.50680  0.86160  Biso   1.000  C
  C72      1.0000 0.82860  0.00680  0.63840  Biso   1.000  C
  H21      1.0000 0.38570  0.51310  0.12150  Biso   1.000  H
  H22      1.0000 0.11430  0.01310  0.37850  Biso   1.000  H
  H23      1.0000 0.61430  0.48690  0.87850  Biso   1.000  H
  H24      1.0000 0.88570  0.98690  0.62150  Biso   1.000  H
  C73      1.0000 0.17850  0.95620  0.20590  Biso   1.000  C
  C74      1.0000 0.32150  0.45620  0.29410  Biso   1.000  C
  C75      1.0000 0.82150  0.04380  0.79410  Biso   1.000  C
  C76      1.0000 0.67850  0.54380  0.70590  Biso   1.000  C
  H25      1.0000 0.16920  0.86750  0.21110  Biso   1.000  H
  H26      1.0000 0.33080  0.36750  0.28890  Biso   1.000  H
  H27      1.0000 0.83080  0.13250  0.78890  Biso   1.000  H
  H28      1.0000 0.66920  0.63250  0.71110  Biso   1.000  H
  C77      1.0000 0.62850  0.67440  0.35740  Biso   1.000  C
  C78      1.0000 0.87150  0.17440  0.14260  Biso   1.000  C
  C79      1.0000 0.37150  0.32560  0.64260  Biso   1.000  C
  C80      1.0000 0.12850  0.82560  0.85740  Biso   1.000  C
  C81      1.0000 0.07330  0.40230  0.21460  Biso   1.000  C
  C82      1.0000 0.42670  0.90230  0.28540  Biso   1.000  C
  C83      1.0000 0.92670  0.59770  0.78540  Biso   1.000  C
  C84      1.0000 0.57330  0.09770  0.71460  Biso   1.000  C
  H29      1.0000 0.02700  0.46520  0.22320  Biso   1.000  H
  H30      1.0000 0.47300  0.96520  0.27680  Biso   1.000  H
  H31      1.0000 0.97300  0.53480  0.77680  Biso   1.000  H
  H32      1.0000 0.52700  0.03480  0.72320  Biso   1.000  H
  C85      1.0000 0.52870  0.97500  0.15980  Biso   1.000  C
  C86      1.0000 0.97130  0.47500  0.34020  Biso   1.000  C
  C87      1.0000 0.47130  0.02500  0.84020  Biso   1.000  C
  C88      1.0000 0.02870  0.52500  0.65980  Biso   1.000  C
  H33      1.0000 0.55340  0.01000  0.19210  Biso   1.000  H
  H34      1.0000 0.94660  0.51000  0.30790  Biso   1.000  H
  H35      1.0000 0.44660  0.99000  0.80790  Biso   1.000  H
  H36      1.0000 0.05340  0.49000  0.69210  Biso   1.000  H
  C89      1.0000 0.11210  0.04400  0.22310  Biso   1.000  C
  C90      1.0000 0.38790  0.54400  0.27690  Biso   1.000  C
  C91      1.0000 0.88790  0.95600  0.77690  Biso   1.000  C
  C92      1.0000 0.61210  0.45600  0.72310  Biso   1.000  C
  H37      1.0000 0.05870  0.01610  0.24130  Biso   1.000  H
  H38      1.0000 0.44130  0.51610  0.25870  Biso   1.000  H
  H39      1.0000 0.94130  0.98390  0.75870  Biso   1.000  H
  H40      1.0000 0.55870  0.48390  0.74130  Biso   1.000  H
  C93      1.0000 0.46160  0.86880  0.06450  Biso   1.000  C
  C94      1.0000 0.03840  0.36880  0.43550  Biso   1.000  C
  C95      1.0000 0.53840  0.13120  0.93550  Biso   1.000  C
  C96      1.0000 0.96160  0.63120  0.56450  Biso   1.000  C
  C97      1.0000 0.41920  0.49250  0.44650  Biso   1.000  C
  C98      1.0000 0.08080  0.99250  0.05350  Biso   1.000  C
  C99      1.0000 0.58080  0.50750  0.55350  Biso   1.000  C
  C100     1.0000 0.91920  0.00750  0.94650  Biso   1.000  C
  H41      1.0000 0.38310  0.53970  0.46930  Biso   1.000  H
  H42      1.0000 0.11690  0.03970  0.03070  Biso   1.000  H
  H43      1.0000 0.61690  0.46030  0.53070  Biso   1.000  H
  H44      1.0000 0.88310  0.96030  0.96930  Biso   1.000  H
  C101     1.0000 0.26600  0.11180  0.96520  Biso   1.000  C
  C102     1.0000 0.23400  0.61180  0.53480  Biso   1.000  C
  C103     1.0000 0.73400  0.88820  0.03480  Biso   1.000  C
  C104     1.0000 0.76600  0.38820  0.46520  Biso   1.000  C
  H45      1.0000 0.24360  0.08880  0.93080  Biso   1.000  H
  H46      1.0000 0.25640  0.58880  0.56920  Biso   1.000  H
  H47      1.0000 0.75640  0.91120  0.06920  Biso   1.000  H
  H48      1.0000 0.74360  0.41120  0.43080  Biso   1.000  H
  C105     1.0000 0.53140  0.79940  0.09890  Biso   1.000  C
  C106     1.0000 0.96860  0.29940  0.40110  Biso   1.000  C
  C107     1.0000 0.46860  0.20060  0.90110  Biso   1.000  C
  C108     1.0000 0.03140  0.70060  0.59890  Biso   1.000  C
  H49      1.0000 0.55470  0.71790  0.08980  Biso   1.000  H
  H50      1.0000 0.94530  0.21790  0.41020  Biso   1.000  H
  H51      1.0000 0.44530  0.28210  0.91020  Biso   1.000  H
  H52      1.0000 0.05470  0.78210  0.58980  Biso   1.000  H
  C109     1.0000 0.40480  0.36180  0.44190  Biso   1.000  C
  C110     1.0000 0.09520  0.86180  0.05810  Biso   1.000  C
  C111     1.0000 0.59520  0.63820  0.55810  Biso   1.000  C
  C112     1.0000 0.90480  0.13820  0.94190  Biso   1.000  C
  H53      1.0000 0.36030  0.31870  0.46170  Biso   1.000  H
  H54      1.0000 0.13970  0.81870  0.03830  Biso   1.000  H
  H55      1.0000 0.63970  0.68130  0.53830  Biso   1.000  H
  H56      1.0000 0.86030  0.18130  0.96170  Biso   1.000  H
  C113     1.0000 0.17970  0.56940  0.17460  Biso   1.000  C
  C114     1.0000 0.32030  0.06940  0.32540  Biso   1.000  C
  C115     1.0000 0.82030  0.43060  0.82540  Biso   1.000  C
  C116     1.0000 0.67970  0.93060  0.67460  Biso   1.000  C
  H57      1.0000 0.13720  0.63720  0.18260  Biso   1.000  H
  H58      1.0000 0.36280  0.13720  0.31740  Biso   1.000  H
  H59      1.0000 0.86280  0.36280  0.81740  Biso   1.000  H
  H60      1.0000 0.63720  0.86280  0.68260  Biso   1.000  H
  C117     1.0000 0.42400  0.82770  0.01210  Biso   1.000  C
  C118     1.0000 0.07600  0.32770  0.48790  Biso   1.000  C
  C119     1.0000 0.57600  0.17230  0.98790  Biso   1.000  C
  C120     1.0000 0.92400  0.67230  0.51210  Biso   1.000  C
  H61      1.0000 0.44400  0.74720  0.00020  Biso   1.000  H
  H62      1.0000 0.05600  0.24720  0.49980  Biso   1.000  H
  H63      1.0000 0.55600  0.25280  0.99980  Biso   1.000  H
  H64      1.0000 0.94400  0.75280  0.50020  Biso   1.000  H
  C121     1.0000 0.56480  0.85400  0.14620  Biso   1.000  C
  C122     1.0000 0.93520  0.35400  0.35380  Biso   1.000  C
  C123     1.0000 0.43520  0.14600  0.85380  Biso   1.000  C
  C124     1.0000 0.06480  0.64600  0.64620  Biso   1.000  C
  H65      1.0000 0.61210  0.80970  0.16940  Biso   1.000  H
  H66      1.0000 0.88790  0.30970  0.33060  Biso   1.000  H
  H67      1.0000 0.38790  0.19030  0.83060  Biso   1.000  H
  H68      1.0000 0.11210  0.69030  0.66940  Biso   1.000  H
  C125     1.0000 0.36100  0.90310  0.98020  Biso   1.000  C
  C126     1.0000 0.13900  0.40310  0.51980  Biso   1.000  C
  C127     1.0000 0.63900  0.09690  0.01980  Biso   1.000  C
  C128     1.0000 0.86100  0.59690  0.48020  Biso   1.000  C
  H69      1.0000 0.33910  0.87390  0.94660  Biso   1.000  H
  H70      1.0000 0.16090  0.37390  0.55340  Biso   1.000  H
  H71      1.0000 0.66090  0.12610  0.05340  Biso   1.000  H
  H72      1.0000 0.83910  0.62610  0.44660  Biso   1.000  H
  C129     1.0000 0.05850  0.27800  0.22750  Biso   1.000  C
  C130     1.0000 0.44150  0.77800  0.27250  Biso   1.000  C
  C131     1.0000 0.94150  0.72200  0.77250  Biso   1.000  C
  C132     1.0000 0.55850  0.22200  0.72750  Biso   1.000  C
  H73      1.0000 0.00390  0.25720  0.24610  Biso   1.000  H
  H74      1.0000 0.49610  0.75720  0.25390  Biso   1.000  H
  H75      1.0000 0.99610  0.74280  0.75390  Biso   1.000  H
  H76      1.0000 0.50390  0.24280  0.74610  Biso   1.000  H
  C133     1.0000 0.26340  0.59360  0.14980  Biso   1.000  C
  C134     1.0000 0.23660  0.09360  0.35020  Biso   1.000  C
  C135     1.0000 0.73660  0.40640  0.85020  Biso   1.000  C
  C136     1.0000 0.76340  0.90640  0.64980  Biso   1.000  C
  H77      1.0000 0.27760  0.67850  0.14040  Biso   1.000  H
  H78      1.0000 0.22240  0.17850  0.35960  Biso   1.000  H
  H79      1.0000 0.72240  0.32150  0.85960  Biso   1.000  H
  H80      1.0000 0.77760  0.82150  0.64040  Biso   1.000  H
  C137     1.0000 0.57850  0.74900  0.39380  Biso   1.000  C
  C138     1.0000 0.92150  0.24900  0.10620  Biso   1.000  C
  C139     1.0000 0.42150  0.25100  0.60620  Biso   1.000  C
  C140     1.0000 0.07850  0.75100  0.89380  Biso   1.000  C
  H81      1.0000 0.59280  0.83740  0.39800  Biso   1.000  H
  H82      1.0000 0.90720  0.33740  0.10200  Biso   1.000  H
  H83      1.0000 0.40720  0.16260  0.60200  Biso   1.000  H
  H84      1.0000 0.09280  0.66260  0.89800  Biso   1.000  H
  C141     1.0000 0.32710  0.02590  0.99650  Biso   1.000  C
  C142     1.0000 0.17290  0.52590  0.50350  Biso   1.000  C
  C143     1.0000 0.67290  0.97410  0.00350  Biso   1.000  C
  C144     1.0000 0.82710  0.47410  0.49650  Biso   1.000  C
  C145     1.0000 0.71090  0.52260  0.28570  Biso   1.000  C
  C146     1.0000 0.78910  0.02260  0.21430  Biso   1.000  C
  C147     1.0000 0.28910  0.47740  0.71430  Biso   1.000  C
  C148     1.0000 0.21090  0.97740  0.78570  Biso   1.000  C
  H85      1.0000 0.73820  0.47220  0.26070  Biso   1.000  H
  H86      1.0000 0.76180  0.97220  0.23930  Biso   1.000  H
  H87      1.0000 0.26180  0.52780  0.73930  Biso   1.000  H
  H88      1.0000 0.23820  0.02780  0.76070  Biso   1.000  H
  C149     1.0000 0.51110  0.69180  0.42180  Biso   1.000  C
  C150     1.0000 0.98890  0.19180  0.07820  Biso   1.000  C
  C151     1.0000 0.48890  0.30820  0.57820  Biso   1.000  C
  C152     1.0000 0.01110  0.80820  0.92180  Biso   1.000  C
  H89      1.0000 0.47850  0.74220  0.44500  Biso   1.000  H
  H90      1.0000 0.02150  0.24220  0.05500  Biso   1.000  H
  H91      1.0000 0.52150  0.25780  0.55500  Biso   1.000  H
  H92      1.0000 0.97850  0.75780  0.94500  Biso   1.000  H
  C153     1.0000 0.73910  0.65370  0.28950  Biso   1.000  C
  C154     1.0000 0.76090  0.15370  0.21050  Biso   1.000  C
  C155     1.0000 0.26090  0.34630  0.71050  Biso   1.000  C
  C156     1.0000 0.23910  0.84630  0.78950  Biso   1.000  C
  H93      1.0000 0.78420  0.68900  0.26790  Biso   1.000  H
  H94      1.0000 0.71580  0.18900  0.23210  Biso   1.000  H
  H95      1.0000 0.21580  0.31100  0.73210  Biso   1.000  H
  H96      1.0000 0.28420  0.81100  0.76790  Biso   1.000  H
  N33      1.0000 0.75290  0.42900  0.01320  Biso   1.000  N
  N34      1.0000 0.74710  0.92900  0.48680  Biso   1.000  N
  N35      1.0000 0.24710  0.57100  0.98680  Biso   1.000  N
  N36      1.0000 0.25290  0.07100  0.51320  Biso   1.000  N
  C157     1.0000 0.69680  0.14190  0.34590  Biso   1.000  C
  C158     1.0000 0.80320  0.64190  0.15410  Biso   1.000  C
  C159     1.0000 0.30320  0.85810  0.65410  Biso   1.000  C
  C160     1.0000 0.19680  0.35810  0.84590  Biso   1.000  C
  N37      1.0000 0.74960  0.06760  0.36870  Biso   1.000  N
  N38      1.0000 0.75040  0.56760  0.13130  Biso   1.000  N
  N39      1.0000 0.25040  0.93240  0.63130  Biso   1.000  N
  N40      1.0000 0.24960  0.43240  0.86870  Biso   1.000  N
  O1       1.0000 0.49700  0.01300  0.46590  Biso   1.000  O
  O2       1.0000 0.00300  0.51300  0.03410  Biso   1.000  O
  O3       1.0000 0.50300  0.98700  0.53410  Biso   1.000  O
  O4       1.0000 0.99700  0.48700  0.96590  Biso   1.000  O
  O5       1.0000 0.93200  0.04900  0.30530  Biso   1.000  O
  O6       1.0000 0.56800  0.54900  0.19470  Biso   1.000  O
  O7       1.0000 0.06800  0.95100  0.69470  Biso   1.000  O
  O8       1.0000 0.43200  0.45100  0.80530  Biso   1.000  O
