data_image0
_cell_length_a       8.345
_cell_length_b       10.653
_cell_length_c       14.929
_cell_angle_alpha    99.357
_cell_angle_beta     102.672
_cell_angle_gamma    93.668

_symmetry_space_group_name_H-M    "P 1"
_symmetry_int_tables_number       1

loop_
  _symmetry_equiv_pos_as_xyz
  'x, y, z'

loop_
  _atom_site_label
  _atom_site_occupancy
  _atom_site_fract_x
  _atom_site_fract_y
  _atom_site_fract_z
  _atom_site_thermal_displace_type
  _atom_site_B_iso_or_equiv
  _atom_site_type_symbol
  Fe1      1.0000 0.25854  0.25510  0.74875  Biso   1.000  Fe
  Fe2      1.0000 0.74146  0.74490  0.25125  Biso   1.000  Fe
  C1       1.0000 0.07570  0.17680  0.88480  Biso   1.000  C
  C2       1.0000 0.92430  0.82320  0.11520  Biso   1.000  C
  H1       1.0000 0.98790  0.14790  0.83360  Biso   1.000  H
  H2       1.0000 0.01210  0.85210  0.16640  Biso   1.000  H
  N1       1.0000 0.21590  0.22940  0.87014  Biso   1.000  N
  N2       1.0000 0.78410  0.77060  0.12986  Biso   1.000  N
  Cu1      1.0000 0.57995  0.64481  0.53635  Biso   1.000  Cu
  Cu2      1.0000 0.42005  0.35519  0.46365  Biso   1.000  Cu
  C3       1.0000 0.05520  0.16330  0.97200  Biso   1.000  C
  C4       1.0000 0.94480  0.83670  0.02800  Biso   1.000  C
  H3       1.0000 0.95580  0.12640  0.97920  Biso   1.000  H
  H4       1.0000 0.04420  0.87360  0.02080  Biso   1.000  H
  N3       1.0000 0.47190  0.33170  0.82930  Biso   1.000  N
  N4       1.0000 0.52810  0.66830  0.17070  Biso   1.000  N
  Cu3      1.0000 0.06749  0.69299  0.79607  Biso   1.000  Cu
  Cu4      1.0000 0.93251  0.30701  0.20393  Biso   1.000  Cu
  C5       1.0000 0.18510  0.20550  0.04830  Biso   1.000  C
  C6       1.0000 0.81490  0.79450  0.95170  Biso   1.000  C
  H5       1.0000 0.17390  0.19860  0.10800  Biso   1.000  H
  H6       1.0000 0.82610  0.80140  0.89200  Biso   1.000  H
  N5       1.0000 0.32900  0.08010  0.72924  Biso   1.000  N
  N6       1.0000 0.67100  0.91990  0.27076  Biso   1.000  N
  Cu5      1.0000 0.50000  0.00000  0.00000  Biso   1.000  Cu
  C7       1.0000 0.33270  0.25840  0.03510  Biso   1.000  C
  C8       1.0000 0.66730  0.74160  0.96490  Biso   1.000  C
  H7       1.0000 0.42250  0.28540  0.08540  Biso   1.000  H
  H8       1.0000 0.57750  0.71460  0.91460  Biso   1.000  H
  N7       1.0000 0.04750  0.16290  0.67442  Biso   1.000  N
  N8       1.0000 0.95250  0.83710  0.32558  Biso   1.000  N
  Cu6      1.0000 0.00000  0.50000  0.50000  Biso   1.000  Cu
  C9       1.0000 0.34400  0.27050  0.94500  Biso   1.000  C
  C10      1.0000 0.65600  0.72950  0.05500  Biso   1.000  C
  N9       1.0000 0.13980  0.52100  0.78143  Biso   1.000  N
  N10      1.0000 0.86020  0.47900  0.21857  Biso   1.000  N
  C11      1.0000 0.49000  0.32960  0.92200  Biso   1.000  C
  C12      1.0000 0.51000  0.67040  0.07800  Biso   1.000  C
  N11      1.0000 0.35350  0.29470  0.56776  Biso   1.000  N
  N12      1.0000 0.64650  0.70530  0.43224  Biso   1.000  N
  C13      1.0000 0.63440  0.38070  0.98760  Biso   1.000  C
  C14      1.0000 0.36560  0.61930  0.01240  Biso   1.000  C
  H9       1.0000 0.64320  0.37900  0.05050  Biso   1.000  H
  H10      1.0000 0.35680  0.62100  0.94950  Biso   1.000  H
  N13      1.0000 0.85360  0.69120  0.71590  Biso   1.000  N
  N14      1.0000 0.14640  0.30880  0.28410  Biso   1.000  N
  C15      1.0000 0.76460  0.43400  0.95840  Biso   1.000  C
  C16      1.0000 0.23540  0.56600  0.04160  Biso   1.000  C
  H11      1.0000 0.86250  0.46750  0.00130  Biso   1.000  H
  H12      1.0000 0.13750  0.53250  0.99870  Biso   1.000  H
  N15      1.0000 0.31450  0.90140  0.92700  Biso   1.000  N
  N16      1.0000 0.68550  0.09860  0.07300  Biso   1.000  N
  C17      1.0000 0.74740  0.43680  0.86420  Biso   1.000  C
  C18      1.0000 0.25260  0.56320  0.13580  Biso   1.000  C
  H13      1.0000 0.83380  0.47200  0.84290  Biso   1.000  H
  H14      1.0000 0.16620  0.52800  0.15710  Biso   1.000  H
  N17      1.0000 0.34870  0.59660  0.51680  Biso   1.000  N
  N18      1.0000 0.65130  0.40340  0.48320  Biso   1.000  N
  C19      1.0000 0.59930  0.38620  0.80220  Biso   1.000  C
  C20      1.0000 0.40070  0.61380  0.19780  Biso   1.000  C
  H15      1.0000 0.58750  0.39000  0.73930  Biso   1.000  H
  H16      1.0000 0.41250  0.61000  0.26070  Biso   1.000  H
  C21      1.0000 0.48140  0.04620  0.75850  Biso   1.000  C
  C22      1.0000 0.51860  0.95380  0.24150  Biso   1.000  C
  H17      1.0000 0.56490  0.10960  0.79140  Biso   1.000  H
  H18      1.0000 0.43510  0.89040  0.20860  Biso   1.000  H
  C23      1.0000 0.51970  0.92200  0.74200  Biso   1.000  C
  C24      1.0000 0.48030  0.07800  0.25800  Biso   1.000  C
  H19      1.0000 0.62740  0.90290  0.76230  Biso   1.000  H
  H20      1.0000 0.37260  0.09710  0.23770  Biso   1.000  H
  C25      1.0000 0.39630  0.82580  0.69500  Biso   1.000  C
  C26      1.0000 0.60370  0.17420  0.30500  Biso   1.000  C
  H21      1.0000 0.41840  0.74090  0.68510  Biso   1.000  H
  H22      1.0000 0.58160  0.25910  0.31490  Biso   1.000  H
  C27      1.0000 0.23870  0.85970  0.66300  Biso   1.000  C
  C28      1.0000 0.76130  0.14030  0.33700  Biso   1.000  C
  H23      1.0000 0.15400  0.79740  0.62980  Biso   1.000  H
  H24      1.0000 0.84600  0.20260  0.37020  Biso   1.000  H
  C29      1.0000 0.20810  0.98710  0.68090  Biso   1.000  C
  C30      1.0000 0.79190  0.01290  0.31910  Biso   1.000  C
  C31      1.0000 0.04780  0.03410  0.64860  Biso   1.000  C
  C32      1.0000 0.95220  0.96590  0.35140  Biso   1.000  C
  C33      1.0000 0.90730  0.95790  0.59540  Biso   1.000  C
  C34      1.0000 0.09270  0.04210  0.40460  Biso   1.000  C
  H25      1.0000 0.91030  0.87030  0.57840  Biso   1.000  H
  H26      1.0000 0.08970  0.12970  0.42160  Biso   1.000  H
  C35      1.0000 0.76260  0.01250  0.56760  Biso   1.000  C
  C36      1.0000 0.23740  0.98750  0.43240  Biso   1.000  C
  H27      1.0000 0.66740  0.96240  0.53230  Biso   1.000  H
  H28      1.0000 0.33260  0.03760  0.46770  Biso   1.000  H
  C37      1.0000 0.76290  0.14290  0.59350  Biso   1.000  C
  C38      1.0000 0.23710  0.85710  0.40650  Biso   1.000  C
  H29      1.0000 0.66700  0.18180  0.57630  Biso   1.000  H
  H30      1.0000 0.33300  0.81820  0.42370  Biso   1.000  H
  C39      1.0000 0.90660  0.21520  0.64530  Biso   1.000  C
  C40      1.0000 0.09340  0.78480  0.35470  Biso   1.000  C
  H31      1.0000 0.90610  0.30330  0.66070  Biso   1.000  H
  H32      1.0000 0.09390  0.69670  0.33930  Biso   1.000  H
  C41      1.0000 0.17990  0.42030  0.76530  Biso   1.000  C
  C42      1.0000 0.82010  0.57970  0.23470  Biso   1.000  C
  C43      1.0000 0.31640  0.28230  0.63610  Biso   1.000  C
  C44      1.0000 0.68360  0.71770  0.36390  Biso   1.000  C
  C45      1.0000 0.74090  0.67850  0.65180  Biso   1.000  C
  C46      1.0000 0.25910  0.32150  0.34820  Biso   1.000  C
  C47      1.0000 0.21080  0.82720  0.87910  Biso   1.000  C
  C48      1.0000 0.78920  0.17280  0.12090  Biso   1.000  C
  C49      1.0000 0.20920  0.56770  0.50950  Biso   1.000  C
  C50      1.0000 0.79080  0.43230  0.49050  Biso   1.000  C
