data_image0
_cell_length_a       5.1765
_cell_length_b       15.095
_cell_length_c       6.4715
_cell_angle_alpha    90
_cell_angle_beta     103.229
_cell_angle_gamma    90

_symmetry_space_group_name_H-M    "P 1"
_symmetry_int_tables_number       1

loop_
  _symmetry_equiv_pos_as_xyz
  'x, y, z'

loop_
  _atom_site_label
  _atom_site_occupancy
  _atom_site_fract_x
  _atom_site_fract_y
  _atom_site_fract_z
  _atom_site_thermal_displace_type
  _atom_site_B_iso_or_equiv
  _atom_site_type_symbol
  Cu1      1.0000 0.05273  0.28913  0.32769  Biso   1.000  Cu
  Cu2      1.0000 0.94727  0.78913  0.17231  Biso   1.000  Cu
  Cu3      1.0000 0.94727  0.71087  0.67231  Biso   1.000  Cu
  Cu4      1.0000 0.05273  0.21087  0.82769  Biso   1.000  Cu
  N1       1.0000 0.82100  0.28070  0.02180  Biso   1.000  N
  N2       1.0000 0.17900  0.78070  0.47820  Biso   1.000  N
  N3       1.0000 0.17900  0.71930  0.97820  Biso   1.000  N
  N4       1.0000 0.82100  0.21930  0.52180  Biso   1.000  N
  N5       1.0000 0.58920  0.28404  0.94250  Biso   1.000  N
  N6       1.0000 0.41080  0.78404  0.55750  Biso   1.000  N
  N7       1.0000 0.41080  0.71596  0.05750  Biso   1.000  N
  N8       1.0000 0.58920  0.21596  0.44250  Biso   1.000  N
  N9       1.0000 0.04100  0.41390  0.43600  Biso   1.000  N
  N10      1.0000 0.95900  0.91390  0.06400  Biso   1.000  N
  N11      1.0000 0.95900  0.58610  0.56400  Biso   1.000  N
  N12      1.0000 0.04100  0.08610  0.93600  Biso   1.000  N
  C1       1.0000 0.14100  0.48400  0.35130  Biso   1.000  C
  C2       1.0000 0.85900  0.98400  0.14870  Biso   1.000  C
  C3       1.0000 0.85900  0.51600  0.64870  Biso   1.000  C
  C4       1.0000 0.14100  0.01600  0.85130  Biso   1.000  C
  N13      1.0000 0.36610  0.28940  0.85660  Biso   1.000  N
  N14      1.0000 0.63390  0.78940  0.64340  Biso   1.000  N
  N15      1.0000 0.63390  0.71060  0.14340  Biso   1.000  N
  N16      1.0000 0.36610  0.21060  0.35660  Biso   1.000  N
  C5       1.0000 0.29830  0.46710  0.18860  Biso   1.000  C
  C6       1.0000 0.70170  0.96710  0.31140  Biso   1.000  C
  C7       1.0000 0.70170  0.53290  0.81140  Biso   1.000  C
  C8       1.0000 0.29830  0.03290  0.68860  Biso   1.000  C
  H1       1.0000 0.43750  0.42560  0.24390  Biso   1.000  H
  H2       1.0000 0.56250  0.92560  0.25610  Biso   1.000  H
  H3       1.0000 0.56250  0.57440  0.75610  Biso   1.000  H
  H4       1.0000 0.43750  0.07440  0.74390  Biso   1.000  H
  H5       1.0000 0.37430  0.52160  0.15450  Biso   1.000  H
  H6       1.0000 0.62570  0.02160  0.34550  Biso   1.000  H
  H7       1.0000 0.62570  0.47840  0.84550  Biso   1.000  H
  H8       1.0000 0.37430  0.97840  0.65450  Biso   1.000  H
  H9       1.0000 0.18430  0.44310  0.06290  Biso   1.000  H
  H10      1.0000 0.81570  0.94310  0.43710  Biso   1.000  H
  H11      1.0000 0.81570  0.55690  0.93710  Biso   1.000  H
  H12      1.0000 0.18430  0.05690  0.56290  Biso   1.000  H
  C9       1.0000 0.90320  0.43160  0.58350  Biso   1.000  C
  C10      1.0000 0.09680  0.93160  0.91650  Biso   1.000  C
  C11      1.0000 0.09680  0.56840  0.41650  Biso   1.000  C
  C12      1.0000 0.90320  0.06840  0.08350  Biso   1.000  C
  H13      1.0000 0.83380  0.38420  0.64510  Biso   1.000  H
  H14      1.0000 0.16620  0.88420  0.85490  Biso   1.000  H
  H15      1.0000 0.16620  0.61580  0.35490  Biso   1.000  H
  H16      1.0000 0.83380  0.11580  0.14510  Biso   1.000  H
