data_image0
_cell_length_a       5.822
_cell_length_b       12.448
_cell_length_c       13.298
_cell_angle_alpha    90
_cell_angle_beta     93.36
_cell_angle_gamma    90

_symmetry_space_group_name_H-M    "P 1"
_symmetry_int_tables_number       1

loop_
  _symmetry_equiv_pos_as_xyz
  'x, y, z'

loop_
  _atom_site_label
  _atom_site_occupancy
  _atom_site_fract_x
  _atom_site_fract_y
  _atom_site_fract_z
  _atom_site_thermal_displace_type
  _atom_site_B_iso_or_equiv
  _atom_site_type_symbol
  Cu1      1.0000 0.11049  0.10201  0.00478  Biso   1.000  Cu
  Cu2      1.0000 0.61049  0.39799  0.50478  Biso   1.000  Cu
  Cu3      1.0000 0.88951  0.89799  0.99522  Biso   1.000  Cu
  Cu4      1.0000 0.38951  0.60201  0.49522  Biso   1.000  Cu
  S1       1.0000 0.16574  0.94536  0.12432  Biso   1.000  S
  S2       1.0000 0.66574  0.55464  0.62432  Biso   1.000  S
  S3       1.0000 0.83426  0.05464  0.87568  Biso   1.000  S
  S4       1.0000 0.33426  0.44536  0.37568  Biso   1.000  S
  N1       1.0000 0.59300  0.88510  0.05424  Biso   1.000  N
  N2       1.0000 0.09300  0.61490  0.55424  Biso   1.000  N
  N3       1.0000 0.40700  0.11490  0.94576  Biso   1.000  N
  N4       1.0000 0.90700  0.38510  0.44576  Biso   1.000  N
  N5       1.0000 0.98150  0.21781  0.09091  Biso   1.000  N
  N6       1.0000 0.48150  0.28219  0.59091  Biso   1.000  N
  N7       1.0000 0.01850  0.78219  0.90909  Biso   1.000  N
  N8       1.0000 0.51850  0.71781  0.40909  Biso   1.000  N
  O1       1.0000 0.97280  0.58961  0.17261  Biso   1.000  O
  O2       1.0000 0.47280  0.91039  0.67261  Biso   1.000  O
  O3       1.0000 0.02720  0.41039  0.82739  Biso   1.000  O
  O4       1.0000 0.52720  0.08961  0.32739  Biso   1.000  O
  O5       1.0000 0.27310  0.51670  0.10056  Biso   1.000  O
  O6       1.0000 0.77310  0.98330  0.60056  Biso   1.000  O
  O7       1.0000 0.72690  0.48330  0.89944  Biso   1.000  O
  O8       1.0000 0.22690  0.01670  0.39944  Biso   1.000  O
  C1       1.0000 0.41650  0.90900  0.08267  Biso   1.000  C
  C2       1.0000 0.91650  0.59100  0.58267  Biso   1.000  C
  C3       1.0000 0.58350  0.09100  0.91733  Biso   1.000  C
  C4       1.0000 0.08350  0.40900  0.41733  Biso   1.000  C
  C5       1.0000 0.79010  0.20134  0.14148  Biso   1.000  C
  C6       1.0000 0.29010  0.29866  0.64148  Biso   1.000  C
  C7       1.0000 0.20990  0.79866  0.85852  Biso   1.000  C
  C8       1.0000 0.70990  0.70134  0.35852  Biso   1.000  C
  H1       1.0000 0.73100  0.13200  0.13860  Biso   1.000  H
  H2       1.0000 0.23100  0.36800  0.63860  Biso   1.000  H
  H3       1.0000 0.26900  0.86800  0.86140  Biso   1.000  H
  H4       1.0000 0.76900  0.63200  0.36140  Biso   1.000  H
  C9       1.0000 0.68260  0.28190  0.19186  Biso   1.000  C
  C10      1.0000 0.18260  0.21810  0.69186  Biso   1.000  C
  C11      1.0000 0.31740  0.71810  0.80814  Biso   1.000  C
  C12      1.0000 0.81740  0.78190  0.30814  Biso   1.000  C
  H5       1.0000 0.55000  0.26500  0.23100  Biso   1.000  H
  H6       1.0000 0.05000  0.23500  0.73100  Biso   1.000  H
  H7       1.0000 0.45000  0.73500  0.76900  Biso   1.000  H
  H8       1.0000 0.95000  0.76500  0.26900  Biso   1.000  H
  C13      1.0000 0.77250  0.38363  0.19088  Biso   1.000  C
  C14      1.0000 0.27250  0.11637  0.69088  Biso   1.000  C
  C15      1.0000 0.22750  0.61637  0.80912  Biso   1.000  C
  C16      1.0000 0.72750  0.88363  0.30912  Biso   1.000  C
  H9       1.0000 0.71600  0.43600  0.22180  Biso   1.000  H
  H10      1.0000 0.21600  0.06400  0.72180  Biso   1.000  H
  H11      1.0000 0.28400  0.56400  0.77820  Biso   1.000  H
  H12      1.0000 0.78400  0.93600  0.27820  Biso   1.000  H
  C17      1.0000 0.97060  0.40259  0.14061  Biso   1.000  C
  C18      1.0000 0.47060  0.09741  0.64061  Biso   1.000  C
  C19      1.0000 0.02940  0.59741  0.85939  Biso   1.000  C
  C20      1.0000 0.52940  0.90259  0.35939  Biso   1.000  C
  C21      1.0000 0.06960  0.31734  0.09181  Biso   1.000  C
  C22      1.0000 0.56960  0.18266  0.59181  Biso   1.000  C
  C23      1.0000 0.93040  0.68266  0.90819  Biso   1.000  C
  C24      1.0000 0.43040  0.81734  0.40819  Biso   1.000  C
  H13      1.0000 0.20100  0.32760  0.05780  Biso   1.000  H
  H14      1.0000 0.70100  0.17240  0.55780  Biso   1.000  H
  H15      1.0000 0.79900  0.67240  0.94220  Biso   1.000  H
  H16      1.0000 0.29900  0.82760  0.44220  Biso   1.000  H
  C25      1.0000 0.06930  0.51308  0.14065  Biso   1.000  C
  C26      1.0000 0.56930  0.98692  0.64065  Biso   1.000  C
  C27      1.0000 0.93070  0.48692  0.85935  Biso   1.000  C
  C28      1.0000 0.43070  0.01308  0.35935  Biso   1.000  C
  C29      1.0000 0.38600  0.62060  0.10200  Biso   1.000  C
  C30      1.0000 0.88600  0.87940  0.60200  Biso   1.000  C
  C31      1.0000 0.61400  0.37940  0.89800  Biso   1.000  C
  C32      1.0000 0.11400  0.12060  0.39800  Biso   1.000  C
  H17      1.0000 0.40300  0.64700  0.17400  Biso   1.000  H
  H18      1.0000 0.90300  0.85300  0.67400  Biso   1.000  H
  H19      1.0000 0.59700  0.35300  0.82600  Biso   1.000  H
  H20      1.0000 0.09700  0.14700  0.32600  Biso   1.000  H
  H21      1.0000 0.50900  0.61400  0.06800  Biso   1.000  H
  H22      1.0000 0.00900  0.88600  0.56800  Biso   1.000  H
  H23      1.0000 0.49100  0.38600  0.93200  Biso   1.000  H
  H24      1.0000 0.99100  0.11400  0.43200  Biso   1.000  H
  H25      1.0000 0.31000  0.67600  0.06800  Biso   1.000  H
  H26      1.0000 0.81000  0.82400  0.56800  Biso   1.000  H
  H27      1.0000 0.69000  0.32400  0.93200  Biso   1.000  H
  H28      1.0000 0.19000  0.17600  0.43200  Biso   1.000  H
