data_image0
_cell_length_a       3.896
_cell_length_b       10.732
_cell_length_c       12.423
_cell_angle_alpha    90
_cell_angle_beta     93.12
_cell_angle_gamma    90

_symmetry_space_group_name_H-M    "P 1"
_symmetry_int_tables_number       1

loop_
  _symmetry_equiv_pos_as_xyz
  'x, y, z'

loop_
  _atom_site_label
  _atom_site_occupancy
  _atom_site_fract_x
  _atom_site_fract_y
  _atom_site_fract_z
  _atom_site_thermal_displace_type
  _atom_site_B_iso_or_equiv
  _atom_site_type_symbol
  Cu1      1.0000 0.72251  0.90837  0.45433  Biso   1.000  Cu
  Cu2      1.0000 0.27749  0.40837  0.54567  Biso   1.000  Cu
  S1       1.0000 0.22780  0.96663  0.55739  Biso   1.000  S
  S2       1.0000 0.77220  0.46663  0.44261  Biso   1.000  S
  N1       1.0000 0.26380  0.22780  0.55690  Biso   1.000  N
  N2       1.0000 0.73620  0.72780  0.44310  Biso   1.000  N
  N3       1.0000 0.63410  0.01430  0.31990  Biso   1.000  N
  N4       1.0000 0.36590  0.51430  0.68010  Biso   1.000  N
  C1       1.0000 0.24520  0.12000  0.55650  Biso   1.000  C
  C2       1.0000 0.75480  0.62000  0.44350  Biso   1.000  C
  C3       1.0000 0.37390  0.04020  0.14150  Biso   1.000  C
  C4       1.0000 0.62610  0.54020  0.85850  Biso   1.000  C
  C5       1.0000 0.38780  0.16770  0.15060  Biso   1.000  C
  C6       1.0000 0.61220  0.66770  0.84940  Biso   1.000  C
  H1       1.0000 0.30170  0.21900  0.09520  Biso   1.000  H
  H2       1.0000 0.69830  0.71900  0.90480  Biso   1.000  H
  C7       1.0000 0.53610  0.21740  0.24600  Biso   1.000  C
  C8       1.0000 0.46390  0.71740  0.75400  Biso   1.000  C
  H3       1.0000 0.55620  0.30330  0.25440  Biso   1.000  H
  H4       1.0000 0.44380  0.80330  0.74560  Biso   1.000  H
  C9       1.0000 0.65090  0.13990  0.32660  Biso   1.000  C
  C10      1.0000 0.34910  0.63990  0.67340  Biso   1.000  C
  H5       1.0000 0.74620  0.17510  0.38970  Biso   1.000  H
  H6       1.0000 0.25380  0.67510  0.61030  Biso   1.000  H
  C11      1.0000 0.49950  0.96800  0.22540  Biso   1.000  C
  C12      1.0000 0.50050  0.46800  0.77460  Biso   1.000  C
  H7       1.0000 0.49200  0.88190  0.21700  Biso   1.000  H
  H8       1.0000 0.50800  0.38190  0.78300  Biso   1.000  H
  C13      1.0000 0.23170  0.97760  0.04130  Biso   1.000  C
  C14      1.0000 0.76830  0.47760  0.95870  Biso   1.000  C
  C15      1.0000 0.95220  0.01210  0.86930  Biso   1.000  C
  C16      1.0000 0.04780  0.51210  0.13070  Biso   1.000  C
  H9       1.0000 0.77180  0.95260  0.88230  Biso   1.000  H
  H10      1.0000 0.22820  0.45260  0.11770  Biso   1.000  H
  H11      1.0000 0.12710  0.97060  0.82970  Biso   1.000  H
  H12      1.0000 0.87290  0.47060  0.17030  Biso   1.000  H
  C17      1.0000 0.80790  0.12110  0.80600  Biso   1.000  C
  C18      1.0000 0.19210  0.62110  0.19400  Biso   1.000  C
  H13      1.0000 0.70350  0.09230  0.73880  Biso   1.000  H
  H14      1.0000 0.29650  0.59230  0.26120  Biso   1.000  H
  H15      1.0000 0.98960  0.17840  0.79230  Biso   1.000  H
  H16      1.0000 0.01040  0.67840  0.20770  Biso   1.000  H
  H17      1.0000 0.63840  0.16230  0.84650  Biso   1.000  H
  H18      1.0000 0.36160  0.66230  0.15350  Biso   1.000  H
  O1       1.0000 0.29590  0.87370  0.01700  Biso   1.000  O
  O2       1.0000 0.70410  0.37370  0.98300  Biso   1.000  O
  O3       1.0000 0.14500  0.86340  0.03710  Biso   1.000  O
  O4       1.0000 0.85500  0.36340  0.96290  Biso   1.000  O
  O5       1.0000 0.09980  0.05980  0.97050  Biso   1.000  O
  O6       1.0000 0.90020  0.55980  0.02950  Biso   1.000  O
