data_image0
_cell_length_a       10.196
_cell_length_b       10.71
_cell_length_c       13.59
_cell_angle_alpha    82.447
_cell_angle_beta     84.181
_cell_angle_gamma    84.62

_symmetry_space_group_name_H-M    "P 1"
_symmetry_int_tables_number       1

loop_
  _symmetry_equiv_pos_as_xyz
  'x, y, z'

loop_
  _atom_site_label
  _atom_site_occupancy
  _atom_site_fract_x
  _atom_site_fract_y
  _atom_site_fract_z
  _atom_site_thermal_displace_type
  _atom_site_B_iso_or_equiv
  _atom_site_type_symbol
  Cu1      1.0000 0.52519  0.84937  0.85846  Biso   1.000  Cu
  Cu2      1.0000 0.47481  0.15063  0.14154  Biso   1.000  Cu
  P1       1.0000 0.34264  0.86788  0.78490  Biso   1.000  P
  P2       1.0000 0.65736  0.13212  0.21510  Biso   1.000  P
  N1       1.0000 0.59380  0.70280  0.95810  Biso   1.000  N
  N2       1.0000 0.40620  0.29720  0.04190  Biso   1.000  N
  N3       1.0000 0.52230  0.93950  0.98850  Biso   1.000  N
  N4       1.0000 0.47770  0.06050  0.01150  Biso   1.000  N
  N5       1.0000 0.68490  0.88600  0.76130  Biso   1.000  N
  N6       1.0000 0.31510  0.11400  0.23870  Biso   1.000  N
  C1       1.0000 0.64460  0.58930  0.94150  Biso   1.000  C
  C2       1.0000 0.35540  0.41070  0.05850  Biso   1.000  C
  H1       1.0000 0.63980  0.56530  0.87880  Biso   1.000  H
  H2       1.0000 0.36020  0.43470  0.12120  Biso   1.000  H
  C3       1.0000 0.70440  0.50360  0.01130  Biso   1.000  C
  C4       1.0000 0.29560  0.49640  0.98870  Biso   1.000  C
  H3       1.0000 0.73990  0.42460  0.99600  Biso   1.000  H
  H4       1.0000 0.26010  0.57540  0.00400  Biso   1.000  H
  C5       1.0000 0.70970  0.53920  0.10380  Biso   1.000  C
  C6       1.0000 0.29030  0.46080  0.89620  Biso   1.000  C
  H5       1.0000 0.75020  0.48440  0.15270  Biso   1.000  H
  H6       1.0000 0.24980  0.51560  0.84730  Biso   1.000  H
  C7       1.0000 0.65590  0.65360  0.12340  Biso   1.000  C
  C8       1.0000 0.34410  0.34640  0.87660  Biso   1.000  C
  H7       1.0000 0.65560  0.67720  0.18690  Biso   1.000  H
  H8       1.0000 0.34440  0.32280  0.81310  Biso   1.000  H
  C9       1.0000 0.60170  0.73530  0.04960  Biso   1.000  C
  C10      1.0000 0.39830  0.26470  0.95040  Biso   1.000  C
  C11      1.0000 0.55270  0.86230  0.06310  Biso   1.000  C
  C12      1.0000 0.44730  0.13770  0.93690  Biso   1.000  C
  H9       1.0000 0.54330  0.88790  0.12640  Biso   1.000  H
  H10      1.0000 0.45670  0.11210  0.87360  Biso   1.000  H
  C13      1.0000 0.73040  0.80260  0.69860  Biso   1.000  C
  C14      1.0000 0.26960  0.19740  0.30140  Biso   1.000  C
  H11      1.0000 0.69530  0.72440  0.70740  Biso   1.000  H
  H12      1.0000 0.30470  0.27560  0.29260  Biso   1.000  H
  C15      1.0000 0.82460  0.82600  0.62300  Biso   1.000  C
  C16      1.0000 0.17540  0.17400  0.37700  Biso   1.000  C
  H13      1.0000 0.85320  0.76350  0.58240  Biso   1.000  H
  H14      1.0000 0.14680  0.23650  0.41760  Biso   1.000  H
  C17      1.0000 0.87800  0.93750  0.60510  Biso   1.000  C
  C18      1.0000 0.12200  0.06250  0.39490  Biso   1.000  C
  C19      1.0000 0.83730  0.02010  0.67090  Biso   1.000  C
  C20      1.0000 0.16270  0.97990  0.32910  Biso   1.000  C
  H15      1.0000 0.87490  0.09690  0.66470  Biso   1.000  H
  H16      1.0000 0.12510  0.90310  0.33530  Biso   1.000  H
  C21      1.0000 0.73980  0.99210  0.74790  Biso   1.000  C
  C22      1.0000 0.26020  0.00790  0.25210  Biso   1.000  C
  H17      1.0000 0.71300  0.05170  0.79140  Biso   1.000  H
  H18      1.0000 0.28700  0.94830  0.20860  Biso   1.000  H
  C23      1.0000 0.97540  0.95920  0.51920  Biso   1.000  C
  C24      1.0000 0.02460  0.04080  0.48080  Biso   1.000  C
  H19      1.0000 0.00180  0.88590  0.49010  Biso   1.000  H
  H20      1.0000 0.99820  0.11410  0.50990  Biso   1.000  H
  C25      1.0000 0.30020  0.02480  0.72410  Biso   1.000  C
  C26      1.0000 0.69980  0.97520  0.27590  Biso   1.000  C
  C27      1.0000 0.39150  0.08010  0.65500  Biso   1.000  C
  C28      1.0000 0.60850  0.91990  0.34500  Biso   1.000  C
  H21      1.0000 0.47230  0.03560  0.63990  Biso   1.000  H
  H22      1.0000 0.52770  0.96440  0.36010  Biso   1.000  H
  C29      1.0000 0.36570  0.20070  0.60730  Biso   1.000  C
  C30      1.0000 0.63430  0.79930  0.39270  Biso   1.000  C
  H23      1.0000 0.42990  0.23820  0.56250  Biso   1.000  H
  H24      1.0000 0.57010  0.76180  0.43750  Biso   1.000  H
  C31      1.0000 0.24580  0.26450  0.62610  Biso   1.000  C
  C32      1.0000 0.75420  0.73550  0.37390  Biso   1.000  C
  H25      1.0000 0.22630  0.34420  0.59220  Biso   1.000  H
  H26      1.0000 0.77370  0.65580  0.40780  Biso   1.000  H
  C33      1.0000 0.15610  0.21180  0.69360  Biso   1.000  C
  C34      1.0000 0.84390  0.78820  0.30640  Biso   1.000  C
  H27      1.0000 0.07490  0.25610  0.70760  Biso   1.000  H
  H28      1.0000 0.92510  0.74390  0.29240  Biso   1.000  H
  C35      1.0000 0.18260  0.09350  0.74250  Biso   1.000  C
  C36      1.0000 0.81740  0.90650  0.25750  Biso   1.000  C
  H29      1.0000 0.11880  0.05890  0.78940  Biso   1.000  H
  H30      1.0000 0.88120  0.94110  0.21060  Biso   1.000  H
  C37      1.0000 0.19640  0.82910  0.86410  Biso   1.000  C
  C38      1.0000 0.80360  0.17090  0.13590  Biso   1.000  C
  C39      1.0000 0.18800  0.85220  0.96220  Biso   1.000  C
  C40      1.0000 0.81200  0.14780  0.03780  Biso   1.000  C
  H31      1.0000 0.25810  0.88580  0.98550  Biso   1.000  H
  H32      1.0000 0.74190  0.11420  0.01450  Biso   1.000  H
  C41      1.0000 0.07870  0.82670  0.02530  Biso   1.000  C
  C42      1.0000 0.92130  0.17330  0.97470  Biso   1.000  C
  H33      1.0000 0.07600  0.84160  0.09140  Biso   1.000  H
  H34      1.0000 0.92400  0.15840  0.90860  Biso   1.000  H
  C43      1.0000 0.97750  0.78160  0.99450  Biso   1.000  C
  C44      1.0000 0.02250  0.21840  0.00550  Biso   1.000  C
  H35      1.0000 0.90150  0.77040  0.03760  Biso   1.000  H
  H36      1.0000 0.09850  0.22960  0.96240  Biso   1.000  H
  C45      1.0000 0.98220  0.74980  0.89660  Biso   1.000  C
  C46      1.0000 0.01780  0.25020  0.10340  Biso   1.000  C
  H37      1.0000 0.91350  0.71080  0.87630  Biso   1.000  H
  H38      1.0000 0.08650  0.28920  0.12370  Biso   1.000  H
  C47      1.0000 0.09040  0.77760  0.83230  Biso   1.000  C
  C48      1.0000 0.90960  0.22240  0.16770  Biso   1.000  C
  H39      1.0000 0.09300  0.76190  0.76640  Biso   1.000  H
  H40      1.0000 0.90700  0.23810  0.23360  Biso   1.000  H
  C49      1.0000 0.34640  0.76900  0.68620  Biso   1.000  C
  C50      1.0000 0.65360  0.23100  0.31380  Biso   1.000  C
  C51      1.0000 0.41490  0.65450  0.69440  Biso   1.000  C
  C52      1.0000 0.58510  0.34550  0.30560  Biso   1.000  C
  H41      1.0000 0.46380  0.63120  0.74900  Biso   1.000  H
  H42      1.0000 0.53620  0.36880  0.25100  Biso   1.000  H
  C53      1.0000 0.41550  0.56980  0.62500  Biso   1.000  C
  C54      1.0000 0.58450  0.43020  0.37500  Biso   1.000  C
  H43      1.0000 0.46220  0.49090  0.63380  Biso   1.000  H
  H44      1.0000 0.53780  0.50910  0.36620  Biso   1.000  H
  C55      1.0000 0.34560  0.60550  0.54330  Biso   1.000  C
  C56      1.0000 0.65440  0.39450  0.45670  Biso   1.000  C
  H45      1.0000 0.34410  0.55070  0.49580  Biso   1.000  H
  H46      1.0000 0.65590  0.44930  0.50420  Biso   1.000  H
  C57      1.0000 0.27900  0.72130  0.53250  Biso   1.000  C
  C58      1.0000 0.72100  0.27870  0.46750  Biso   1.000  C
  H47      1.0000 0.23270  0.74570  0.47670  Biso   1.000  H
  H48      1.0000 0.76730  0.25430  0.52330  Biso   1.000  H
  C59      1.0000 0.27840  0.80240  0.60150  Biso   1.000  C
  C60      1.0000 0.72160  0.19760  0.39850  Biso   1.000  C
  H49      1.0000 0.23190  0.88140  0.59200  Biso   1.000  H
  H50      1.0000 0.76810  0.11860  0.40800  Biso   1.000  H
  B1       1.0000 0.70490  0.34200  0.74630  Biso   1.000  B
  B2       1.0000 0.29510  0.65800  0.25370  Biso   1.000  B
  F1       1.0000 0.82540  0.30000  0.70410  Biso   1.000  F
  F2       1.0000 0.17460  0.70000  0.29590  Biso   1.000  F
  F3       1.0000 0.61020  0.28750  0.70660  Biso   1.000  F
  F4       1.0000 0.38980  0.71250  0.29340  Biso   1.000  F
  F5       1.0000 0.69700  0.30590  0.84710  Biso   1.000  F
  F6       1.0000 0.30300  0.69410  0.15290  Biso   1.000  F
  F7       1.0000 0.68180  0.46870  0.72880  Biso   1.000  F
  F8       1.0000 0.31820  0.53130  0.27120  Biso   1.000  F
  B3       1.0000 0.78510  0.39720  0.73160  Biso   1.000  B
  B4       1.0000 0.21490  0.60280  0.26840  Biso   1.000  B
  F9       1.0000 0.70400  0.49600  0.69370  Biso   1.000  F
  F10      1.0000 0.29600  0.50400  0.30630  Biso   1.000  F
  F11      1.0000 0.85900  0.43890  0.79660  Biso   1.000  F
  F12      1.0000 0.14100  0.56110  0.20340  Biso   1.000  F
  F13      1.0000 0.86510  0.35380  0.65490  Biso   1.000  F
  F14      1.0000 0.13490  0.64620  0.34510  Biso   1.000  F
  F15      1.0000 0.71600  0.30100  0.78000  Biso   1.000  F
  F16      1.0000 0.28400  0.69900  0.22000  Biso   1.000  F
