data_image0
_cell_length_a       9.89
_cell_length_b       17.645
_cell_length_c       15.414
_cell_angle_alpha    90
_cell_angle_beta     90.96
_cell_angle_gamma    90

_symmetry_space_group_name_H-M    "P 1"
_symmetry_int_tables_number       1

loop_
  _symmetry_equiv_pos_as_xyz
  'x, y, z'

loop_
  _atom_site_label
  _atom_site_occupancy
  _atom_site_fract_x
  _atom_site_fract_y
  _atom_site_fract_z
  _atom_site_thermal_displace_type
  _atom_site_B_iso_or_equiv
  _atom_site_type_symbol
  Cu1      1.0000 0.27780  0.21680  0.37980  Biso   1.000  Cu
  Cu2      1.0000 0.22220  0.71680  0.12020  Biso   1.000  Cu
  Cu3      1.0000 0.72220  0.78320  0.62020  Biso   1.000  Cu
  Cu4      1.0000 0.77780  0.28320  0.87980  Biso   1.000  Cu
  Cu5      1.0000 0.24780  0.52885  0.38800  Biso   1.000  Cu
  Cu6      1.0000 0.25220  0.02885  0.11200  Biso   1.000  Cu
  Cu7      1.0000 0.75220  0.47115  0.61200  Biso   1.000  Cu
  Cu8      1.0000 0.74780  0.97115  0.88800  Biso   1.000  Cu
  O1       1.0000 0.29900  0.14160  0.47110  Biso   1.000  O
  O2       1.0000 0.20100  0.64160  0.02890  Biso   1.000  O
  O3       1.0000 0.70100  0.85840  0.52890  Biso   1.000  O
  O4       1.0000 0.79900  0.35840  0.97110  Biso   1.000  O
  O5       1.0000 0.23600  0.22740  0.55530  Biso   1.000  O
  O6       1.0000 0.26400  0.72740  0.94470  Biso   1.000  O
  O7       1.0000 0.76400  0.77260  0.44470  Biso   1.000  O
  O8       1.0000 0.73600  0.27260  0.05530  Biso   1.000  O
  C1       1.0000 0.27300  0.16470  0.54540  Biso   1.000  C
  C2       1.0000 0.22700  0.66470  0.95460  Biso   1.000  C
  C3       1.0000 0.72700  0.83530  0.45460  Biso   1.000  C
  C4       1.0000 0.77300  0.33530  0.04540  Biso   1.000  C
  C5       1.0000 0.28800  0.11030  0.61900  Biso   1.000  C
  C6       1.0000 0.21200  0.61030  0.88100  Biso   1.000  C
  C7       1.0000 0.71200  0.88970  0.38100  Biso   1.000  C
  C8       1.0000 0.78800  0.38970  0.11900  Biso   1.000  C
  C9       1.0000 0.28800  0.14380  0.70800  Biso   1.000  C
  C10      1.0000 0.21200  0.64380  0.79200  Biso   1.000  C
  C11      1.0000 0.71200  0.85620  0.29200  Biso   1.000  C
  C12      1.0000 0.78800  0.35620  0.20800  Biso   1.000  C
  C13      1.0000 0.29500  0.09160  0.78010  Biso   1.000  C
  C14      1.0000 0.20500  0.59160  0.71990  Biso   1.000  C
  C15      1.0000 0.70500  0.90840  0.21990  Biso   1.000  C
  C16      1.0000 0.79500  0.40840  0.28010  Biso   1.000  C
  C17      1.0000 0.27800  0.12520  0.86450  Biso   1.000  C
  C18      1.0000 0.22200  0.62520  0.63550  Biso   1.000  C
  C19      1.0000 0.72200  0.87480  0.13550  Biso   1.000  C
  C20      1.0000 0.77800  0.37480  0.36450  Biso   1.000  C
  C21      1.0000 0.27800  0.06950  0.94370  Biso   1.000  C
  C22      1.0000 0.22200  0.56950  0.55630  Biso   1.000  C
  C23      1.0000 0.72200  0.93050  0.05630  Biso   1.000  C
  C24      1.0000 0.77800  0.43050  0.44370  Biso   1.000  C
  O9       1.0000 0.25300  0.09920  0.01500  Biso   1.000  O
  O10      1.0000 0.24700  0.59920  0.48500  Biso   1.000  O
  O11      1.0000 0.74700  0.90080  0.98500  Biso   1.000  O
  O12      1.0000 0.75300  0.40080  0.51500  Biso   1.000  O
  O13      1.0000 0.28500  0.00110  0.92930  Biso   1.000  O
  O14      1.0000 0.21500  0.50110  0.57070  Biso   1.000  O
  O15      1.0000 0.71500  0.99890  0.07070  Biso   1.000  O
  O16      1.0000 0.78500  0.49890  0.42930  Biso   1.000  O
  C25      1.0000 0.39900  0.30890  0.39500  Biso   1.000  C
  C26      1.0000 0.10100  0.80890  0.10500  Biso   1.000  C
  C27      1.0000 0.60100  0.69110  0.60500  Biso   1.000  C
  C28      1.0000 0.89900  0.19110  0.89500  Biso   1.000  C
  C29      1.0000 0.34100  0.30820  0.31160  Biso   1.000  C
  C30      1.0000 0.15900  0.80820  0.18840  Biso   1.000  C
  C31      1.0000 0.65900  0.69180  0.68840  Biso   1.000  C
  C32      1.0000 0.84100  0.19180  0.81160  Biso   1.000  C
  C33      1.0000 0.23900  0.37390  0.31220  Biso   1.000  C
  C34      1.0000 0.26100  0.87390  0.18780  Biso   1.000  C
  C35      1.0000 0.76100  0.62610  0.68780  Biso   1.000  C
  C36      1.0000 0.73900  0.12610  0.81220  Biso   1.000  C
  C37      1.0000 0.32600  0.44440  0.31300  Biso   1.000  C
  C38      1.0000 0.17400  0.94440  0.18700  Biso   1.000  C
  C39      1.0000 0.67400  0.55560  0.68700  Biso   1.000  C
  C40      1.0000 0.82600  0.05560  0.81300  Biso   1.000  C
  C41      1.0000 0.38700  0.44480  0.39790  Biso   1.000  C
  C42      1.0000 0.11300  0.94480  0.10210  Biso   1.000  C
  C43      1.0000 0.61300  0.55520  0.60210  Biso   1.000  C
  C44      1.0000 0.88700  0.05520  0.89790  Biso   1.000  C
  C45      1.0000 0.33600  0.37400  0.44390  Biso   1.000  C
  C46      1.0000 0.16400  0.87400  0.05610  Biso   1.000  C
  C47      1.0000 0.66400  0.62600  0.55610  Biso   1.000  C
  C48      1.0000 0.83600  0.12600  0.94390  Biso   1.000  C
  C49      1.0000 0.19100  0.37090  0.40900  Biso   1.000  C
  C50      1.0000 0.30900  0.87090  0.09100  Biso   1.000  C
  C51      1.0000 0.80900  0.62910  0.59100  Biso   1.000  C
  C52      1.0000 0.69100  0.12910  0.90900  Biso   1.000  C
  N1       1.0000 0.13160  0.16920  0.30900  Biso   1.000  N
  N2       1.0000 0.36840  0.66920  0.19100  Biso   1.000  N
  N3       1.0000 0.86840  0.83080  0.69100  Biso   1.000  N
  N4       1.0000 0.63160  0.33080  0.80900  Biso   1.000  N
  C53      1.0000 0.04600  0.11950  0.34410  Biso   1.000  C
  C54      1.0000 0.45400  0.61950  0.15590  Biso   1.000  C
  C55      1.0000 0.95400  0.88050  0.65590  Biso   1.000  C
  C56      1.0000 0.54600  0.38050  0.84410  Biso   1.000  C
  C57      1.0000 0.94200  0.08660  0.29990  Biso   1.000  C
  C58      1.0000 0.55800  0.58660  0.20010  Biso   1.000  C
  C59      1.0000 0.05800  0.91340  0.70010  Biso   1.000  C
  C60      1.0000 0.44200  0.41340  0.79990  Biso   1.000  C
  C61      1.0000 0.92900  0.10020  0.21600  Biso   1.000  C
  C62      1.0000 0.57100  0.60020  0.28400  Biso   1.000  C
  C63      1.0000 0.07100  0.89980  0.78400  Biso   1.000  C
  C64      1.0000 0.42900  0.39980  0.71600  Biso   1.000  C
  C65      1.0000 0.01500  0.15080  0.17110  Biso   1.000  C
  C66      1.0000 0.48500  0.65080  0.32890  Biso   1.000  C
  C67      1.0000 0.98500  0.84920  0.82890  Biso   1.000  C
  C68      1.0000 0.51500  0.34920  0.67110  Biso   1.000  C
  C69      1.0000 0.11300  0.18080  0.22250  Biso   1.000  C
  C70      1.0000 0.38700  0.68080  0.27750  Biso   1.000  C
  C71      1.0000 0.88700  0.81920  0.77750  Biso   1.000  C
  C72      1.0000 0.61300  0.31920  0.72250  Biso   1.000  C
  N5       1.0000 0.09740  0.57540  0.31670  Biso   1.000  N
  N6       1.0000 0.40260  0.07540  0.18330  Biso   1.000  N
  N7       1.0000 0.90260  0.42460  0.68330  Biso   1.000  N
  N8       1.0000 0.59740  0.92460  0.81670  Biso   1.000  N
  C73      1.0000 0.01000  0.62280  0.35490  Biso   1.000  C
  C74      1.0000 0.49000  0.12280  0.14510  Biso   1.000  C
  C75      1.0000 0.99000  0.37720  0.64510  Biso   1.000  C
  C76      1.0000 0.51000  0.87720  0.85490  Biso   1.000  C
  C77      1.0000 0.91000  0.65900  0.30760  Biso   1.000  C
  C78      1.0000 0.59000  0.15900  0.19240  Biso   1.000  C
  C79      1.0000 0.09000  0.34100  0.69240  Biso   1.000  C
  C80      1.0000 0.41000  0.84100  0.80760  Biso   1.000  C
  C81      1.0000 0.89600  0.65070  0.22000  Biso   1.000  C
  C82      1.0000 0.60400  0.15070  0.28000  Biso   1.000  C
  C83      1.0000 0.10400  0.34930  0.78000  Biso   1.000  C
  C84      1.0000 0.39600  0.84930  0.72000  Biso   1.000  C
  C85      1.0000 0.99000  0.60190  0.18280  Biso   1.000  C
  C86      1.0000 0.51000  0.10190  0.31720  Biso   1.000  C
  C87      1.0000 0.01000  0.39810  0.81720  Biso   1.000  C
  C88      1.0000 0.49000  0.89810  0.68280  Biso   1.000  C
  C89      1.0000 0.08900  0.56700  0.22930  Biso   1.000  C
  C90      1.0000 0.41100  0.06700  0.27070  Biso   1.000  C
  C91      1.0000 0.91100  0.43300  0.77070  Biso   1.000  C
  C92      1.0000 0.58900  0.93300  0.72930  Biso   1.000  C
  N9       1.0000 0.26600  0.29280  0.04250  Biso   1.000  N
  N10      1.0000 0.23400  0.79280  0.45750  Biso   1.000  N
  N11      1.0000 0.73400  0.70720  0.95750  Biso   1.000  N
  N12      1.0000 0.76600  0.20720  0.54250  Biso   1.000  N
  C93      1.0000 0.38600  0.33130  0.05070  Biso   1.000  C
  C94      1.0000 0.11400  0.83130  0.44930  Biso   1.000  C
  C95      1.0000 0.61400  0.66870  0.94930  Biso   1.000  C
  C96      1.0000 0.88600  0.16870  0.55070  Biso   1.000  C
  C97      1.0000 0.39600  0.40830  0.06100  Biso   1.000  C
  C98      1.0000 0.10400  0.90830  0.43900  Biso   1.000  C
  C99      1.0000 0.60400  0.59170  0.93900  Biso   1.000  C
  C100     1.0000 0.89600  0.09170  0.56100  Biso   1.000  C
  C101     1.0000 0.27900  0.44580  0.05170  Biso   1.000  C
  C102     1.0000 0.22100  0.94580  0.44830  Biso   1.000  C
  C103     1.0000 0.72100  0.55420  0.94830  Biso   1.000  C
  C104     1.0000 0.77900  0.05420  0.55170  Biso   1.000  C
  C105     1.0000 0.15900  0.41370  0.04200  Biso   1.000  C
  C106     1.0000 0.34100  0.91370  0.45800  Biso   1.000  C
  C107     1.0000 0.84100  0.58630  0.95800  Biso   1.000  C
  C108     1.0000 0.65900  0.08630  0.54200  Biso   1.000  C
  C109     1.0000 0.15700  0.33990  0.03900  Biso   1.000  C
  C110     1.0000 0.34300  0.83990  0.46100  Biso   1.000  C
  C111     1.0000 0.84300  0.66010  0.96100  Biso   1.000  C
  C112     1.0000 0.65700  0.16010  0.53900  Biso   1.000  C
  H1       1.0000 0.21600  0.07500  0.61500  Biso   1.000  H
  H2       1.0000 0.28400  0.57500  0.88500  Biso   1.000  H
  H3       1.0000 0.78400  0.92500  0.38500  Biso   1.000  H
  H4       1.0000 0.71600  0.42500  0.11500  Biso   1.000  H
  H5       1.0000 0.37200  0.08400  0.61300  Biso   1.000  H
  H6       1.0000 0.12800  0.58400  0.88700  Biso   1.000  H
  H7       1.0000 0.62800  0.91600  0.38700  Biso   1.000  H
  H8       1.0000 0.87200  0.41600  0.11300  Biso   1.000  H
  H9       1.0000 0.36300  0.17700  0.71300  Biso   1.000  H
  H10      1.0000 0.13700  0.67700  0.78700  Biso   1.000  H
  H11      1.0000 0.63700  0.82300  0.28700  Biso   1.000  H
  H12      1.0000 0.86300  0.32300  0.21300  Biso   1.000  H
  H13      1.0000 0.20600  0.17200  0.71300  Biso   1.000  H
  H14      1.0000 0.29400  0.67200  0.78700  Biso   1.000  H
  H15      1.0000 0.79400  0.82800  0.28700  Biso   1.000  H
  H16      1.0000 0.70600  0.32800  0.21300  Biso   1.000  H
  H17      1.0000 0.22600  0.05500  0.77200  Biso   1.000  H
  H18      1.0000 0.27400  0.55500  0.72800  Biso   1.000  H
  H19      1.0000 0.77400  0.94500  0.22800  Biso   1.000  H
  H20      1.0000 0.72600  0.44500  0.27200  Biso   1.000  H
  H21      1.0000 0.38100  0.06800  0.77900  Biso   1.000  H
  H22      1.0000 0.11900  0.56800  0.72100  Biso   1.000  H
  H23      1.0000 0.61900  0.93200  0.22100  Biso   1.000  H
  H24      1.0000 0.88100  0.43200  0.27900  Biso   1.000  H
  H25      1.0000 0.35000  0.16000  0.87400  Biso   1.000  H
  H26      1.0000 0.15000  0.66000  0.62600  Biso   1.000  H
  H27      1.0000 0.65000  0.84000  0.12600  Biso   1.000  H
  H28      1.0000 0.85000  0.34000  0.37400  Biso   1.000  H
  H29      1.0000 0.19500  0.15200  0.86400  Biso   1.000  H
  H30      1.0000 0.30500  0.65200  0.63600  Biso   1.000  H
  H31      1.0000 0.80500  0.84800  0.13600  Biso   1.000  H
  H32      1.0000 0.69500  0.34800  0.36400  Biso   1.000  H
  H33      1.0000 0.46600  0.27500  0.41700  Biso   1.000  H
  H34      1.0000 0.03400  0.77500  0.08300  Biso   1.000  H
  H35      1.0000 0.53400  0.72500  0.58300  Biso   1.000  H
  H36      1.0000 0.96600  0.22500  0.91700  Biso   1.000  H
  H37      1.0000 0.36100  0.27500  0.26500  Biso   1.000  H
  H38      1.0000 0.13900  0.77500  0.23500  Biso   1.000  H
  H39      1.0000 0.63900  0.72500  0.73500  Biso   1.000  H
  H40      1.0000 0.86100  0.22500  0.76500  Biso   1.000  H
  H41      1.0000 0.17200  0.37200  0.26800  Biso   1.000  H
  H42      1.0000 0.32800  0.87200  0.23200  Biso   1.000  H
  H43      1.0000 0.82800  0.62800  0.73200  Biso   1.000  H
  H44      1.0000 0.67200  0.12800  0.76800  Biso   1.000  H
  H45      1.0000 0.33800  0.48000  0.26800  Biso   1.000  H
  H46      1.0000 0.16200  0.98000  0.23200  Biso   1.000  H
  H47      1.0000 0.66200  0.52000  0.73200  Biso   1.000  H
  H48      1.0000 0.83800  0.02000  0.76800  Biso   1.000  H
  H49      1.0000 0.44700  0.48200  0.42100  Biso   1.000  H
  H50      1.0000 0.05300  0.98200  0.07900  Biso   1.000  H
  H51      1.0000 0.55300  0.51800  0.57900  Biso   1.000  H
  H52      1.0000 0.94700  0.01800  0.92100  Biso   1.000  H
  H53      1.0000 0.35000  0.37300  0.50500  Biso   1.000  H
  H54      1.0000 0.15000  0.87300  0.99500  Biso   1.000  H
  H55      1.0000 0.65000  0.62700  0.49500  Biso   1.000  H
  H56      1.0000 0.85000  0.12700  0.00500  Biso   1.000  H
  H57      1.0000 0.13800  0.41300  0.42500  Biso   1.000  H
  H58      1.0000 0.36200  0.91300  0.07500  Biso   1.000  H
  H59      1.0000 0.86200  0.58700  0.57500  Biso   1.000  H
  H60      1.0000 0.63800  0.08700  0.92500  Biso   1.000  H
  H61      1.0000 0.14500  0.32500  0.42300  Biso   1.000  H
  H62      1.0000 0.35500  0.82500  0.07700  Biso   1.000  H
  H63      1.0000 0.85500  0.67500  0.57700  Biso   1.000  H
  H64      1.0000 0.64500  0.17500  0.92300  Biso   1.000  H
  H65      1.0000 0.06000  0.10600  0.40300  Biso   1.000  H
  H66      1.0000 0.44000  0.60600  0.09700  Biso   1.000  H
  H67      1.0000 0.94000  0.89400  0.59700  Biso   1.000  H
  H68      1.0000 0.56000  0.39400  0.90300  Biso   1.000  H
  H69      1.0000 0.87900  0.05500  0.32900  Biso   1.000  H
  H70      1.0000 0.62100  0.55500  0.17100  Biso   1.000  H
  H71      1.0000 0.12100  0.94500  0.67100  Biso   1.000  H
  H72      1.0000 0.37900  0.44500  0.82900  Biso   1.000  H
  H73      1.0000 0.86000  0.07500  0.18400  Biso   1.000  H
  H74      1.0000 0.64000  0.57500  0.31600  Biso   1.000  H
  H75      1.0000 0.14000  0.92500  0.81600  Biso   1.000  H
  H76      1.0000 0.36000  0.42500  0.68400  Biso   1.000  H
  H77      1.0000 0.00500  0.16200  0.11100  Biso   1.000  H
  H78      1.0000 0.49500  0.66200  0.38900  Biso   1.000  H
  H79      1.0000 0.99500  0.83800  0.88900  Biso   1.000  H
  H80      1.0000 0.50500  0.33800  0.61100  Biso   1.000  H
  H81      1.0000 0.17600  0.21400  0.19500  Biso   1.000  H
  H82      1.0000 0.32400  0.71400  0.30500  Biso   1.000  H
  H83      1.0000 0.82400  0.78600  0.80500  Biso   1.000  H
  H84      1.0000 0.67600  0.28600  0.69500  Biso   1.000  H
  H85      1.0000 0.01700  0.63100  0.41600  Biso   1.000  H
  H86      1.0000 0.48300  0.13100  0.08400  Biso   1.000  H
  H87      1.0000 0.98300  0.36900  0.58400  Biso   1.000  H
  H88      1.0000 0.51700  0.86900  0.91600  Biso   1.000  H
  H89      1.0000 0.84800  0.69100  0.33700  Biso   1.000  H
  H90      1.0000 0.65200  0.19100  0.16300  Biso   1.000  H
  H91      1.0000 0.15200  0.30900  0.66300  Biso   1.000  H
  H92      1.0000 0.34800  0.80900  0.83700  Biso   1.000  H
  H93      1.0000 0.82800  0.67600  0.18700  Biso   1.000  H
  H94      1.0000 0.67200  0.17600  0.31300  Biso   1.000  H
  H95      1.0000 0.17200  0.32400  0.81300  Biso   1.000  H
  H96      1.0000 0.32800  0.82400  0.68700  Biso   1.000  H
  H97      1.0000 0.98400  0.59300  0.12200  Biso   1.000  H
  H98      1.0000 0.51600  0.09300  0.37800  Biso   1.000  H
  H99      1.0000 0.01600  0.40700  0.87800  Biso   1.000  H
  H100     1.0000 0.48400  0.90700  0.62200  Biso   1.000  H
  H101     1.0000 0.15400  0.53600  0.20000  Biso   1.000  H
  H102     1.0000 0.34600  0.03600  0.30000  Biso   1.000  H
  H103     1.0000 0.84600  0.46400  0.80000  Biso   1.000  H
  H104     1.0000 0.65400  0.96400  0.70000  Biso   1.000  H
  H105     1.0000 0.46700  0.30300  0.04900  Biso   1.000  H
  H106     1.0000 0.03300  0.80300  0.45100  Biso   1.000  H
  H107     1.0000 0.53300  0.69700  0.95100  Biso   1.000  H
  H108     1.0000 0.96700  0.19700  0.54900  Biso   1.000  H
  H109     1.0000 0.47900  0.43300  0.07300  Biso   1.000  H
  H110     1.0000 0.02100  0.93300  0.42700  Biso   1.000  H
  H111     1.0000 0.52100  0.56700  0.92700  Biso   1.000  H
  H112     1.0000 0.97900  0.06700  0.57300  Biso   1.000  H
  H113     1.0000 0.28200  0.50000  0.05200  Biso   1.000  H
  H114     1.0000 0.21800  0.00000  0.44800  Biso   1.000  H
  H115     1.0000 0.71800  0.50000  0.94800  Biso   1.000  H
  H116     1.0000 0.78200  0.00000  0.55200  Biso   1.000  H
  H117     1.0000 0.07800  0.44300  0.03800  Biso   1.000  H
  H118     1.0000 0.42200  0.94300  0.46200  Biso   1.000  H
  H119     1.0000 0.92200  0.55700  0.96200  Biso   1.000  H
  H120     1.0000 0.57800  0.05700  0.53800  Biso   1.000  H
  H121     1.0000 0.07000  0.31700  0.03300  Biso   1.000  H
  H122     1.0000 0.43000  0.81700  0.46700  Biso   1.000  H
  H123     1.0000 0.93000  0.68300  0.96700  Biso   1.000  H
  H124     1.0000 0.57000  0.18300  0.53300  Biso   1.000  H
