data_image0
_cell_length_a       12.9062
_cell_length_b       29.7595
_cell_length_c       8.4509
_cell_angle_alpha    90
_cell_angle_beta     90
_cell_angle_gamma    90

_symmetry_space_group_name_H-M    "P 1"
_symmetry_int_tables_number       1

loop_
  _symmetry_equiv_pos_as_xyz
  'x, y, z'

loop_
  _atom_site_label
  _atom_site_occupancy
  _atom_site_fract_x
  _atom_site_fract_y
  _atom_site_fract_z
  _atom_site_thermal_displace_type
  _atom_site_B_iso_or_equiv
  _atom_site_type_symbol
  C1       1.0000 0.63970  0.98157  0.36010  Biso   1.000  C
  C2       1.0000 0.86030  0.01843  0.86010  Biso   1.000  C
  C3       1.0000 0.13970  0.51843  0.13990  Biso   1.000  C
  C4       1.0000 0.36030  0.48157  0.63990  Biso   1.000  C
  C5       1.0000 0.36030  0.01843  0.63990  Biso   1.000  C
  C6       1.0000 0.13970  0.98157  0.13990  Biso   1.000  C
  C7       1.0000 0.86030  0.48157  0.86010  Biso   1.000  C
  C8       1.0000 0.63970  0.51843  0.36010  Biso   1.000  C
  C9       1.0000 0.57830  0.01871  0.35830  Biso   1.000  C
  C10      1.0000 0.92170  0.98129  0.85830  Biso   1.000  C
  C11      1.0000 0.07830  0.48129  0.14170  Biso   1.000  C
  C12      1.0000 0.42170  0.51871  0.64170  Biso   1.000  C
  C13      1.0000 0.42170  0.98129  0.64170  Biso   1.000  C
  C14      1.0000 0.07830  0.01871  0.14170  Biso   1.000  C
  C15      1.0000 0.92170  0.51871  0.85830  Biso   1.000  C
  C16      1.0000 0.57830  0.48129  0.35830  Biso   1.000  C
  C17      1.0000 0.77960  0.92155  0.41030  Biso   1.000  C
  C18      1.0000 0.72040  0.07845  0.91030  Biso   1.000  C
  C19      1.0000 0.27960  0.57845  0.08970  Biso   1.000  C
  C20      1.0000 0.22040  0.42155  0.58970  Biso   1.000  C
  C21      1.0000 0.22040  0.07845  0.58970  Biso   1.000  C
  C22      1.0000 0.27960  0.92155  0.08970  Biso   1.000  C
  C23      1.0000 0.72040  0.42155  0.91030  Biso   1.000  C
  C24      1.0000 0.77960  0.57845  0.41030  Biso   1.000  C
  C25      1.0000 0.71990  0.90433  0.29430  Biso   1.000  C
  C26      1.0000 0.78010  0.09567  0.79430  Biso   1.000  C
  C27      1.0000 0.21990  0.59567  0.20570  Biso   1.000  C
  C28      1.0000 0.28010  0.40433  0.70570  Biso   1.000  C
  C29      1.0000 0.28010  0.09567  0.70570  Biso   1.000  C
  C30      1.0000 0.21990  0.90433  0.20570  Biso   1.000  C
  C31      1.0000 0.78010  0.40433  0.79430  Biso   1.000  C
  C32      1.0000 0.71990  0.59567  0.29430  Biso   1.000  C
  C33      1.0000 0.50340  0.09831  0.38840  Biso   1.000  C
  C34      1.0000 0.99660  0.90169  0.88840  Biso   1.000  C
  C35      1.0000 0.00340  0.40169  0.11160  Biso   1.000  C
  C36      1.0000 0.49660  0.59831  0.61160  Biso   1.000  C
  C37      1.0000 0.49660  0.90169  0.61160  Biso   1.000  C
  C38      1.0000 0.00340  0.09831  0.11160  Biso   1.000  C
  C39      1.0000 0.99660  0.59831  0.88840  Biso   1.000  C
  C40      1.0000 0.50340  0.40169  0.38840  Biso   1.000  C
  C41      1.0000 0.44550  0.07853  0.27540  Biso   1.000  C
  C42      1.0000 0.05450  0.92147  0.77540  Biso   1.000  C
  C43      1.0000 0.94550  0.42147  0.22460  Biso   1.000  C
  C44      1.0000 0.55450  0.57853  0.72460  Biso   1.000  C
  C45      1.0000 0.55450  0.92147  0.72460  Biso   1.000  C
  C46      1.0000 0.94550  0.07853  0.22460  Biso   1.000  C
  C47      1.0000 0.05450  0.57853  0.77540  Biso   1.000  C
  C48      1.0000 0.44550  0.42147  0.27540  Biso   1.000  C
  C49      1.0000 0.91120  0.84920  0.37920  Biso   1.000  C
  C50      1.0000 0.58880  0.15080  0.87920  Biso   1.000  C
  C51      1.0000 0.41120  0.65080  0.12080  Biso   1.000  C
  C52      1.0000 0.08880  0.34920  0.62080  Biso   1.000  C
  C53      1.0000 0.08880  0.15080  0.62080  Biso   1.000  C
  C54      1.0000 0.41120  0.84920  0.12080  Biso   1.000  C
  C55      1.0000 0.58880  0.34920  0.87920  Biso   1.000  C
  C56      1.0000 0.91120  0.65080  0.37920  Biso   1.000  C
  H1       1.0000 0.94800  0.85930  0.28130  Biso   1.000  H
  H2       1.0000 0.55200  0.14070  0.78130  Biso   1.000  H
  H3       1.0000 0.44800  0.64070  0.21870  Biso   1.000  H
  H4       1.0000 0.05200  0.35930  0.71870  Biso   1.000  H
  H5       1.0000 0.05200  0.14070  0.71870  Biso   1.000  H
  H6       1.0000 0.44800  0.85930  0.21870  Biso   1.000  H
  H7       1.0000 0.55200  0.35930  0.78130  Biso   1.000  H
  H8       1.0000 0.94800  0.64070  0.28130  Biso   1.000  H
  H9       1.0000 0.95870  0.82840  0.43740  Biso   1.000  H
  H10      1.0000 0.54130  0.17160  0.93740  Biso   1.000  H
  H11      1.0000 0.45870  0.67160  0.06260  Biso   1.000  H
  H12      1.0000 0.04130  0.32840  0.56260  Biso   1.000  H
  H13      1.0000 0.04130  0.17160  0.56260  Biso   1.000  H
  H14      1.0000 0.45870  0.82840  0.06260  Biso   1.000  H
  H15      1.0000 0.54130  0.32840  0.93740  Biso   1.000  H
  H16      1.0000 0.95870  0.67160  0.43740  Biso   1.000  H
  C57      1.0000 0.81640  0.82336  0.33100  Biso   1.000  C
  C58      1.0000 0.68360  0.17664  0.83100  Biso   1.000  C
  C59      1.0000 0.31640  0.67664  0.16900  Biso   1.000  C
  C60      1.0000 0.18360  0.32336  0.66900  Biso   1.000  C
  C61      1.0000 0.18360  0.17664  0.66900  Biso   1.000  C
  C62      1.0000 0.31640  0.82336  0.16900  Biso   1.000  C
  C63      1.0000 0.68360  0.32336  0.83100  Biso   1.000  C
  C64      1.0000 0.81640  0.67664  0.33100  Biso   1.000  C
  H17      1.0000 0.77600  0.81560  0.42820  Biso   1.000  H
  H18      1.0000 0.72400  0.18440  0.92820  Biso   1.000  H
  H19      1.0000 0.27600  0.68440  0.07180  Biso   1.000  H
  H20      1.0000 0.22400  0.31560  0.57180  Biso   1.000  H
  H21      1.0000 0.22400  0.18440  0.57180  Biso   1.000  H
  H22      1.0000 0.27600  0.81560  0.07180  Biso   1.000  H
  H23      1.0000 0.72400  0.31560  0.92820  Biso   1.000  H
  H24      1.0000 0.77600  0.68440  0.42820  Biso   1.000  H
  H25      1.0000 0.83870  0.79460  0.28040  Biso   1.000  H
  H26      1.0000 0.66130  0.20540  0.78040  Biso   1.000  H
  H27      1.0000 0.33870  0.70540  0.21960  Biso   1.000  H
  H28      1.0000 0.16130  0.29460  0.71960  Biso   1.000  H
  H29      1.0000 0.16130  0.20540  0.71960  Biso   1.000  H
  H30      1.0000 0.33870  0.79460  0.21960  Biso   1.000  H
  H31      1.0000 0.66130  0.29460  0.78040  Biso   1.000  H
  H32      1.0000 0.83870  0.70540  0.28040  Biso   1.000  H
  C65      1.0000 0.41870  0.17944  0.29970  Biso   1.000  C
  C66      1.0000 0.08130  0.82056  0.79970  Biso   1.000  C
  C67      1.0000 0.91870  0.32056  0.20030  Biso   1.000  C
  C68      1.0000 0.58130  0.67944  0.70030  Biso   1.000  C
  C69      1.0000 0.58130  0.82056  0.70030  Biso   1.000  C
  C70      1.0000 0.91870  0.17944  0.20030  Biso   1.000  C
  C71      1.0000 0.08130  0.67944  0.79970  Biso   1.000  C
  C72      1.0000 0.41870  0.32056  0.29970  Biso   1.000  C
  H33      1.0000 0.39770  0.21020  0.33500  Biso   1.000  H
  H34      1.0000 0.10230  0.78980  0.83500  Biso   1.000  H
  H35      1.0000 0.89770  0.28980  0.16500  Biso   1.000  H
  H36      1.0000 0.60230  0.71020  0.66500  Biso   1.000  H
  H37      1.0000 0.60230  0.78980  0.66500  Biso   1.000  H
  H38      1.0000 0.89770  0.21020  0.16500  Biso   1.000  H
  H39      1.0000 0.10230  0.71020  0.83500  Biso   1.000  H
  H40      1.0000 0.39770  0.28980  0.33500  Biso   1.000  H
  H41      1.0000 0.46230  0.18290  0.20270  Biso   1.000  H
  H42      1.0000 0.03770  0.81710  0.70270  Biso   1.000  H
  H43      1.0000 0.96230  0.31710  0.29730  Biso   1.000  H
  H44      1.0000 0.53770  0.68290  0.79730  Biso   1.000  H
  H45      1.0000 0.53770  0.81710  0.79730  Biso   1.000  H
  H46      1.0000 0.96230  0.18290  0.29730  Biso   1.000  H
  H47      1.0000 0.03770  0.68290  0.70270  Biso   1.000  H
  H48      1.0000 0.46230  0.31710  0.20270  Biso   1.000  H
  C73      1.0000 0.32250  0.15353  0.25650  Biso   1.000  C
  C74      1.0000 0.17750  0.84647  0.75650  Biso   1.000  C
  C75      1.0000 0.82250  0.34647  0.24350  Biso   1.000  C
  C76      1.0000 0.67750  0.65353  0.74350  Biso   1.000  C
  C77      1.0000 0.67750  0.84647  0.74350  Biso   1.000  C
  C78      1.0000 0.82250  0.15353  0.24350  Biso   1.000  C
  C79      1.0000 0.17750  0.65353  0.75650  Biso   1.000  C
  C80      1.0000 0.32250  0.34647  0.25650  Biso   1.000  C
  H49      1.0000 0.27870  0.17260  0.18580  Biso   1.000  H
  H50      1.0000 0.22130  0.82740  0.68580  Biso   1.000  H
  H51      1.0000 0.77870  0.32740  0.31420  Biso   1.000  H
  H52      1.0000 0.72130  0.67260  0.81420  Biso   1.000  H
  H53      1.0000 0.72130  0.82740  0.81420  Biso   1.000  H
  H54      1.0000 0.77870  0.17260  0.31420  Biso   1.000  H
  H55      1.0000 0.22130  0.67260  0.68580  Biso   1.000  H
  H56      1.0000 0.27870  0.32740  0.18580  Biso   1.000  H
  H57      1.0000 0.28200  0.14760  0.35510  Biso   1.000  H
  H58      1.0000 0.21800  0.85240  0.85510  Biso   1.000  H
  H59      1.0000 0.78200  0.35240  0.14490  Biso   1.000  H
  H60      1.0000 0.71800  0.64760  0.64490  Biso   1.000  H
  H61      1.0000 0.71800  0.85240  0.64490  Biso   1.000  H
  H62      1.0000 0.78200  0.14760  0.14490  Biso   1.000  H
  H63      1.0000 0.21800  0.64760  0.85510  Biso   1.000  H
  H64      1.0000 0.28200  0.35240  0.35510  Biso   1.000  H
  S1       1.0000 0.74598  0.97457  0.48398  Biso   1.000  S
  S2       1.0000 0.75402  0.02543  0.98398  Biso   1.000  S
  S3       1.0000 0.24598  0.52543  0.01602  Biso   1.000  S
  S4       1.0000 0.25402  0.47457  0.51602  Biso   1.000  S
  S5       1.0000 0.25402  0.02543  0.51602  Biso   1.000  S
  S6       1.0000 0.24598  0.97457  0.01602  Biso   1.000  S
  S7       1.0000 0.75402  0.47457  0.98398  Biso   1.000  S
  S8       1.0000 0.74598  0.52543  0.48398  Biso   1.000  S
  S9       1.0000 0.61527  0.93696  0.23207  Biso   1.000  S
  S10      1.0000 0.88473  0.06304  0.73207  Biso   1.000  S
  S11      1.0000 0.11527  0.56304  0.26793  Biso   1.000  S
  S12      1.0000 0.38473  0.43696  0.76793  Biso   1.000  S
  S13      1.0000 0.38473  0.06304  0.76793  Biso   1.000  S
  S14      1.0000 0.11527  0.93696  0.26793  Biso   1.000  S
  S15      1.0000 0.88473  0.43696  0.73207  Biso   1.000  S
  S16      1.0000 0.61527  0.56304  0.23207  Biso   1.000  S
  S17      1.0000 0.59882  0.06540  0.47809  Biso   1.000  S
  S18      1.0000 0.90118  0.93460  0.97809  Biso   1.000  S
  S19      1.0000 0.09882  0.43460  0.02191  Biso   1.000  S
  S20      1.0000 0.40118  0.56540  0.52191  Biso   1.000  S
  S21      1.0000 0.40118  0.93460  0.52191  Biso   1.000  S
  S22      1.0000 0.09882  0.06540  0.02191  Biso   1.000  S
  S23      1.0000 0.90118  0.56540  0.97809  Biso   1.000  S
  S24      1.0000 0.59882  0.43460  0.47809  Biso   1.000  S
  S25      1.0000 0.47224  0.02240  0.23202  Biso   1.000  S
  S26      1.0000 0.02776  0.97760  0.73202  Biso   1.000  S
  S27      1.0000 0.97224  0.47760  0.26798  Biso   1.000  S
  S28      1.0000 0.52776  0.52240  0.76798  Biso   1.000  S
  S29      1.0000 0.52776  0.97760  0.76798  Biso   1.000  S
  S30      1.0000 0.97224  0.02240  0.26798  Biso   1.000  S
  S31      1.0000 0.02776  0.52240  0.73202  Biso   1.000  S
  S32      1.0000 0.47224  0.47760  0.23202  Biso   1.000  S
  S33      1.0000 0.88740  0.89765  0.50173  Biso   1.000  S
  S34      1.0000 0.61260  0.10235  0.00173  Biso   1.000  S
  S35      1.0000 0.38740  0.60235  0.99827  Biso   1.000  S
  S36      1.0000 0.11260  0.39765  0.49827  Biso   1.000  S
  S37      1.0000 0.11260  0.10235  0.49827  Biso   1.000  S
  S38      1.0000 0.38740  0.89765  0.99827  Biso   1.000  S
  S39      1.0000 0.61260  0.39765  0.00173  Biso   1.000  S
  S40      1.0000 0.88740  0.60235  0.50173  Biso   1.000  S
  S41      1.0000 0.73298  0.85298  0.19602  Biso   1.000  S
  S42      1.0000 0.76702  0.14702  0.69602  Biso   1.000  S
  S43      1.0000 0.23298  0.64702  0.30398  Biso   1.000  S
  S44      1.0000 0.26702  0.35298  0.80398  Biso   1.000  S
  S45      1.0000 0.26702  0.14702  0.80398  Biso   1.000  S
  S46      1.0000 0.23298  0.85298  0.30398  Biso   1.000  S
  S47      1.0000 0.76702  0.35298  0.69602  Biso   1.000  S
  S48      1.0000 0.73298  0.64702  0.19602  Biso   1.000  S
  S49      1.0000 0.49789  0.15364  0.45598  Biso   1.000  S
  S50      1.0000 0.00211  0.84636  0.95598  Biso   1.000  S
  S51      1.0000 0.99789  0.34636  0.04402  Biso   1.000  S
  S52      1.0000 0.50211  0.65364  0.54402  Biso   1.000  S
  S53      1.0000 0.50211  0.84636  0.54402  Biso   1.000  S
  S54      1.0000 0.99789  0.15364  0.04402  Biso   1.000  S
  S55      1.0000 0.00211  0.65364  0.95598  Biso   1.000  S
  S56      1.0000 0.49789  0.34636  0.45598  Biso   1.000  S
  S57      1.0000 0.34691  0.10154  0.16007  Biso   1.000  S
  S58      1.0000 0.15309  0.89846  0.66007  Biso   1.000  S
  S59      1.0000 0.84691  0.39846  0.33993  Biso   1.000  S
  S60      1.0000 0.65309  0.60154  0.83993  Biso   1.000  S
  S61      1.0000 0.65309  0.89846  0.83993  Biso   1.000  S
  S62      1.0000 0.84691  0.10154  0.33993  Biso   1.000  S
  S63      1.0000 0.15309  0.60154  0.66007  Biso   1.000  S
  S64      1.0000 0.34691  0.39846  0.16007  Biso   1.000  S
  C81      1.0000 0.38900  0.17400  0.38800  Biso   1.000  C
  C82      1.0000 0.11100  0.82600  0.88800  Biso   1.000  C
  C83      1.0000 0.88900  0.32600  0.11200  Biso   1.000  C
  C84      1.0000 0.61100  0.67400  0.61200  Biso   1.000  C
  C85      1.0000 0.61100  0.82600  0.61200  Biso   1.000  C
  C86      1.0000 0.88900  0.17400  0.11200  Biso   1.000  C
  C87      1.0000 0.11100  0.67400  0.88800  Biso   1.000  C
  C88      1.0000 0.38900  0.32600  0.38800  Biso   1.000  C
  H65      1.0000 0.33030  0.16020  0.44820  Biso   1.000  H
  H66      1.0000 0.16970  0.83980  0.94820  Biso   1.000  H
  H67      1.0000 0.83030  0.33980  0.05180  Biso   1.000  H
  H68      1.0000 0.66970  0.66020  0.55180  Biso   1.000  H
  H69      1.0000 0.66970  0.83980  0.55180  Biso   1.000  H
  H70      1.0000 0.83030  0.16020  0.05180  Biso   1.000  H
  H71      1.0000 0.16970  0.66020  0.94820  Biso   1.000  H
  H72      1.0000 0.33030  0.33980  0.44820  Biso   1.000  H
  H73      1.0000 0.38770  0.20710  0.40810  Biso   1.000  H
  H74      1.0000 0.11230  0.79290  0.90810  Biso   1.000  H
  H75      1.0000 0.88770  0.29290  0.09190  Biso   1.000  H
  H76      1.0000 0.61230  0.70710  0.59190  Biso   1.000  H
  H77      1.0000 0.61230  0.79290  0.59190  Biso   1.000  H
  H78      1.0000 0.88770  0.20710  0.09190  Biso   1.000  H
  H79      1.0000 0.11230  0.70710  0.90810  Biso   1.000  H
  H80      1.0000 0.38770  0.29290  0.40810  Biso   1.000  H
  C89      1.0000 0.37400  0.16560  0.21700  Biso   1.000  C
  C90      1.0000 0.12600  0.83440  0.71700  Biso   1.000  C
  C91      1.0000 0.87400  0.33440  0.28300  Biso   1.000  C
  C92      1.0000 0.62600  0.66560  0.78300  Biso   1.000  C
  C93      1.0000 0.62600  0.83440  0.78300  Biso   1.000  C
  C94      1.0000 0.87400  0.16560  0.28300  Biso   1.000  C
  C95      1.0000 0.12600  0.66560  0.71700  Biso   1.000  C
  C96      1.0000 0.37400  0.33440  0.21700  Biso   1.000  C
  H81      1.0000 0.43760  0.17590  0.15940  Biso   1.000  H
  H82      1.0000 0.06240  0.82410  0.65940  Biso   1.000  H
  H83      1.0000 0.93760  0.32410  0.34060  Biso   1.000  H
  H84      1.0000 0.56240  0.67590  0.84060  Biso   1.000  H
  H85      1.0000 0.56240  0.82410  0.84060  Biso   1.000  H
  H86      1.0000 0.93760  0.17590  0.34060  Biso   1.000  H
  H87      1.0000 0.06240  0.67590  0.65940  Biso   1.000  H
  H88      1.0000 0.43760  0.32410  0.15940  Biso   1.000  H
  H89      1.0000 0.31480  0.18430  0.17930  Biso   1.000  H
  H90      1.0000 0.18520  0.81570  0.67930  Biso   1.000  H
  H91      1.0000 0.81480  0.31570  0.32070  Biso   1.000  H
  H92      1.0000 0.68520  0.68430  0.82070  Biso   1.000  H
  H93      1.0000 0.68520  0.81570  0.82070  Biso   1.000  H
  H94      1.0000 0.81480  0.18430  0.32070  Biso   1.000  H
  H95      1.0000 0.18520  0.68430  0.67930  Biso   1.000  H
  H96      1.0000 0.31480  0.31570  0.17930  Biso   1.000  H
  C97      1.0000 0.84950  0.25000  0.59990  Biso   1.000  C
  C98      1.0000 0.65050  0.75000  0.09990  Biso   1.000  C
  C99      1.0000 0.34950  0.25000  0.90010  Biso   1.000  C
  C100     1.0000 0.15050  0.75000  0.40010  Biso   1.000  C
  C101     1.0000 0.97740  0.25000  0.78910  Biso   1.000  C
  C102     1.0000 0.52260  0.75000  0.28910  Biso   1.000  C
  C103     1.0000 0.47740  0.25000  0.71090  Biso   1.000  C
  C104     1.0000 0.02260  0.75000  0.21090  Biso   1.000  C
  N1       1.0000 0.76860  0.25000  0.54200  Biso   1.000  N
  N2       1.0000 0.73140  0.75000  0.04200  Biso   1.000  N
  N3       1.0000 0.26860  0.25000  0.95800  Biso   1.000  N
  N4       1.0000 0.23140  0.75000  0.45800  Biso   1.000  N
  N5       1.0000 0.94540  0.25000  0.64400  Biso   1.000  N
  N6       1.0000 0.55460  0.75000  0.14400  Biso   1.000  N
  N7       1.0000 0.44540  0.25000  0.85600  Biso   1.000  N
  N8       1.0000 0.05460  0.75000  0.35600  Biso   1.000  N
  N9       1.0000 0.02090  0.25000  0.90860  Biso   1.000  N
  N10      1.0000 0.47910  0.75000  0.40860  Biso   1.000  N
  N11      1.0000 0.52090  0.25000  0.59140  Biso   1.000  N
  N12      1.0000 0.97910  0.75000  0.09140  Biso   1.000  N
  Cu1      1.0000 0.63209  0.25000  0.43551  Biso   1.000  Cu
  Cu2      1.0000 0.86791  0.75000  0.93551  Biso   1.000  Cu
  Cu3      1.0000 0.13209  0.25000  0.06449  Biso   1.000  Cu
  Cu4      1.0000 0.36791  0.75000  0.56449  Biso   1.000  Cu
  Cl1      1.0000 0.64390  0.25000  0.17111  Biso   1.000  Cl
  Cl2      1.0000 0.85610  0.75000  0.67111  Biso   1.000  Cl
  Cl3      1.0000 0.14390  0.25000  0.32889  Biso   1.000  Cl
  Cl4      1.0000 0.35610  0.75000  0.82889  Biso   1.000  Cl
