data_image0
_cell_length_a       12.8852
_cell_length_b       29.5759
_cell_length_c       8.4161
_cell_angle_alpha    90
_cell_angle_beta     90
_cell_angle_gamma    90

_symmetry_space_group_name_H-M    "P 1"
_symmetry_int_tables_number       1

loop_
  _symmetry_equiv_pos_as_xyz
  'x, y, z'

loop_
  _atom_site_label
  _atom_site_occupancy
  _atom_site_fract_x
  _atom_site_fract_y
  _atom_site_fract_z
  _atom_site_thermal_displace_type
  _atom_site_B_iso_or_equiv
  _atom_site_type_symbol
  C1       1.0000 0.64000  0.98156  0.36030  Biso   1.000  C
  C2       1.0000 0.86000  0.01844  0.86030  Biso   1.000  C
  C3       1.0000 0.14000  0.51844  0.13970  Biso   1.000  C
  C4       1.0000 0.36000  0.48156  0.63970  Biso   1.000  C
  C5       1.0000 0.36000  0.01844  0.63970  Biso   1.000  C
  C6       1.0000 0.14000  0.98156  0.13970  Biso   1.000  C
  C7       1.0000 0.86000  0.48156  0.86030  Biso   1.000  C
  C8       1.0000 0.64000  0.51844  0.36030  Biso   1.000  C
  C9       1.0000 0.57770  0.01875  0.35900  Biso   1.000  C
  C10      1.0000 0.92230  0.98125  0.85900  Biso   1.000  C
  C11      1.0000 0.07770  0.48125  0.14100  Biso   1.000  C
  C12      1.0000 0.42230  0.51875  0.64100  Biso   1.000  C
  C13      1.0000 0.42230  0.98125  0.64100  Biso   1.000  C
  C14      1.0000 0.07770  0.01875  0.14100  Biso   1.000  C
  C15      1.0000 0.92230  0.51875  0.85900  Biso   1.000  C
  C16      1.0000 0.57770  0.48125  0.35900  Biso   1.000  C
  C17      1.0000 0.78210  0.92186  0.40920  Biso   1.000  C
  C18      1.0000 0.71790  0.07814  0.90920  Biso   1.000  C
  C19      1.0000 0.28210  0.57814  0.09080  Biso   1.000  C
  C20      1.0000 0.21790  0.42186  0.59080  Biso   1.000  C
  C21      1.0000 0.21790  0.07814  0.59080  Biso   1.000  C
  C22      1.0000 0.28210  0.92186  0.09080  Biso   1.000  C
  C23      1.0000 0.71790  0.42186  0.90920  Biso   1.000  C
  C24      1.0000 0.78210  0.57814  0.40920  Biso   1.000  C
  C25      1.0000 0.72220  0.90421  0.29330  Biso   1.000  C
  C26      1.0000 0.77780  0.09579  0.79330  Biso   1.000  C
  C27      1.0000 0.22220  0.59579  0.20670  Biso   1.000  C
  C28      1.0000 0.27780  0.40421  0.70670  Biso   1.000  C
  C29      1.0000 0.27780  0.09579  0.70670  Biso   1.000  C
  C30      1.0000 0.22220  0.90421  0.20670  Biso   1.000  C
  C31      1.0000 0.77780  0.40421  0.79330  Biso   1.000  C
  C32      1.0000 0.72220  0.59579  0.29330  Biso   1.000  C
  C33      1.0000 0.50040  0.09849  0.38830  Biso   1.000  C
  C34      1.0000 0.99960  0.90151  0.88830  Biso   1.000  C
  C35      1.0000 0.00040  0.40151  0.11170  Biso   1.000  C
  C36      1.0000 0.49960  0.59849  0.61170  Biso   1.000  C
  C37      1.0000 0.49960  0.90151  0.61170  Biso   1.000  C
  C38      1.0000 0.00040  0.09849  0.11170  Biso   1.000  C
  C39      1.0000 0.99960  0.59849  0.88830  Biso   1.000  C
  C40      1.0000 0.50040  0.40151  0.38830  Biso   1.000  C
  C41      1.0000 0.44280  0.07826  0.27460  Biso   1.000  C
  C42      1.0000 0.05720  0.92174  0.77460  Biso   1.000  C
  C43      1.0000 0.94280  0.42174  0.22540  Biso   1.000  C
  C44      1.0000 0.55720  0.57826  0.72540  Biso   1.000  C
  C45      1.0000 0.55720  0.92174  0.72540  Biso   1.000  C
  C46      1.0000 0.94280  0.07826  0.22540  Biso   1.000  C
  C47      1.0000 0.05720  0.57826  0.77460  Biso   1.000  C
  C48      1.0000 0.44280  0.42174  0.27460  Biso   1.000  C
  C49      1.0000 0.91480  0.84883  0.37980  Biso   1.000  C
  C50      1.0000 0.58520  0.15117  0.87980  Biso   1.000  C
  C51      1.0000 0.41480  0.65117  0.12020  Biso   1.000  C
  C52      1.0000 0.08520  0.34883  0.62020  Biso   1.000  C
  C53      1.0000 0.08520  0.15117  0.62020  Biso   1.000  C
  C54      1.0000 0.41480  0.84883  0.12020  Biso   1.000  C
  C55      1.0000 0.58520  0.34883  0.87980  Biso   1.000  C
  C56      1.0000 0.91480  0.65117  0.37980  Biso   1.000  C
  H1       1.0000 0.95190  0.85840  0.28100  Biso   1.000  H
  H2       1.0000 0.54810  0.14160  0.78100  Biso   1.000  H
  H3       1.0000 0.45190  0.64160  0.21900  Biso   1.000  H
  H4       1.0000 0.04810  0.35840  0.71900  Biso   1.000  H
  H5       1.0000 0.04810  0.14160  0.71900  Biso   1.000  H
  H6       1.0000 0.45190  0.85840  0.21900  Biso   1.000  H
  H7       1.0000 0.54810  0.35840  0.78100  Biso   1.000  H
  H8       1.0000 0.95190  0.64160  0.28100  Biso   1.000  H
  H9       1.0000 0.96200  0.82810  0.43950  Biso   1.000  H
  H10      1.0000 0.53800  0.17190  0.93950  Biso   1.000  H
  H11      1.0000 0.46200  0.67190  0.06050  Biso   1.000  H
  H12      1.0000 0.03800  0.32810  0.56050  Biso   1.000  H
  H13      1.0000 0.03800  0.17190  0.56050  Biso   1.000  H
  H14      1.0000 0.46200  0.82810  0.06050  Biso   1.000  H
  H15      1.0000 0.53800  0.32810  0.93950  Biso   1.000  H
  H16      1.0000 0.96200  0.67190  0.43950  Biso   1.000  H
  C57      1.0000 0.81860  0.82276  0.33260  Biso   1.000  C
  C58      1.0000 0.68140  0.17724  0.83260  Biso   1.000  C
  C59      1.0000 0.31860  0.67724  0.16740  Biso   1.000  C
  C60      1.0000 0.18140  0.32276  0.66740  Biso   1.000  C
  C61      1.0000 0.18140  0.17724  0.66740  Biso   1.000  C
  C62      1.0000 0.31860  0.82276  0.16740  Biso   1.000  C
  C63      1.0000 0.68140  0.32276  0.83260  Biso   1.000  C
  C64      1.0000 0.81860  0.67724  0.33260  Biso   1.000  C
  H17      1.0000 0.77760  0.81580  0.43040  Biso   1.000  H
  H18      1.0000 0.72240  0.18420  0.93040  Biso   1.000  H
  H19      1.0000 0.27760  0.68420  0.06960  Biso   1.000  H
  H20      1.0000 0.22240  0.31580  0.56960  Biso   1.000  H
  H21      1.0000 0.22240  0.18420  0.56960  Biso   1.000  H
  H22      1.0000 0.27760  0.81580  0.06960  Biso   1.000  H
  H23      1.0000 0.72240  0.31580  0.93040  Biso   1.000  H
  H24      1.0000 0.77760  0.68420  0.43040  Biso   1.000  H
  H25      1.0000 0.84020  0.79340  0.28390  Biso   1.000  H
  H26      1.0000 0.65980  0.20660  0.78390  Biso   1.000  H
  H27      1.0000 0.34020  0.70660  0.21610  Biso   1.000  H
  H28      1.0000 0.15980  0.29340  0.71610  Biso   1.000  H
  H29      1.0000 0.15980  0.20660  0.71610  Biso   1.000  H
  H30      1.0000 0.34020  0.79340  0.21610  Biso   1.000  H
  H31      1.0000 0.65980  0.29340  0.78390  Biso   1.000  H
  H32      1.0000 0.84020  0.70660  0.28390  Biso   1.000  H
  C65      1.0000 0.41450  0.17993  0.30050  Biso   1.000  C
  C66      1.0000 0.08550  0.82007  0.80050  Biso   1.000  C
  C67      1.0000 0.91450  0.32007  0.19950  Biso   1.000  C
  C68      1.0000 0.58550  0.67993  0.69950  Biso   1.000  C
  C69      1.0000 0.58550  0.82007  0.69950  Biso   1.000  C
  C70      1.0000 0.91450  0.17993  0.19950  Biso   1.000  C
  C71      1.0000 0.08550  0.67993  0.80050  Biso   1.000  C
  C72      1.0000 0.41450  0.32007  0.30050  Biso   1.000  C
  H33      1.0000 0.39310  0.21080  0.33580  Biso   1.000  H
  H34      1.0000 0.10690  0.78920  0.83580  Biso   1.000  H
  H35      1.0000 0.89310  0.28920  0.16420  Biso   1.000  H
  H36      1.0000 0.60690  0.71080  0.66420  Biso   1.000  H
  H37      1.0000 0.60690  0.78920  0.66420  Biso   1.000  H
  H38      1.0000 0.89310  0.21080  0.16420  Biso   1.000  H
  H39      1.0000 0.10690  0.71080  0.83580  Biso   1.000  H
  H40      1.0000 0.39310  0.28920  0.33580  Biso   1.000  H
  H41      1.0000 0.45810  0.18350  0.20290  Biso   1.000  H
  H42      1.0000 0.04190  0.81650  0.70290  Biso   1.000  H
  H43      1.0000 0.95810  0.31650  0.29710  Biso   1.000  H
  H44      1.0000 0.54190  0.68350  0.79710  Biso   1.000  H
  H45      1.0000 0.54190  0.81650  0.79710  Biso   1.000  H
  H46      1.0000 0.95810  0.18350  0.29710  Biso   1.000  H
  H47      1.0000 0.04190  0.68350  0.70290  Biso   1.000  H
  H48      1.0000 0.45810  0.31650  0.20290  Biso   1.000  H
  C73      1.0000 0.31830  0.15319  0.25810  Biso   1.000  C
  C74      1.0000 0.18170  0.84681  0.75810  Biso   1.000  C
  C75      1.0000 0.81830  0.34681  0.24190  Biso   1.000  C
  C76      1.0000 0.68170  0.65319  0.74190  Biso   1.000  C
  C77      1.0000 0.68170  0.84681  0.74190  Biso   1.000  C
  C78      1.0000 0.81830  0.15319  0.24190  Biso   1.000  C
  C79      1.0000 0.18170  0.65319  0.75810  Biso   1.000  C
  C80      1.0000 0.31830  0.34681  0.25810  Biso   1.000  C
  H49      1.0000 0.27300  0.17230  0.18880  Biso   1.000  H
  H50      1.0000 0.22700  0.82770  0.68880  Biso   1.000  H
  H51      1.0000 0.77300  0.32770  0.31120  Biso   1.000  H
  H52      1.0000 0.72700  0.67230  0.81120  Biso   1.000  H
  H53      1.0000 0.72700  0.82770  0.81120  Biso   1.000  H
  H54      1.0000 0.77300  0.17230  0.31120  Biso   1.000  H
  H55      1.0000 0.22700  0.67230  0.68880  Biso   1.000  H
  H56      1.0000 0.27300  0.32770  0.18880  Biso   1.000  H
  H57      1.0000 0.27880  0.14660  0.35780  Biso   1.000  H
  H58      1.0000 0.22120  0.85340  0.85780  Biso   1.000  H
  H59      1.0000 0.77880  0.35340  0.14220  Biso   1.000  H
  H60      1.0000 0.72120  0.64660  0.64220  Biso   1.000  H
  H61      1.0000 0.72120  0.85340  0.64220  Biso   1.000  H
  H62      1.0000 0.77880  0.14660  0.14220  Biso   1.000  H
  H63      1.0000 0.22120  0.64660  0.85780  Biso   1.000  H
  H64      1.0000 0.27880  0.35340  0.35780  Biso   1.000  H
  S1       1.0000 0.74700  0.97494  0.48455  Biso   1.000  S
  S2       1.0000 0.75300  0.02506  0.98455  Biso   1.000  S
  S3       1.0000 0.24700  0.52506  0.01545  Biso   1.000  S
  S4       1.0000 0.25300  0.47494  0.51545  Biso   1.000  S
  S5       1.0000 0.25300  0.02506  0.51545  Biso   1.000  S
  S6       1.0000 0.24700  0.97494  0.01545  Biso   1.000  S
  S7       1.0000 0.75300  0.47494  0.98455  Biso   1.000  S
  S8       1.0000 0.74700  0.52506  0.48455  Biso   1.000  S
  S9       1.0000 0.61551  0.93645  0.23299  Biso   1.000  S
  S10      1.0000 0.88449  0.06355  0.73299  Biso   1.000  S
  S11      1.0000 0.11551  0.56355  0.26701  Biso   1.000  S
  S12      1.0000 0.38449  0.43645  0.76701  Biso   1.000  S
  S13      1.0000 0.38449  0.06355  0.76701  Biso   1.000  S
  S14      1.0000 0.11551  0.93645  0.26701  Biso   1.000  S
  S15      1.0000 0.88449  0.43645  0.73299  Biso   1.000  S
  S16      1.0000 0.61551  0.56355  0.23299  Biso   1.000  S
  S17      1.0000 0.59685  0.06589  0.47889  Biso   1.000  S
  S18      1.0000 0.90315  0.93411  0.97889  Biso   1.000  S
  S19      1.0000 0.09685  0.43411  0.02111  Biso   1.000  S
  S20      1.0000 0.40315  0.56589  0.52111  Biso   1.000  S
  S21      1.0000 0.40315  0.93411  0.52111  Biso   1.000  S
  S22      1.0000 0.09685  0.06589  0.02111  Biso   1.000  S
  S23      1.0000 0.90315  0.56589  0.97889  Biso   1.000  S
  S24      1.0000 0.59685  0.43411  0.47889  Biso   1.000  S
  S25      1.0000 0.47103  0.02166  0.23203  Biso   1.000  S
  S26      1.0000 0.02897  0.97834  0.73203  Biso   1.000  S
  S27      1.0000 0.97103  0.47834  0.26797  Biso   1.000  S
  S28      1.0000 0.52897  0.52166  0.76797  Biso   1.000  S
  S29      1.0000 0.52897  0.97834  0.76797  Biso   1.000  S
  S30      1.0000 0.97103  0.02166  0.26797  Biso   1.000  S
  S31      1.0000 0.02897  0.52166  0.73203  Biso   1.000  S
  S32      1.0000 0.47103  0.47834  0.23203  Biso   1.000  S
  S33      1.0000 0.89120  0.89833  0.50030  Biso   1.000  S
  S34      1.0000 0.60880  0.10167  0.00030  Biso   1.000  S
  S35      1.0000 0.39120  0.60167  0.99970  Biso   1.000  S
  S36      1.0000 0.10880  0.39833  0.49970  Biso   1.000  S
  S37      1.0000 0.10880  0.10167  0.49970  Biso   1.000  S
  S38      1.0000 0.39120  0.89833  0.99970  Biso   1.000  S
  S39      1.0000 0.60880  0.39833  0.00030  Biso   1.000  S
  S40      1.0000 0.89120  0.60167  0.50030  Biso   1.000  S
  S41      1.0000 0.73622  0.85269  0.19371  Biso   1.000  S
  S42      1.0000 0.76378  0.14731  0.69371  Biso   1.000  S
  S43      1.0000 0.23622  0.64731  0.30629  Biso   1.000  S
  S44      1.0000 0.26378  0.35269  0.80629  Biso   1.000  S
  S45      1.0000 0.26378  0.14731  0.80629  Biso   1.000  S
  S46      1.0000 0.23622  0.85269  0.30629  Biso   1.000  S
  S47      1.0000 0.76378  0.35269  0.69371  Biso   1.000  S
  S48      1.0000 0.73622  0.64731  0.19371  Biso   1.000  S
  S49      1.0000 0.49327  0.15418  0.45630  Biso   1.000  S
  S50      1.0000 0.00673  0.84582  0.95630  Biso   1.000  S
  S51      1.0000 0.99327  0.34582  0.04370  Biso   1.000  S
  S52      1.0000 0.50673  0.65418  0.54370  Biso   1.000  S
  S53      1.0000 0.50673  0.84582  0.54370  Biso   1.000  S
  S54      1.0000 0.99327  0.15418  0.04370  Biso   1.000  S
  S55      1.0000 0.00673  0.65418  0.95630  Biso   1.000  S
  S56      1.0000 0.49327  0.34582  0.45630  Biso   1.000  S
  S57      1.0000 0.34401  0.10082  0.15780  Biso   1.000  S
  S58      1.0000 0.15599  0.89918  0.65780  Biso   1.000  S
  S59      1.0000 0.84401  0.39918  0.34220  Biso   1.000  S
  S60      1.0000 0.65599  0.60082  0.84220  Biso   1.000  S
  S61      1.0000 0.65599  0.89918  0.84220  Biso   1.000  S
  S62      1.0000 0.84401  0.10082  0.34220  Biso   1.000  S
  S63      1.0000 0.15599  0.60082  0.65780  Biso   1.000  S
  S64      1.0000 0.34401  0.39918  0.15780  Biso   1.000  S
  C81      1.0000 0.84600  0.25000  0.59660  Biso   1.000  C
  C82      1.0000 0.65400  0.75000  0.09660  Biso   1.000  C
  C83      1.0000 0.34600  0.25000  0.90340  Biso   1.000  C
  C84      1.0000 0.15400  0.75000  0.40340  Biso   1.000  C
  C85      1.0000 0.97360  0.25000  0.78770  Biso   1.000  C
  C86      1.0000 0.52640  0.75000  0.28770  Biso   1.000  C
  C87      1.0000 0.47360  0.25000  0.71230  Biso   1.000  C
  C88      1.0000 0.02640  0.75000  0.21230  Biso   1.000  C
  N1       1.0000 0.76440  0.25000  0.53900  Biso   1.000  N
  N2       1.0000 0.73560  0.75000  0.03900  Biso   1.000  N
  N3       1.0000 0.26440  0.25000  0.96100  Biso   1.000  N
  N4       1.0000 0.23560  0.75000  0.46100  Biso   1.000  N
  N5       1.0000 0.94210  0.25000  0.64140  Biso   1.000  N
  N6       1.0000 0.55790  0.75000  0.14140  Biso   1.000  N
  N7       1.0000 0.44210  0.25000  0.85860  Biso   1.000  N
  N8       1.0000 0.05790  0.75000  0.35860  Biso   1.000  N
  N9       1.0000 0.01650  0.25000  0.90880  Biso   1.000  N
  N10      1.0000 0.48350  0.75000  0.40880  Biso   1.000  N
  N11      1.0000 0.51650  0.25000  0.59120  Biso   1.000  N
  N12      1.0000 0.98350  0.75000  0.09120  Biso   1.000  N
  Cu1      1.0000 0.62724  0.25000  0.43438  Biso   1.000  Cu
  Cu2      1.0000 0.87276  0.75000  0.93438  Biso   1.000  Cu
  Cu3      1.0000 0.12724  0.25000  0.06562  Biso   1.000  Cu
  Cu4      1.0000 0.37276  0.75000  0.56562  Biso   1.000  Cu
  Cl1      1.0000 0.64037  0.25000  0.16833  Biso   1.000  Cl
  Cl2      1.0000 0.85963  0.75000  0.66833  Biso   1.000  Cl
  Cl3      1.0000 0.14037  0.25000  0.33167  Biso   1.000  Cl
  Cl4      1.0000 0.35963  0.75000  0.83167  Biso   1.000  Cl
