data_image0
_cell_length_a       12.955
_cell_length_b       29.9368
_cell_length_c       8.4811
_cell_angle_alpha    90
_cell_angle_beta     90
_cell_angle_gamma    90

_symmetry_space_group_name_H-M    "P 1"
_symmetry_int_tables_number       1

loop_
  _symmetry_equiv_pos_as_xyz
  'x, y, z'

loop_
  _atom_site_label
  _atom_site_occupancy
  _atom_site_fract_x
  _atom_site_fract_y
  _atom_site_fract_z
  _atom_site_thermal_displace_type
  _atom_site_B_iso_or_equiv
  _atom_site_type_symbol
  C1       1.0000 0.63910  0.98159  0.35890  Biso   1.000  C
  C2       1.0000 0.86090  0.01841  0.85890  Biso   1.000  C
  C3       1.0000 0.13910  0.51841  0.14110  Biso   1.000  C
  C4       1.0000 0.36090  0.48159  0.64110  Biso   1.000  C
  C5       1.0000 0.36090  0.01841  0.64110  Biso   1.000  C
  C6       1.0000 0.13910  0.98159  0.14110  Biso   1.000  C
  C7       1.0000 0.86090  0.48159  0.85890  Biso   1.000  C
  C8       1.0000 0.63910  0.51841  0.35890  Biso   1.000  C
  C9       1.0000 0.57880  0.01873  0.35740  Biso   1.000  C
  C10      1.0000 0.92120  0.98127  0.85740  Biso   1.000  C
  C11      1.0000 0.07880  0.48127  0.14260  Biso   1.000  C
  C12      1.0000 0.42120  0.51873  0.64260  Biso   1.000  C
  C13      1.0000 0.42120  0.98127  0.64260  Biso   1.000  C
  C14      1.0000 0.07880  0.01873  0.14260  Biso   1.000  C
  C15      1.0000 0.92120  0.51873  0.85740  Biso   1.000  C
  C16      1.0000 0.57880  0.48127  0.35740  Biso   1.000  C
  C17      1.0000 0.77720  0.92166  0.41030  Biso   1.000  C
  C18      1.0000 0.72280  0.07834  0.91030  Biso   1.000  C
  C19      1.0000 0.27720  0.57834  0.08970  Biso   1.000  C
  C20      1.0000 0.22280  0.42166  0.58970  Biso   1.000  C
  C21      1.0000 0.22280  0.07834  0.58970  Biso   1.000  C
  C22      1.0000 0.27720  0.92166  0.08970  Biso   1.000  C
  C23      1.0000 0.72280  0.42166  0.91030  Biso   1.000  C
  C24      1.0000 0.77720  0.57834  0.41030  Biso   1.000  C
  C25      1.0000 0.71800  0.90462  0.29500  Biso   1.000  C
  C26      1.0000 0.78200  0.09538  0.79500  Biso   1.000  C
  C27      1.0000 0.21800  0.59538  0.20500  Biso   1.000  C
  C28      1.0000 0.28200  0.40462  0.70500  Biso   1.000  C
  C29      1.0000 0.28200  0.09538  0.70500  Biso   1.000  C
  C30      1.0000 0.21800  0.90462  0.20500  Biso   1.000  C
  C31      1.0000 0.78200  0.40462  0.79500  Biso   1.000  C
  C32      1.0000 0.71800  0.59538  0.29500  Biso   1.000  C
  C33      1.0000 0.50610  0.09813  0.38740  Biso   1.000  C
  C34      1.0000 0.99390  0.90187  0.88740  Biso   1.000  C
  C35      1.0000 0.00610  0.40187  0.11260  Biso   1.000  C
  C36      1.0000 0.49390  0.59813  0.61260  Biso   1.000  C
  C37      1.0000 0.49390  0.90187  0.61260  Biso   1.000  C
  C38      1.0000 0.00610  0.09813  0.11260  Biso   1.000  C
  C39      1.0000 0.99390  0.59813  0.88740  Biso   1.000  C
  C40      1.0000 0.50610  0.40187  0.38740  Biso   1.000  C
  C41      1.0000 0.44780  0.07872  0.27540  Biso   1.000  C
  C42      1.0000 0.05220  0.92128  0.77540  Biso   1.000  C
  C43      1.0000 0.94780  0.42128  0.22460  Biso   1.000  C
  C44      1.0000 0.55220  0.57872  0.72460  Biso   1.000  C
  C45      1.0000 0.55220  0.92128  0.72460  Biso   1.000  C
  C46      1.0000 0.94780  0.07872  0.22460  Biso   1.000  C
  C47      1.0000 0.05220  0.57872  0.77540  Biso   1.000  C
  C48      1.0000 0.44780  0.42128  0.27540  Biso   1.000  C
  C49      1.0000 0.90760  0.84973  0.37950  Biso   1.000  C
  C50      1.0000 0.59240  0.15027  0.87950  Biso   1.000  C
  C51      1.0000 0.40760  0.65027  0.12050  Biso   1.000  C
  C52      1.0000 0.09240  0.34973  0.62050  Biso   1.000  C
  C53      1.0000 0.09240  0.15027  0.62050  Biso   1.000  C
  C54      1.0000 0.40760  0.84973  0.12050  Biso   1.000  C
  C55      1.0000 0.59240  0.34973  0.87950  Biso   1.000  C
  C56      1.0000 0.90760  0.65027  0.37950  Biso   1.000  C
  H1       1.0000 0.94460  0.85990  0.28240  Biso   1.000  H
  H2       1.0000 0.55540  0.14010  0.78240  Biso   1.000  H
  H3       1.0000 0.44460  0.64010  0.21760  Biso   1.000  H
  H4       1.0000 0.05540  0.35990  0.71760  Biso   1.000  H
  H5       1.0000 0.05540  0.14010  0.71760  Biso   1.000  H
  H6       1.0000 0.44460  0.85990  0.21760  Biso   1.000  H
  H7       1.0000 0.55540  0.35990  0.78240  Biso   1.000  H
  H8       1.0000 0.94460  0.64010  0.28240  Biso   1.000  H
  H9       1.0000 0.95490  0.82910  0.43740  Biso   1.000  H
  H10      1.0000 0.54510  0.17090  0.93740  Biso   1.000  H
  H11      1.0000 0.45490  0.67090  0.06260  Biso   1.000  H
  H12      1.0000 0.04510  0.32910  0.56260  Biso   1.000  H
  H13      1.0000 0.04510  0.17090  0.56260  Biso   1.000  H
  H14      1.0000 0.45490  0.82910  0.06260  Biso   1.000  H
  H15      1.0000 0.54510  0.32910  0.93740  Biso   1.000  H
  H16      1.0000 0.95490  0.67090  0.43740  Biso   1.000  H
  C57      1.0000 0.81450  0.82411  0.33050  Biso   1.000  C
  C58      1.0000 0.68550  0.17589  0.83050  Biso   1.000  C
  C59      1.0000 0.31450  0.67589  0.16950  Biso   1.000  C
  C60      1.0000 0.18550  0.32411  0.66950  Biso   1.000  C
  C61      1.0000 0.18550  0.17589  0.66950  Biso   1.000  C
  C62      1.0000 0.31450  0.82411  0.16950  Biso   1.000  C
  C63      1.0000 0.68550  0.32411  0.83050  Biso   1.000  C
  C64      1.0000 0.81450  0.67589  0.33050  Biso   1.000  C
  H17      1.0000 0.77450  0.81580  0.42710  Biso   1.000  H
  H18      1.0000 0.72550  0.18420  0.92710  Biso   1.000  H
  H19      1.0000 0.27450  0.68420  0.07290  Biso   1.000  H
  H20      1.0000 0.22550  0.31580  0.57290  Biso   1.000  H
  H21      1.0000 0.22550  0.18420  0.57290  Biso   1.000  H
  H22      1.0000 0.27450  0.81580  0.07290  Biso   1.000  H
  H23      1.0000 0.72550  0.31580  0.92710  Biso   1.000  H
  H24      1.0000 0.77450  0.68420  0.42710  Biso   1.000  H
  H25      1.0000 0.83730  0.79580  0.27870  Biso   1.000  H
  H26      1.0000 0.66270  0.20420  0.77870  Biso   1.000  H
  H27      1.0000 0.33730  0.70420  0.22130  Biso   1.000  H
  H28      1.0000 0.16270  0.29580  0.72130  Biso   1.000  H
  H29      1.0000 0.16270  0.20420  0.72130  Biso   1.000  H
  H30      1.0000 0.33730  0.79580  0.22130  Biso   1.000  H
  H31      1.0000 0.66270  0.29580  0.77870  Biso   1.000  H
  H32      1.0000 0.83730  0.70420  0.27870  Biso   1.000  H
  C65      1.0000 0.42260  0.17889  0.29930  Biso   1.000  C
  C66      1.0000 0.07740  0.82111  0.79930  Biso   1.000  C
  C67      1.0000 0.92260  0.32111  0.20070  Biso   1.000  C
  C68      1.0000 0.57740  0.67889  0.70070  Biso   1.000  C
  C69      1.0000 0.57740  0.82111  0.70070  Biso   1.000  C
  C70      1.0000 0.92260  0.17889  0.20070  Biso   1.000  C
  C71      1.0000 0.07740  0.67889  0.79930  Biso   1.000  C
  C72      1.0000 0.42260  0.32111  0.29930  Biso   1.000  C
  H33      1.0000 0.40210  0.20940  0.33520  Biso   1.000  H
  H34      1.0000 0.09790  0.79060  0.83520  Biso   1.000  H
  H35      1.0000 0.90210  0.29060  0.16480  Biso   1.000  H
  H36      1.0000 0.59790  0.70940  0.66480  Biso   1.000  H
  H37      1.0000 0.59790  0.79060  0.66480  Biso   1.000  H
  H38      1.0000 0.90210  0.20940  0.16480  Biso   1.000  H
  H39      1.0000 0.09790  0.70940  0.83520  Biso   1.000  H
  H40      1.0000 0.40210  0.29060  0.33520  Biso   1.000  H
  H41      1.0000 0.46610  0.18250  0.20280  Biso   1.000  H
  H42      1.0000 0.03390  0.81750  0.70280  Biso   1.000  H
  H43      1.0000 0.96610  0.31750  0.29720  Biso   1.000  H
  H44      1.0000 0.53390  0.68250  0.79720  Biso   1.000  H
  H45      1.0000 0.53390  0.81750  0.79720  Biso   1.000  H
  H46      1.0000 0.96610  0.18250  0.29720  Biso   1.000  H
  H47      1.0000 0.03390  0.68250  0.70280  Biso   1.000  H
  H48      1.0000 0.46610  0.31750  0.20280  Biso   1.000  H
  C73      1.0000 0.32700  0.15380  0.25500  Biso   1.000  C
  C74      1.0000 0.17300  0.84620  0.75500  Biso   1.000  C
  C75      1.0000 0.82700  0.34620  0.24500  Biso   1.000  C
  C76      1.0000 0.67300  0.65380  0.74500  Biso   1.000  C
  C77      1.0000 0.67300  0.84620  0.74500  Biso   1.000  C
  C78      1.0000 0.82700  0.15380  0.24500  Biso   1.000  C
  C79      1.0000 0.17300  0.65380  0.75500  Biso   1.000  C
  C80      1.0000 0.32700  0.34620  0.25500  Biso   1.000  C
  H49      1.0000 0.28470  0.17290  0.18290  Biso   1.000  H
  H50      1.0000 0.21530  0.82710  0.68290  Biso   1.000  H
  H51      1.0000 0.78470  0.32710  0.31710  Biso   1.000  H
  H52      1.0000 0.71530  0.67290  0.81710  Biso   1.000  H
  H53      1.0000 0.71530  0.82710  0.81710  Biso   1.000  H
  H54      1.0000 0.78470  0.17290  0.31710  Biso   1.000  H
  H55      1.0000 0.21530  0.67290  0.68290  Biso   1.000  H
  H56      1.0000 0.28470  0.32710  0.18290  Biso   1.000  H
  H57      1.0000 0.28530  0.14840  0.35240  Biso   1.000  H
  H58      1.0000 0.21470  0.85160  0.85240  Biso   1.000  H
  H59      1.0000 0.78530  0.35160  0.14760  Biso   1.000  H
  H60      1.0000 0.71470  0.64840  0.64760  Biso   1.000  H
  H61      1.0000 0.71470  0.85160  0.64760  Biso   1.000  H
  H62      1.0000 0.78530  0.14840  0.14760  Biso   1.000  H
  H63      1.0000 0.21470  0.64840  0.85240  Biso   1.000  H
  H64      1.0000 0.28530  0.35160  0.35240  Biso   1.000  H
  S1       1.0000 0.74458  0.97440  0.48276  Biso   1.000  S
  S2       1.0000 0.75542  0.02560  0.98276  Biso   1.000  S
  S3       1.0000 0.24458  0.52560  0.01724  Biso   1.000  S
  S4       1.0000 0.25542  0.47440  0.51724  Biso   1.000  S
  S5       1.0000 0.25542  0.02560  0.51724  Biso   1.000  S
  S6       1.0000 0.24458  0.97440  0.01724  Biso   1.000  S
  S7       1.0000 0.75542  0.47440  0.98276  Biso   1.000  S
  S8       1.0000 0.74458  0.52560  0.48276  Biso   1.000  S
  S9       1.0000 0.61454  0.93728  0.23189  Biso   1.000  S
  S10      1.0000 0.88546  0.06272  0.73189  Biso   1.000  S
  S11      1.0000 0.11454  0.56272  0.26811  Biso   1.000  S
  S12      1.0000 0.38546  0.43728  0.76811  Biso   1.000  S
  S13      1.0000 0.38546  0.06272  0.76811  Biso   1.000  S
  S14      1.0000 0.11454  0.93728  0.26811  Biso   1.000  S
  S15      1.0000 0.88546  0.43728  0.73189  Biso   1.000  S
  S16      1.0000 0.61454  0.56272  0.23189  Biso   1.000  S
  S17      1.0000 0.60042  0.06496  0.47638  Biso   1.000  S
  S18      1.0000 0.89958  0.93504  0.97638  Biso   1.000  S
  S19      1.0000 0.10042  0.43504  0.02362  Biso   1.000  S
  S20      1.0000 0.39958  0.56496  0.52362  Biso   1.000  S
  S21      1.0000 0.39958  0.93504  0.52362  Biso   1.000  S
  S22      1.0000 0.10042  0.06496  0.02362  Biso   1.000  S
  S23      1.0000 0.89958  0.56496  0.97638  Biso   1.000  S
  S24      1.0000 0.60042  0.43504  0.47638  Biso   1.000  S
  S25      1.0000 0.47303  0.02290  0.23177  Biso   1.000  S
  S26      1.0000 0.02697  0.97710  0.73177  Biso   1.000  S
  S27      1.0000 0.97303  0.47710  0.26823  Biso   1.000  S
  S28      1.0000 0.52697  0.52290  0.76823  Biso   1.000  S
  S29      1.0000 0.52697  0.97710  0.76823  Biso   1.000  S
  S30      1.0000 0.97303  0.02290  0.26823  Biso   1.000  S
  S31      1.0000 0.02697  0.52290  0.73177  Biso   1.000  S
  S32      1.0000 0.47303  0.47710  0.23177  Biso   1.000  S
  S33      1.0000 0.88393  0.89755  0.50167  Biso   1.000  S
  S34      1.0000 0.61607  0.10245  0.00167  Biso   1.000  S
  S35      1.0000 0.38393  0.60245  0.99833  Biso   1.000  S
  S36      1.0000 0.11607  0.39755  0.49833  Biso   1.000  S
  S37      1.0000 0.11607  0.10245  0.49833  Biso   1.000  S
  S38      1.0000 0.38393  0.89755  0.99833  Biso   1.000  S
  S39      1.0000 0.61607  0.39755  0.00167  Biso   1.000  S
  S40      1.0000 0.88393  0.60245  0.50167  Biso   1.000  S
  S41      1.0000 0.73010  0.85340  0.19810  Biso   1.000  S
  S42      1.0000 0.76990  0.14660  0.69810  Biso   1.000  S
  S43      1.0000 0.23010  0.64660  0.30190  Biso   1.000  S
  S44      1.0000 0.26990  0.35340  0.80190  Biso   1.000  S
  S45      1.0000 0.26990  0.14660  0.80190  Biso   1.000  S
  S46      1.0000 0.23010  0.85340  0.30190  Biso   1.000  S
  S47      1.0000 0.76990  0.35340  0.69810  Biso   1.000  S
  S48      1.0000 0.73010  0.64660  0.19810  Biso   1.000  S
  S49      1.0000 0.50232  0.15313  0.45448  Biso   1.000  S
  S50      1.0000 0.99768  0.84687  0.95448  Biso   1.000  S
  S51      1.0000 0.00232  0.34687  0.04552  Biso   1.000  S
  S52      1.0000 0.49768  0.65313  0.54552  Biso   1.000  S
  S53      1.0000 0.49768  0.84687  0.54552  Biso   1.000  S
  S54      1.0000 0.00232  0.15313  0.04552  Biso   1.000  S
  S55      1.0000 0.99768  0.65313  0.95448  Biso   1.000  S
  S56      1.0000 0.50232  0.34687  0.45448  Biso   1.000  S
  S57      1.0000 0.34985  0.10208  0.16165  Biso   1.000  S
  S58      1.0000 0.15015  0.89792  0.66165  Biso   1.000  S
  S59      1.0000 0.84985  0.39792  0.33835  Biso   1.000  S
  S60      1.0000 0.65015  0.60208  0.83835  Biso   1.000  S
  S61      1.0000 0.65015  0.89792  0.83835  Biso   1.000  S
  S62      1.0000 0.84985  0.10208  0.33835  Biso   1.000  S
  S63      1.0000 0.15015  0.60208  0.66165  Biso   1.000  S
  S64      1.0000 0.34985  0.39792  0.16165  Biso   1.000  S
  C81      1.0000 0.39450  0.17370  0.38700  Biso   1.000  C
  C82      1.0000 0.10550  0.82630  0.88700  Biso   1.000  C
  C83      1.0000 0.89450  0.32630  0.11300  Biso   1.000  C
  C84      1.0000 0.60550  0.67370  0.61300  Biso   1.000  C
  C85      1.0000 0.60550  0.82630  0.61300  Biso   1.000  C
  C86      1.0000 0.89450  0.17370  0.11300  Biso   1.000  C
  C87      1.0000 0.10550  0.67370  0.88700  Biso   1.000  C
  C88      1.0000 0.39450  0.32630  0.38700  Biso   1.000  C
  H65      1.0000 0.33560  0.16030  0.44710  Biso   1.000  H
  H66      1.0000 0.16440  0.83970  0.94710  Biso   1.000  H
  H67      1.0000 0.83560  0.33970  0.05290  Biso   1.000  H
  H68      1.0000 0.66440  0.66030  0.55290  Biso   1.000  H
  H69      1.0000 0.66440  0.83970  0.55290  Biso   1.000  H
  H70      1.0000 0.83560  0.16030  0.05290  Biso   1.000  H
  H71      1.0000 0.16440  0.66030  0.94710  Biso   1.000  H
  H72      1.0000 0.33560  0.33970  0.44710  Biso   1.000  H
  H73      1.0000 0.39360  0.20670  0.40650  Biso   1.000  H
  H74      1.0000 0.10640  0.79330  0.90650  Biso   1.000  H
  H75      1.0000 0.89360  0.29330  0.09350  Biso   1.000  H
  H76      1.0000 0.60640  0.70670  0.59350  Biso   1.000  H
  H77      1.0000 0.60640  0.79330  0.59350  Biso   1.000  H
  H78      1.0000 0.89360  0.20670  0.09350  Biso   1.000  H
  H79      1.0000 0.10640  0.70670  0.90650  Biso   1.000  H
  H80      1.0000 0.39360  0.29330  0.40650  Biso   1.000  H
  C89      1.0000 0.37900  0.16520  0.21600  Biso   1.000  C
  C90      1.0000 0.12100  0.83480  0.71600  Biso   1.000  C
  C91      1.0000 0.87900  0.33480  0.28400  Biso   1.000  C
  C92      1.0000 0.62100  0.66520  0.78400  Biso   1.000  C
  C93      1.0000 0.62100  0.83480  0.78400  Biso   1.000  C
  C94      1.0000 0.87900  0.16520  0.28400  Biso   1.000  C
  C95      1.0000 0.12100  0.66520  0.71600  Biso   1.000  C
  C96      1.0000 0.37900  0.33480  0.21600  Biso   1.000  C
  H81      1.0000 0.44280  0.17490  0.15810  Biso   1.000  H
  H82      1.0000 0.05720  0.82510  0.65810  Biso   1.000  H
  H83      1.0000 0.94280  0.32510  0.34190  Biso   1.000  H
  H84      1.0000 0.55720  0.67490  0.84190  Biso   1.000  H
  H85      1.0000 0.55720  0.82510  0.84190  Biso   1.000  H
  H86      1.0000 0.94280  0.17490  0.34190  Biso   1.000  H
  H87      1.0000 0.05720  0.67490  0.65810  Biso   1.000  H
  H88      1.0000 0.44280  0.32510  0.15810  Biso   1.000  H
  H89      1.0000 0.32070  0.18410  0.17770  Biso   1.000  H
  H90      1.0000 0.17930  0.81590  0.67770  Biso   1.000  H
  H91      1.0000 0.82070  0.31590  0.32230  Biso   1.000  H
  H92      1.0000 0.67930  0.68410  0.82230  Biso   1.000  H
  H93      1.0000 0.67930  0.81590  0.82230  Biso   1.000  H
  H94      1.0000 0.82070  0.18410  0.32230  Biso   1.000  H
  H95      1.0000 0.17930  0.68410  0.67770  Biso   1.000  H
  H96      1.0000 0.32070  0.31590  0.17770  Biso   1.000  H
  C97      1.0000 0.85310  0.25000  0.60330  Biso   1.000  C
  C98      1.0000 0.64690  0.75000  0.10330  Biso   1.000  C
  C99      1.0000 0.35310  0.25000  0.89670  Biso   1.000  C
  C100     1.0000 0.14690  0.75000  0.39670  Biso   1.000  C
  C101     1.0000 0.98140  0.25000  0.79080  Biso   1.000  C
  C102     1.0000 0.51860  0.75000  0.29080  Biso   1.000  C
  C103     1.0000 0.48140  0.25000  0.70920  Biso   1.000  C
  C104     1.0000 0.01860  0.75000  0.20920  Biso   1.000  C
  N1       1.0000 0.77360  0.25000  0.54580  Biso   1.000  N
  N2       1.0000 0.72640  0.75000  0.04580  Biso   1.000  N
  N3       1.0000 0.27360  0.25000  0.95420  Biso   1.000  N
  N4       1.0000 0.22640  0.75000  0.45420  Biso   1.000  N
  N5       1.0000 0.94810  0.25000  0.64690  Biso   1.000  N
  N6       1.0000 0.55190  0.75000  0.14690  Biso   1.000  N
  N7       1.0000 0.44810  0.25000  0.85310  Biso   1.000  N
  N8       1.0000 0.05190  0.75000  0.35310  Biso   1.000  N
  N9       1.0000 0.02660  0.25000  0.90800  Biso   1.000  N
  N10      1.0000 0.47340  0.75000  0.40800  Biso   1.000  N
  N11      1.0000 0.52660  0.25000  0.59200  Biso   1.000  N
  N12      1.0000 0.97340  0.75000  0.09200  Biso   1.000  N
  Cu1      1.0000 0.63788  0.25000  0.43724  Biso   1.000  Cu
  Cu2      1.0000 0.86212  0.75000  0.93724  Biso   1.000  Cu
  Cu3      1.0000 0.13788  0.25000  0.06276  Biso   1.000  Cu
  Cu4      1.0000 0.36212  0.75000  0.56276  Biso   1.000  Cu
  Cl1      1.0000 0.64796  0.25000  0.17425  Biso   1.000  Cl
  Cl2      1.0000 0.85204  0.75000  0.67425  Biso   1.000  Cl
  Cl3      1.0000 0.14796  0.25000  0.32575  Biso   1.000  Cl
  Cl4      1.0000 0.35204  0.75000  0.82575  Biso   1.000  Cl
