data_image0
_cell_length_a       12.9262
_cell_length_b       29.848
_cell_length_c       8.4661
_cell_angle_alpha    90
_cell_angle_beta     90
_cell_angle_gamma    90

_symmetry_space_group_name_H-M    "P 1"
_symmetry_int_tables_number       1

loop_
  _symmetry_equiv_pos_as_xyz
  'x, y, z'

loop_
  _atom_site_label
  _atom_site_occupancy
  _atom_site_fract_x
  _atom_site_fract_y
  _atom_site_fract_z
  _atom_site_thermal_displace_type
  _atom_site_B_iso_or_equiv
  _atom_site_type_symbol
  C1       1.0000 0.63940  0.98158  0.35950  Biso   1.000  C
  C2       1.0000 0.86060  0.01842  0.85950  Biso   1.000  C
  C3       1.0000 0.13940  0.51842  0.14050  Biso   1.000  C
  C4       1.0000 0.36060  0.48158  0.64050  Biso   1.000  C
  C5       1.0000 0.36060  0.01842  0.64050  Biso   1.000  C
  C6       1.0000 0.13940  0.98158  0.14050  Biso   1.000  C
  C7       1.0000 0.86060  0.48158  0.85950  Biso   1.000  C
  C8       1.0000 0.63940  0.51842  0.35950  Biso   1.000  C
  C9       1.0000 0.57860  0.01871  0.35790  Biso   1.000  C
  C10      1.0000 0.92140  0.98129  0.85790  Biso   1.000  C
  C11      1.0000 0.07860  0.48129  0.14210  Biso   1.000  C
  C12      1.0000 0.42140  0.51871  0.64210  Biso   1.000  C
  C13      1.0000 0.42140  0.98129  0.64210  Biso   1.000  C
  C14      1.0000 0.07860  0.01871  0.14210  Biso   1.000  C
  C15      1.0000 0.92140  0.51871  0.85790  Biso   1.000  C
  C16      1.0000 0.57860  0.48129  0.35790  Biso   1.000  C
  C17      1.0000 0.77830  0.92157  0.41040  Biso   1.000  C
  C18      1.0000 0.72170  0.07843  0.91040  Biso   1.000  C
  C19      1.0000 0.27830  0.57843  0.08960  Biso   1.000  C
  C20      1.0000 0.22170  0.42157  0.58960  Biso   1.000  C
  C21      1.0000 0.22170  0.07843  0.58960  Biso   1.000  C
  C22      1.0000 0.27830  0.92157  0.08960  Biso   1.000  C
  C23      1.0000 0.72170  0.42157  0.91040  Biso   1.000  C
  C24      1.0000 0.77830  0.57843  0.41040  Biso   1.000  C
  C25      1.0000 0.71890  0.90447  0.29470  Biso   1.000  C
  C26      1.0000 0.78110  0.09553  0.79470  Biso   1.000  C
  C27      1.0000 0.21890  0.59553  0.20530  Biso   1.000  C
  C28      1.0000 0.28110  0.40447  0.70530  Biso   1.000  C
  C29      1.0000 0.28110  0.09553  0.70530  Biso   1.000  C
  C30      1.0000 0.21890  0.90447  0.20530  Biso   1.000  C
  C31      1.0000 0.78110  0.40447  0.79470  Biso   1.000  C
  C32      1.0000 0.71890  0.59553  0.29470  Biso   1.000  C
  C33      1.0000 0.50480  0.09825  0.38820  Biso   1.000  C
  C34      1.0000 0.99520  0.90175  0.88820  Biso   1.000  C
  C35      1.0000 0.00480  0.40175  0.11180  Biso   1.000  C
  C36      1.0000 0.49520  0.59825  0.61180  Biso   1.000  C
  C37      1.0000 0.49520  0.90175  0.61180  Biso   1.000  C
  C38      1.0000 0.00480  0.09825  0.11180  Biso   1.000  C
  C39      1.0000 0.99520  0.59825  0.88820  Biso   1.000  C
  C40      1.0000 0.50480  0.40175  0.38820  Biso   1.000  C
  C41      1.0000 0.44650  0.07865  0.27550  Biso   1.000  C
  C42      1.0000 0.05350  0.92135  0.77550  Biso   1.000  C
  C43      1.0000 0.94650  0.42135  0.22450  Biso   1.000  C
  C44      1.0000 0.55350  0.57865  0.72450  Biso   1.000  C
  C45      1.0000 0.55350  0.92135  0.72450  Biso   1.000  C
  C46      1.0000 0.94650  0.07865  0.22450  Biso   1.000  C
  C47      1.0000 0.05350  0.57865  0.77550  Biso   1.000  C
  C48      1.0000 0.44650  0.42135  0.27550  Biso   1.000  C
  C49      1.0000 0.90950  0.84950  0.37920  Biso   1.000  C
  C50      1.0000 0.59050  0.15050  0.87920  Biso   1.000  C
  C51      1.0000 0.40950  0.65050  0.12080  Biso   1.000  C
  C52      1.0000 0.09050  0.34950  0.62080  Biso   1.000  C
  C53      1.0000 0.09050  0.15050  0.62080  Biso   1.000  C
  C54      1.0000 0.40950  0.84950  0.12080  Biso   1.000  C
  C55      1.0000 0.59050  0.34950  0.87920  Biso   1.000  C
  C56      1.0000 0.90950  0.65050  0.37920  Biso   1.000  C
  H1       1.0000 0.94620  0.85970  0.28170  Biso   1.000  H
  H2       1.0000 0.55380  0.14030  0.78170  Biso   1.000  H
  H3       1.0000 0.44620  0.64030  0.21830  Biso   1.000  H
  H4       1.0000 0.05380  0.35970  0.71830  Biso   1.000  H
  H5       1.0000 0.05380  0.14030  0.71830  Biso   1.000  H
  H6       1.0000 0.44620  0.85970  0.21830  Biso   1.000  H
  H7       1.0000 0.55380  0.35970  0.78170  Biso   1.000  H
  H8       1.0000 0.94620  0.64030  0.28170  Biso   1.000  H
  H9       1.0000 0.95710  0.82880  0.43700  Biso   1.000  H
  H10      1.0000 0.54290  0.17120  0.93700  Biso   1.000  H
  H11      1.0000 0.45710  0.67120  0.06300  Biso   1.000  H
  H12      1.0000 0.04290  0.32880  0.56300  Biso   1.000  H
  H13      1.0000 0.04290  0.17120  0.56300  Biso   1.000  H
  H14      1.0000 0.45710  0.82880  0.06300  Biso   1.000  H
  H15      1.0000 0.54290  0.32880  0.93700  Biso   1.000  H
  H16      1.0000 0.95710  0.67120  0.43700  Biso   1.000  H
  C57      1.0000 0.81550  0.82370  0.33070  Biso   1.000  C
  C58      1.0000 0.68450  0.17630  0.83070  Biso   1.000  C
  C59      1.0000 0.31550  0.67630  0.16930  Biso   1.000  C
  C60      1.0000 0.18450  0.32370  0.66930  Biso   1.000  C
  C61      1.0000 0.18450  0.17630  0.66930  Biso   1.000  C
  C62      1.0000 0.31550  0.82370  0.16930  Biso   1.000  C
  C63      1.0000 0.68450  0.32370  0.83070  Biso   1.000  C
  C64      1.0000 0.81550  0.67630  0.33070  Biso   1.000  C
  H17      1.0000 0.77540  0.81560  0.42760  Biso   1.000  H
  H18      1.0000 0.72460  0.18440  0.92760  Biso   1.000  H
  H19      1.0000 0.27540  0.68440  0.07240  Biso   1.000  H
  H20      1.0000 0.22460  0.31560  0.57240  Biso   1.000  H
  H21      1.0000 0.22460  0.18440  0.57240  Biso   1.000  H
  H22      1.0000 0.27540  0.81560  0.07240  Biso   1.000  H
  H23      1.0000 0.72460  0.31560  0.92760  Biso   1.000  H
  H24      1.0000 0.77540  0.68440  0.42760  Biso   1.000  H
  H25      1.0000 0.83810  0.79510  0.27950  Biso   1.000  H
  H26      1.0000 0.66190  0.20490  0.77950  Biso   1.000  H
  H27      1.0000 0.33810  0.70490  0.22050  Biso   1.000  H
  H28      1.0000 0.16190  0.29510  0.72050  Biso   1.000  H
  H29      1.0000 0.16190  0.20490  0.72050  Biso   1.000  H
  H30      1.0000 0.33810  0.79510  0.22050  Biso   1.000  H
  H31      1.0000 0.66190  0.29510  0.77950  Biso   1.000  H
  H32      1.0000 0.83810  0.70490  0.27950  Biso   1.000  H
  C65      1.0000 0.42070  0.17923  0.29940  Biso   1.000  C
  C66      1.0000 0.07930  0.82077  0.79940  Biso   1.000  C
  C67      1.0000 0.92070  0.32077  0.20060  Biso   1.000  C
  C68      1.0000 0.57930  0.67923  0.70060  Biso   1.000  C
  C69      1.0000 0.57930  0.82077  0.70060  Biso   1.000  C
  C70      1.0000 0.92070  0.17923  0.20060  Biso   1.000  C
  C71      1.0000 0.07930  0.67923  0.79940  Biso   1.000  C
  C72      1.0000 0.42070  0.32077  0.29940  Biso   1.000  C
  H33      1.0000 0.40020  0.20990  0.33480  Biso   1.000  H
  H34      1.0000 0.09980  0.79010  0.83480  Biso   1.000  H
  H35      1.0000 0.90020  0.29010  0.16520  Biso   1.000  H
  H36      1.0000 0.59980  0.70990  0.66520  Biso   1.000  H
  H37      1.0000 0.59980  0.79010  0.66520  Biso   1.000  H
  H38      1.0000 0.90020  0.20990  0.16520  Biso   1.000  H
  H39      1.0000 0.09980  0.70990  0.83480  Biso   1.000  H
  H40      1.0000 0.40020  0.29010  0.33480  Biso   1.000  H
  H41      1.0000 0.46430  0.18270  0.20250  Biso   1.000  H
  H42      1.0000 0.03570  0.81730  0.70250  Biso   1.000  H
  H43      1.0000 0.96430  0.31730  0.29750  Biso   1.000  H
  H44      1.0000 0.53570  0.68270  0.79750  Biso   1.000  H
  H45      1.0000 0.53570  0.81730  0.79750  Biso   1.000  H
  H46      1.0000 0.96430  0.18270  0.29750  Biso   1.000  H
  H47      1.0000 0.03570  0.68270  0.70250  Biso   1.000  H
  H48      1.0000 0.46430  0.31730  0.20250  Biso   1.000  H
  C73      1.0000 0.32430  0.15370  0.25600  Biso   1.000  C
  C74      1.0000 0.17570  0.84630  0.75600  Biso   1.000  C
  C75      1.0000 0.82430  0.34630  0.24400  Biso   1.000  C
  C76      1.0000 0.67570  0.65370  0.74400  Biso   1.000  C
  C77      1.0000 0.67570  0.84630  0.74400  Biso   1.000  C
  C78      1.0000 0.82430  0.15370  0.24400  Biso   1.000  C
  C79      1.0000 0.17570  0.65370  0.75600  Biso   1.000  C
  C80      1.0000 0.32430  0.34630  0.25600  Biso   1.000  C
  H49      1.0000 0.28110  0.17280  0.18480  Biso   1.000  H
  H50      1.0000 0.21890  0.82720  0.68480  Biso   1.000  H
  H51      1.0000 0.78110  0.32720  0.31520  Biso   1.000  H
  H52      1.0000 0.71890  0.67280  0.81520  Biso   1.000  H
  H53      1.0000 0.71890  0.82720  0.81520  Biso   1.000  H
  H54      1.0000 0.78110  0.17280  0.31520  Biso   1.000  H
  H55      1.0000 0.21890  0.67280  0.68480  Biso   1.000  H
  H56      1.0000 0.28110  0.32720  0.18480  Biso   1.000  H
  H57      1.0000 0.28340  0.14800  0.35420  Biso   1.000  H
  H58      1.0000 0.21660  0.85200  0.85420  Biso   1.000  H
  H59      1.0000 0.78340  0.35200  0.14580  Biso   1.000  H
  H60      1.0000 0.71660  0.64800  0.64580  Biso   1.000  H
  H61      1.0000 0.71660  0.85200  0.64580  Biso   1.000  H
  H62      1.0000 0.78340  0.14800  0.14580  Biso   1.000  H
  H63      1.0000 0.21660  0.64800  0.85420  Biso   1.000  H
  H64      1.0000 0.28340  0.35200  0.35420  Biso   1.000  H
  S1       1.0000 0.74531  0.97447  0.48342  Biso   1.000  S
  S2       1.0000 0.75469  0.02553  0.98342  Biso   1.000  S
  S3       1.0000 0.24531  0.52553  0.01658  Biso   1.000  S
  S4       1.0000 0.25469  0.47447  0.51658  Biso   1.000  S
  S5       1.0000 0.25469  0.02553  0.51658  Biso   1.000  S
  S6       1.0000 0.24531  0.97447  0.01658  Biso   1.000  S
  S7       1.0000 0.75469  0.47447  0.98342  Biso   1.000  S
  S8       1.0000 0.74531  0.52553  0.48342  Biso   1.000  S
  S9       1.0000 0.61497  0.93713  0.23195  Biso   1.000  S
  S10      1.0000 0.88503  0.06287  0.73195  Biso   1.000  S
  S11      1.0000 0.11497  0.56287  0.26805  Biso   1.000  S
  S12      1.0000 0.38503  0.43713  0.76805  Biso   1.000  S
  S13      1.0000 0.38503  0.06287  0.76805  Biso   1.000  S
  S14      1.0000 0.11497  0.93713  0.26805  Biso   1.000  S
  S15      1.0000 0.88503  0.43713  0.73195  Biso   1.000  S
  S16      1.0000 0.61497  0.56287  0.23195  Biso   1.000  S
  S17      1.0000 0.59966  0.06517  0.47735  Biso   1.000  S
  S18      1.0000 0.90034  0.93483  0.97735  Biso   1.000  S
  S19      1.0000 0.09966  0.43483  0.02265  Biso   1.000  S
  S20      1.0000 0.40034  0.56517  0.52265  Biso   1.000  S
  S21      1.0000 0.40034  0.93483  0.52265  Biso   1.000  S
  S22      1.0000 0.09966  0.06517  0.02265  Biso   1.000  S
  S23      1.0000 0.90034  0.56517  0.97735  Biso   1.000  S
  S24      1.0000 0.59966  0.43483  0.47735  Biso   1.000  S
  S25      1.0000 0.47270  0.02266  0.23193  Biso   1.000  S
  S26      1.0000 0.02730  0.97734  0.73193  Biso   1.000  S
  S27      1.0000 0.97270  0.47734  0.26807  Biso   1.000  S
  S28      1.0000 0.52730  0.52266  0.76807  Biso   1.000  S
  S29      1.0000 0.52730  0.97734  0.76807  Biso   1.000  S
  S30      1.0000 0.97270  0.02266  0.26807  Biso   1.000  S
  S31      1.0000 0.02730  0.52266  0.73193  Biso   1.000  S
  S32      1.0000 0.47270  0.47734  0.23193  Biso   1.000  S
  S33      1.0000 0.88561  0.89753  0.50191  Biso   1.000  S
  S34      1.0000 0.61439  0.10247  0.00191  Biso   1.000  S
  S35      1.0000 0.38561  0.60247  0.99809  Biso   1.000  S
  S36      1.0000 0.11439  0.39753  0.49809  Biso   1.000  S
  S37      1.0000 0.11439  0.10247  0.49809  Biso   1.000  S
  S38      1.0000 0.38561  0.89753  0.99809  Biso   1.000  S
  S39      1.0000 0.61439  0.39753  0.00191  Biso   1.000  S
  S40      1.0000 0.88561  0.60247  0.50191  Biso   1.000  S
  S41      1.0000 0.73153  0.85318  0.19706  Biso   1.000  S
  S42      1.0000 0.76847  0.14682  0.69706  Biso   1.000  S
  S43      1.0000 0.23153  0.64682  0.30294  Biso   1.000  S
  S44      1.0000 0.26847  0.35318  0.80294  Biso   1.000  S
  S45      1.0000 0.26847  0.14682  0.80294  Biso   1.000  S
  S46      1.0000 0.23153  0.85318  0.30294  Biso   1.000  S
  S47      1.0000 0.76847  0.35318  0.69706  Biso   1.000  S
  S48      1.0000 0.73153  0.64682  0.19706  Biso   1.000  S
  S49      1.0000 0.50016  0.15339  0.45538  Biso   1.000  S
  S50      1.0000 0.99984  0.84661  0.95538  Biso   1.000  S
  S51      1.0000 0.00016  0.34661  0.04462  Biso   1.000  S
  S52      1.0000 0.49984  0.65339  0.54462  Biso   1.000  S
  S53      1.0000 0.49984  0.84661  0.54462  Biso   1.000  S
  S54      1.0000 0.00016  0.15339  0.04462  Biso   1.000  S
  S55      1.0000 0.99984  0.65339  0.95538  Biso   1.000  S
  S56      1.0000 0.50016  0.34661  0.45538  Biso   1.000  S
  S57      1.0000 0.34835  0.10184  0.16098  Biso   1.000  S
  S58      1.0000 0.15165  0.89816  0.66098  Biso   1.000  S
  S59      1.0000 0.84835  0.39816  0.33902  Biso   1.000  S
  S60      1.0000 0.65165  0.60184  0.83902  Biso   1.000  S
  S61      1.0000 0.65165  0.89816  0.83902  Biso   1.000  S
  S62      1.0000 0.84835  0.10184  0.33902  Biso   1.000  S
  S63      1.0000 0.15165  0.60184  0.66098  Biso   1.000  S
  S64      1.0000 0.34835  0.39816  0.16098  Biso   1.000  S
  C81      1.0000 0.39200  0.17350  0.38700  Biso   1.000  C
  C82      1.0000 0.10800  0.82650  0.88700  Biso   1.000  C
  C83      1.0000 0.89200  0.32650  0.11300  Biso   1.000  C
  C84      1.0000 0.60800  0.67350  0.61300  Biso   1.000  C
  C85      1.0000 0.60800  0.82650  0.61300  Biso   1.000  C
  C86      1.0000 0.89200  0.17350  0.11300  Biso   1.000  C
  C87      1.0000 0.10800  0.67350  0.88700  Biso   1.000  C
  C88      1.0000 0.39200  0.32650  0.38700  Biso   1.000  C
  H65      1.0000 0.33350  0.16020  0.44800  Biso   1.000  H
  H66      1.0000 0.16650  0.83980  0.94800  Biso   1.000  H
  H67      1.0000 0.83350  0.33980  0.05200  Biso   1.000  H
  H68      1.0000 0.66650  0.66020  0.55200  Biso   1.000  H
  H69      1.0000 0.66650  0.83980  0.55200  Biso   1.000  H
  H70      1.0000 0.83350  0.16020  0.05200  Biso   1.000  H
  H71      1.0000 0.16650  0.66020  0.94800  Biso   1.000  H
  H72      1.0000 0.33350  0.33980  0.44800  Biso   1.000  H
  H73      1.0000 0.39120  0.20660  0.40570  Biso   1.000  H
  H74      1.0000 0.10880  0.79340  0.90570  Biso   1.000  H
  H75      1.0000 0.89120  0.29340  0.09430  Biso   1.000  H
  H76      1.0000 0.60880  0.70660  0.59430  Biso   1.000  H
  H77      1.0000 0.60880  0.79340  0.59430  Biso   1.000  H
  H78      1.0000 0.89120  0.20660  0.09430  Biso   1.000  H
  H79      1.0000 0.10880  0.70660  0.90570  Biso   1.000  H
  H80      1.0000 0.39120  0.29340  0.40570  Biso   1.000  H
  C89      1.0000 0.37500  0.16490  0.21600  Biso   1.000  C
  C90      1.0000 0.12500  0.83510  0.71600  Biso   1.000  C
  C91      1.0000 0.87500  0.33510  0.28400  Biso   1.000  C
  C92      1.0000 0.62500  0.66490  0.78400  Biso   1.000  C
  C93      1.0000 0.62500  0.83510  0.78400  Biso   1.000  C
  C94      1.0000 0.87500  0.16490  0.28400  Biso   1.000  C
  C95      1.0000 0.12500  0.66490  0.71600  Biso   1.000  C
  C96      1.0000 0.37500  0.33510  0.21600  Biso   1.000  C
  H81      1.0000 0.43790  0.17520  0.15680  Biso   1.000  H
  H82      1.0000 0.06210  0.82480  0.65680  Biso   1.000  H
  H83      1.0000 0.93790  0.32480  0.34320  Biso   1.000  H
  H84      1.0000 0.56210  0.67520  0.84320  Biso   1.000  H
  H85      1.0000 0.56210  0.82480  0.84320  Biso   1.000  H
  H86      1.0000 0.93790  0.17520  0.34320  Biso   1.000  H
  H87      1.0000 0.06210  0.67520  0.65680  Biso   1.000  H
  H88      1.0000 0.43790  0.32480  0.15680  Biso   1.000  H
  H89      1.0000 0.31550  0.18340  0.17970  Biso   1.000  H
  H90      1.0000 0.18450  0.81660  0.67970  Biso   1.000  H
  H91      1.0000 0.81550  0.31660  0.32030  Biso   1.000  H
  H92      1.0000 0.68450  0.68340  0.82030  Biso   1.000  H
  H93      1.0000 0.68450  0.81660  0.82030  Biso   1.000  H
  H94      1.0000 0.81550  0.18340  0.32030  Biso   1.000  H
  H95      1.0000 0.18450  0.68340  0.67970  Biso   1.000  H
  H96      1.0000 0.31550  0.31660  0.17970  Biso   1.000  H
  C97      1.0000 0.85150  0.25000  0.60160  Biso   1.000  C
  C98      1.0000 0.64850  0.75000  0.10160  Biso   1.000  C
  C99      1.0000 0.35150  0.25000  0.89840  Biso   1.000  C
  C100     1.0000 0.14850  0.75000  0.39840  Biso   1.000  C
  C101     1.0000 0.97930  0.25000  0.78990  Biso   1.000  C
  C102     1.0000 0.52070  0.75000  0.28990  Biso   1.000  C
  C103     1.0000 0.47930  0.25000  0.71010  Biso   1.000  C
  C104     1.0000 0.02070  0.75000  0.21010  Biso   1.000  C
  N1       1.0000 0.77100  0.25000  0.54360  Biso   1.000  N
  N2       1.0000 0.72900  0.75000  0.04360  Biso   1.000  N
  N3       1.0000 0.27100  0.25000  0.95640  Biso   1.000  N
  N4       1.0000 0.22900  0.75000  0.45640  Biso   1.000  N
  N5       1.0000 0.94670  0.25000  0.64560  Biso   1.000  N
  N6       1.0000 0.55330  0.75000  0.14560  Biso   1.000  N
  N7       1.0000 0.44670  0.25000  0.85440  Biso   1.000  N
  N8       1.0000 0.05330  0.75000  0.35440  Biso   1.000  N
  N9       1.0000 0.02360  0.25000  0.90820  Biso   1.000  N
  N10      1.0000 0.47640  0.75000  0.40820  Biso   1.000  N
  N11      1.0000 0.52360  0.25000  0.59180  Biso   1.000  N
  N12      1.0000 0.97640  0.75000  0.09180  Biso   1.000  N
  Cu1      1.0000 0.63482  0.25000  0.43627  Biso   1.000  Cu
  Cu2      1.0000 0.86518  0.75000  0.93627  Biso   1.000  Cu
  Cu3      1.0000 0.13482  0.25000  0.06373  Biso   1.000  Cu
  Cu4      1.0000 0.36518  0.75000  0.56373  Biso   1.000  Cu
  Cl1      1.0000 0.64583  0.25000  0.17268  Biso   1.000  Cl
  Cl2      1.0000 0.85417  0.75000  0.67268  Biso   1.000  Cl
  Cl3      1.0000 0.14583  0.25000  0.32732  Biso   1.000  Cl
  Cl4      1.0000 0.35417  0.75000  0.82732  Biso   1.000  Cl
