data_image0
_cell_length_a       12.929
_cell_length_b       29.879
_cell_length_c       8.457
_cell_angle_alpha    90
_cell_angle_beta     90
_cell_angle_gamma    90

_symmetry_space_group_name_H-M    "P 1"
_symmetry_int_tables_number       1

loop_
  _symmetry_equiv_pos_as_xyz
  'x, y, z'

loop_
  _atom_site_label
  _atom_site_occupancy
  _atom_site_fract_x
  _atom_site_fract_y
  _atom_site_fract_z
  _atom_site_thermal_displace_type
  _atom_site_B_iso_or_equiv
  _atom_site_type_symbol
  S1       1.0000 0.02694  0.47707  0.76873  Biso   1.000  S
  S2       1.0000 0.47306  0.52293  0.26873  Biso   1.000  S
  S3       1.0000 0.97306  0.97707  0.23127  Biso   1.000  S
  S4       1.0000 0.52694  0.02293  0.73127  Biso   1.000  S
  S5       1.0000 0.97306  0.52293  0.23127  Biso   1.000  S
  S6       1.0000 0.52694  0.47707  0.73127  Biso   1.000  S
  S7       1.0000 0.02694  0.02293  0.76873  Biso   1.000  S
  S8       1.0000 0.47306  0.97707  0.26873  Biso   1.000  S
  S9       1.0000 0.89932  0.43498  0.52363  Biso   1.000  S
  S10      1.0000 0.60068  0.56502  0.02363  Biso   1.000  S
  S11      1.0000 0.10068  0.93498  0.47637  Biso   1.000  S
  S12      1.0000 0.39932  0.06502  0.97637  Biso   1.000  S
  S13      1.0000 0.10068  0.56502  0.47637  Biso   1.000  S
  S14      1.0000 0.39932  0.43498  0.97637  Biso   1.000  S
  S15      1.0000 0.89932  0.06502  0.52363  Biso   1.000  S
  S16      1.0000 0.60068  0.93498  0.02363  Biso   1.000  S
  S17      1.0000 0.88565  0.56284  0.76819  Biso   1.000  S
  S18      1.0000 0.61435  0.43716  0.26819  Biso   1.000  S
  S19      1.0000 0.11435  0.06284  0.23181  Biso   1.000  S
  S20      1.0000 0.38565  0.93716  0.73181  Biso   1.000  S
  S21      1.0000 0.11435  0.43716  0.23181  Biso   1.000  S
  S22      1.0000 0.38565  0.56284  0.73181  Biso   1.000  S
  S23      1.0000 0.88565  0.93716  0.76819  Biso   1.000  S
  S24      1.0000 0.61435  0.06284  0.26819  Biso   1.000  S
  S25      1.0000 0.75513  0.52575  0.51728  Biso   1.000  S
  S26      1.0000 0.74487  0.47425  0.01728  Biso   1.000  S
  S27      1.0000 0.24487  0.02575  0.48272  Biso   1.000  S
  S28      1.0000 0.25513  0.97425  0.98272  Biso   1.000  S
  S29      1.0000 0.24487  0.47425  0.48272  Biso   1.000  S
  S30      1.0000 0.25513  0.52575  0.98272  Biso   1.000  S
  S31      1.0000 0.75513  0.97425  0.51728  Biso   1.000  S
  S32      1.0000 0.74487  0.02575  0.01728  Biso   1.000  S
  S33      1.0000 0.15020  0.39785  0.83821  Biso   1.000  S
  S34      1.0000 0.34980  0.60215  0.33821  Biso   1.000  S
  S35      1.0000 0.84980  0.89785  0.16179  Biso   1.000  S
  S36      1.0000 0.65020  0.10215  0.66179  Biso   1.000  S
  S37      1.0000 0.84980  0.60215  0.16179  Biso   1.000  S
  S38      1.0000 0.65020  0.39785  0.66179  Biso   1.000  S
  S39      1.0000 0.15020  0.10215  0.83821  Biso   1.000  S
  S40      1.0000 0.34980  0.89785  0.33821  Biso   1.000  S
  S41      1.0000 0.99708  0.34680  0.54571  Biso   1.000  S
  S42      1.0000 0.50292  0.65320  0.04571  Biso   1.000  S
  S43      1.0000 0.00292  0.84680  0.45429  Biso   1.000  S
  S44      1.0000 0.49708  0.15320  0.95429  Biso   1.000  S
  S45      1.0000 0.00292  0.65320  0.45429  Biso   1.000  S
  S46      1.0000 0.49708  0.34680  0.95429  Biso   1.000  S
  S47      1.0000 0.99708  0.15320  0.54571  Biso   1.000  S
  S48      1.0000 0.50292  0.84680  0.04571  Biso   1.000  S
  S49      1.0000 0.77053  0.64691  0.80187  Biso   1.000  S
  S50      1.0000 0.72947  0.35309  0.30187  Biso   1.000  S
  S51      1.0000 0.22947  0.14691  0.19813  Biso   1.000  S
  S52      1.0000 0.27053  0.85309  0.69813  Biso   1.000  S
  S53      1.0000 0.22947  0.35309  0.19813  Biso   1.000  S
  S54      1.0000 0.27053  0.64691  0.69813  Biso   1.000  S
  S55      1.0000 0.77053  0.85309  0.80187  Biso   1.000  S
  S56      1.0000 0.72947  0.14691  0.30187  Biso   1.000  S
  S57      1.0000 0.61623  0.60279  0.49778  Biso   1.000  S
  S58      1.0000 0.88377  0.39721  0.99778  Biso   1.000  S
  S59      1.0000 0.38377  0.10279  0.50222  Biso   1.000  S
  S60      1.0000 0.11623  0.89721  0.00222  Biso   1.000  S
  S61      1.0000 0.38377  0.39721  0.50222  Biso   1.000  S
  S62      1.0000 0.11623  0.60279  0.00222  Biso   1.000  S
  S63      1.0000 0.61623  0.89721  0.49778  Biso   1.000  S
  S64      1.0000 0.88377  0.10279  0.99778  Biso   1.000  S
  C1       1.0000 0.92090  0.48114  0.64280  Biso   1.000  C
  C2       1.0000 0.57910  0.51886  0.14280  Biso   1.000  C
  C3       1.0000 0.07910  0.98114  0.35720  Biso   1.000  C
  C4       1.0000 0.42090  0.01886  0.85720  Biso   1.000  C
  C5       1.0000 0.07910  0.51886  0.35720  Biso   1.000  C
  C6       1.0000 0.42090  0.48114  0.85720  Biso   1.000  C
  C7       1.0000 0.92090  0.01886  0.64280  Biso   1.000  C
  C8       1.0000 0.57910  0.98114  0.14280  Biso   1.000  C
  C9       1.0000 0.86080  0.51866  0.64070  Biso   1.000  C
  C10      1.0000 0.63920  0.48134  0.14070  Biso   1.000  C
  C11      1.0000 0.13920  0.01866  0.35930  Biso   1.000  C
  C12      1.0000 0.36080  0.98134  0.85930  Biso   1.000  C
  C13      1.0000 0.13920  0.48134  0.35930  Biso   1.000  C
  C14      1.0000 0.36080  0.51866  0.85930  Biso   1.000  C
  C15      1.0000 0.86080  0.98134  0.64070  Biso   1.000  C
  C16      1.0000 0.63920  0.01866  0.14070  Biso   1.000  C
  C17      1.0000 0.05210  0.42121  0.72500  Biso   1.000  C
  C18      1.0000 0.44790  0.57879  0.22500  Biso   1.000  C
  C19      1.0000 0.94790  0.92121  0.27500  Biso   1.000  C
  C20      1.0000 0.55210  0.07879  0.77500  Biso   1.000  C
  C21      1.0000 0.94790  0.57879  0.27500  Biso   1.000  C
  C22      1.0000 0.55210  0.42121  0.77500  Biso   1.000  C
  C23      1.0000 0.05210  0.07879  0.72500  Biso   1.000  C
  C24      1.0000 0.44790  0.92121  0.22500  Biso   1.000  C
  C25      1.0000 0.99350  0.40181  0.61320  Biso   1.000  C
  C26      1.0000 0.50650  0.59819  0.11320  Biso   1.000  C
  C27      1.0000 0.00650  0.90181  0.38680  Biso   1.000  C
  C28      1.0000 0.49350  0.09819  0.88680  Biso   1.000  C
  C29      1.0000 0.00650  0.59819  0.38680  Biso   1.000  C
  C30      1.0000 0.49350  0.40181  0.88680  Biso   1.000  C
  C31      1.0000 0.99350  0.09819  0.61320  Biso   1.000  C
  C32      1.0000 0.50650  0.90181  0.11320  Biso   1.000  C
  C33      1.0000 0.78220  0.59564  0.70480  Biso   1.000  C
  C34      1.0000 0.71780  0.40436  0.20480  Biso   1.000  C
  C35      1.0000 0.21780  0.09564  0.29520  Biso   1.000  C
  C36      1.0000 0.28220  0.90436  0.79520  Biso   1.000  C
  C37      1.0000 0.21780  0.40436  0.29520  Biso   1.000  C
  C38      1.0000 0.28220  0.59564  0.79520  Biso   1.000  C
  C39      1.0000 0.78220  0.90436  0.70480  Biso   1.000  C
  C40      1.0000 0.71780  0.09564  0.20480  Biso   1.000  C
  C41      1.0000 0.72290  0.57861  0.58970  Biso   1.000  C
  C42      1.0000 0.77710  0.42139  0.08970  Biso   1.000  C
  C43      1.0000 0.27710  0.07861  0.41030  Biso   1.000  C
  C44      1.0000 0.22290  0.92139  0.91030  Biso   1.000  C
  C45      1.0000 0.27710  0.42139  0.41030  Biso   1.000  C
  C46      1.0000 0.22290  0.57861  0.91030  Biso   1.000  C
  C47      1.0000 0.72290  0.92139  0.58970  Biso   1.000  C
  C48      1.0000 0.77710  0.07861  0.08970  Biso   1.000  C
  C49      1.0000 0.17260  0.34523  0.74350  Biso   1.000  C
  C50      1.0000 0.32740  0.65477  0.24350  Biso   1.000  C
  C51      1.0000 0.82740  0.84523  0.25650  Biso   1.000  C
  C52      1.0000 0.67260  0.15477  0.75650  Biso   1.000  C
  C53      1.0000 0.82740  0.65477  0.25650  Biso   1.000  C
  C54      1.0000 0.67260  0.34523  0.75650  Biso   1.000  C
  C55      1.0000 0.17260  0.15477  0.74350  Biso   1.000  C
  C56      1.0000 0.32740  0.84523  0.24350  Biso   1.000  C
  H1       1.0000 0.21420  0.35020  0.64960  Biso   1.000  H
  H2       1.0000 0.28580  0.64980  0.14960  Biso   1.000  H
  H3       1.0000 0.78580  0.85020  0.35040  Biso   1.000  H
  H4       1.0000 0.71420  0.14980  0.85040  Biso   1.000  H
  H5       1.0000 0.78580  0.64980  0.35040  Biso   1.000  H
  H6       1.0000 0.71420  0.35020  0.85040  Biso   1.000  H
  H7       1.0000 0.21420  0.14980  0.64960  Biso   1.000  H
  H8       1.0000 0.28580  0.85020  0.14960  Biso   1.000  H
  H9       1.0000 0.21200  0.32620  0.81440  Biso   1.000  H
  H10      1.0000 0.28800  0.67380  0.31440  Biso   1.000  H
  H11      1.0000 0.78800  0.82620  0.18560  Biso   1.000  H
  H12      1.0000 0.71200  0.17380  0.68560  Biso   1.000  H
  H13      1.0000 0.78800  0.67380  0.18560  Biso   1.000  H
  H14      1.0000 0.71200  0.32620  0.68560  Biso   1.000  H
  H15      1.0000 0.21200  0.17380  0.81440  Biso   1.000  H
  H16      1.0000 0.28800  0.82620  0.31440  Biso   1.000  H
  C57      1.0000 0.07550  0.32136  0.69730  Biso   1.000  C
  C58      1.0000 0.42450  0.67864  0.19730  Biso   1.000  C
  C59      1.0000 0.92450  0.82136  0.30270  Biso   1.000  C
  C60      1.0000 0.57550  0.17864  0.80270  Biso   1.000  C
  C61      1.0000 0.92450  0.67864  0.30270  Biso   1.000  C
  C62      1.0000 0.57550  0.32136  0.80270  Biso   1.000  C
  C63      1.0000 0.07550  0.17864  0.69730  Biso   1.000  C
  C64      1.0000 0.42450  0.82136  0.19730  Biso   1.000  C
  H17      1.0000 0.03320  0.31800  0.79130  Biso   1.000  H
  H18      1.0000 0.46680  0.68200  0.29130  Biso   1.000  H
  H19      1.0000 0.96680  0.81800  0.20870  Biso   1.000  H
  H20      1.0000 0.53320  0.18200  0.70870  Biso   1.000  H
  H21      1.0000 0.96680  0.68200  0.20870  Biso   1.000  H
  H22      1.0000 0.53320  0.31800  0.70870  Biso   1.000  H
  H23      1.0000 0.03320  0.18200  0.79130  Biso   1.000  H
  H24      1.0000 0.46680  0.81800  0.29130  Biso   1.000  H
  H25      1.0000 0.09420  0.29150  0.66210  Biso   1.000  H
  H26      1.0000 0.40580  0.70850  0.16210  Biso   1.000  H
  H27      1.0000 0.90580  0.79150  0.33790  Biso   1.000  H
  H28      1.0000 0.59420  0.20850  0.83790  Biso   1.000  H
  H29      1.0000 0.90580  0.70850  0.33790  Biso   1.000  H
  H30      1.0000 0.59420  0.29150  0.83790  Biso   1.000  H
  H31      1.0000 0.09420  0.20850  0.66210  Biso   1.000  H
  H32      1.0000 0.40580  0.79150  0.16210  Biso   1.000  H
  C65      1.0000 0.68660  0.67639  0.66890  Biso   1.000  C
  C66      1.0000 0.81340  0.32361  0.16890  Biso   1.000  C
  C67      1.0000 0.31340  0.17639  0.33110  Biso   1.000  C
  C68      1.0000 0.18660  0.82361  0.83110  Biso   1.000  C
  C69      1.0000 0.31340  0.32361  0.33110  Biso   1.000  C
  C70      1.0000 0.18660  0.67639  0.83110  Biso   1.000  C
  C71      1.0000 0.68660  0.82361  0.66890  Biso   1.000  C
  C72      1.0000 0.81340  0.17639  0.16890  Biso   1.000  C
  H33      1.0000 0.66480  0.70410  0.71890  Biso   1.000  H
  H34      1.0000 0.83520  0.29590  0.21890  Biso   1.000  H
  H35      1.0000 0.33520  0.20410  0.28110  Biso   1.000  H
  H36      1.0000 0.16480  0.79590  0.78110  Biso   1.000  H
  H37      1.0000 0.33520  0.29590  0.28110  Biso   1.000  H
  H38      1.0000 0.16480  0.70410  0.78110  Biso   1.000  H
  H39      1.0000 0.66480  0.79590  0.71890  Biso   1.000  H
  H40      1.0000 0.83520  0.20410  0.21890  Biso   1.000  H
  H41      1.0000 0.72530  0.68420  0.57460  Biso   1.000  H
  H42      1.0000 0.77470  0.31580  0.07460  Biso   1.000  H
  H43      1.0000 0.27470  0.18420  0.42540  Biso   1.000  H
  H44      1.0000 0.22530  0.81580  0.92540  Biso   1.000  H
  H45      1.0000 0.27470  0.31580  0.42540  Biso   1.000  H
  H46      1.0000 0.22530  0.68420  0.92540  Biso   1.000  H
  H47      1.0000 0.72530  0.81580  0.57460  Biso   1.000  H
  H48      1.0000 0.77470  0.18420  0.07460  Biso   1.000  H
  C73      1.0000 0.59260  0.65048  0.62130  Biso   1.000  C
  C74      1.0000 0.90740  0.34952  0.12130  Biso   1.000  C
  C75      1.0000 0.40740  0.15048  0.37870  Biso   1.000  C
  C76      1.0000 0.09260  0.84952  0.87870  Biso   1.000  C
  C77      1.0000 0.40740  0.34952  0.37870  Biso   1.000  C
  C78      1.0000 0.09260  0.65048  0.87870  Biso   1.000  C
  C79      1.0000 0.59260  0.84952  0.62130  Biso   1.000  C
  C80      1.0000 0.90740  0.15048  0.12130  Biso   1.000  C
  H49      1.0000 0.54590  0.67050  0.56610  Biso   1.000  H
  H50      1.0000 0.95410  0.32950  0.06610  Biso   1.000  H
  H51      1.0000 0.45410  0.17050  0.43390  Biso   1.000  H
  H52      1.0000 0.04590  0.82950  0.93390  Biso   1.000  H
  H53      1.0000 0.45410  0.32950  0.43390  Biso   1.000  H
  H54      1.0000 0.04590  0.67050  0.93390  Biso   1.000  H
  H55      1.0000 0.54590  0.82950  0.56610  Biso   1.000  H
  H56      1.0000 0.95410  0.17050  0.06610  Biso   1.000  H
  H57      1.0000 0.55760  0.64040  0.71640  Biso   1.000  H
  H58      1.0000 0.94240  0.35960  0.21640  Biso   1.000  H
  H59      1.0000 0.44240  0.14040  0.28360  Biso   1.000  H
  H60      1.0000 0.05760  0.85960  0.78360  Biso   1.000  H
  H61      1.0000 0.44240  0.35960  0.28360  Biso   1.000  H
  H62      1.0000 0.05760  0.64040  0.78360  Biso   1.000  H
  H63      1.0000 0.55760  0.85960  0.71640  Biso   1.000  H
  H64      1.0000 0.94240  0.14040  0.21640  Biso   1.000  H
  Cu1      1.0000 0.86150  0.25000  0.56491  Biso   1.000  Cu
  Cu2      1.0000 0.63850  0.75000  0.06491  Biso   1.000  Cu
  Cu3      1.0000 0.13850  0.75000  0.43509  Biso   1.000  Cu
  Cu4      1.0000 0.36150  0.25000  0.93509  Biso   1.000  Cu
  Cl1      1.0000 0.85089  0.25000  0.82400  Biso   1.000  Cl
  Cl2      1.0000 0.64911  0.75000  0.32400  Biso   1.000  Cl
  Cl3      1.0000 0.14911  0.75000  0.17600  Biso   1.000  Cl
  Cl4      1.0000 0.35089  0.25000  0.67600  Biso   1.000  Cl
  C81      1.0000 0.64500  0.25000  0.39780  Biso   1.000  C
  C82      1.0000 0.85500  0.75000  0.89780  Biso   1.000  C
  C83      1.0000 0.35500  0.75000  0.60220  Biso   1.000  C
  C84      1.0000 0.14500  0.25000  0.10220  Biso   1.000  C
  N1       1.0000 0.72560  0.25000  0.45750  Biso   1.000  N
  N2       1.0000 0.77440  0.75000  0.95750  Biso   1.000  N
  N3       1.0000 0.27440  0.75000  0.54250  Biso   1.000  N
  N4       1.0000 0.22560  0.25000  0.04250  Biso   1.000  N
  C85      1.0000 0.51680  0.25000  0.20630  Biso   1.000  C
  C86      1.0000 0.98320  0.75000  0.70630  Biso   1.000  C
  C87      1.0000 0.48320  0.75000  0.79370  Biso   1.000  C
  C88      1.0000 0.01680  0.25000  0.29370  Biso   1.000  C
  N5       1.0000 0.47400  0.25000  0.09110  Biso   1.000  N
  N6       1.0000 0.02600  0.75000  0.59110  Biso   1.000  N
  N7       1.0000 0.52600  0.75000  0.90890  Biso   1.000  N
  N8       1.0000 0.97400  0.25000  0.40890  Biso   1.000  N
  N9       1.0000 0.55090  0.25000  0.35450  Biso   1.000  N
  N10      1.0000 0.94910  0.75000  0.85450  Biso   1.000  N
  N11      1.0000 0.44910  0.75000  0.64550  Biso   1.000  N
  N12      1.0000 0.05090  0.25000  0.14550  Biso   1.000  N
  C89      1.0000 0.12500  0.34080  0.78500  Biso   1.000  C
  C90      1.0000 0.37500  0.65920  0.28500  Biso   1.000  C
  C91      1.0000 0.87500  0.84080  0.21500  Biso   1.000  C
  C92      1.0000 0.62500  0.15920  0.71500  Biso   1.000  C
  C93      1.0000 0.87500  0.65920  0.21500  Biso   1.000  C
  C94      1.0000 0.62500  0.34080  0.71500  Biso   1.000  C
  C95      1.0000 0.12500  0.15920  0.78500  Biso   1.000  C
  C96      1.0000 0.37500  0.84080  0.28500  Biso   1.000  C
  H65      1.0000 0.17710  0.32240  0.83490  Biso   1.000  H
  H66      1.0000 0.32290  0.67760  0.33490  Biso   1.000  H
  H67      1.0000 0.82290  0.82240  0.16510  Biso   1.000  H
  H68      1.0000 0.67710  0.17760  0.66510  Biso   1.000  H
  H69      1.0000 0.82290  0.67760  0.16510  Biso   1.000  H
  H70      1.0000 0.67710  0.32240  0.66510  Biso   1.000  H
  H71      1.0000 0.17710  0.17760  0.83490  Biso   1.000  H
  H72      1.0000 0.32290  0.82240  0.33490  Biso   1.000  H
  H73      1.0000 0.05890  0.33260  0.83190  Biso   1.000  H
  H74      1.0000 0.44110  0.66740  0.33190  Biso   1.000  H
  H75      1.0000 0.94110  0.83260  0.16810  Biso   1.000  H
  H76      1.0000 0.55890  0.16740  0.66810  Biso   1.000  H
  H77      1.0000 0.94110  0.66740  0.16810  Biso   1.000  H
  H78      1.0000 0.55890  0.33260  0.66810  Biso   1.000  H
  H79      1.0000 0.05890  0.16740  0.83190  Biso   1.000  H
  H80      1.0000 0.44110  0.83260  0.33190  Biso   1.000  H
  C97      1.0000 0.12010  0.32710  0.61400  Biso   1.000  C
  C98      1.0000 0.37990  0.67290  0.11400  Biso   1.000  C
  C99      1.0000 0.87990  0.82710  0.38600  Biso   1.000  C
  C100     1.0000 0.62010  0.17290  0.88600  Biso   1.000  C
  C101     1.0000 0.87990  0.67290  0.38600  Biso   1.000  C
  C102     1.0000 0.62010  0.32710  0.88600  Biso   1.000  C
  C103     1.0000 0.12010  0.17290  0.61400  Biso   1.000  C
  C104     1.0000 0.37990  0.82710  0.11400  Biso   1.000  C
  H81      1.0000 0.12490  0.29480  0.60400  Biso   1.000  H
  H82      1.0000 0.37510  0.70520  0.10400  Biso   1.000  H
  H83      1.0000 0.87510  0.79480  0.39600  Biso   1.000  H
  H84      1.0000 0.62490  0.20520  0.89600  Biso   1.000  H
  H85      1.0000 0.87510  0.70520  0.39600  Biso   1.000  H
  H86      1.0000 0.62490  0.29480  0.89600  Biso   1.000  H
  H87      1.0000 0.12490  0.20520  0.60400  Biso   1.000  H
  H88      1.0000 0.37510  0.79480  0.10400  Biso   1.000  H
  H89      1.0000 0.17590  0.34070  0.55490  Biso   1.000  H
  H90      1.0000 0.32410  0.65930  0.05490  Biso   1.000  H
  H91      1.0000 0.82410  0.84070  0.44510  Biso   1.000  H
  H92      1.0000 0.67590  0.15930  0.94510  Biso   1.000  H
  H93      1.0000 0.82410  0.65930  0.44510  Biso   1.000  H
  H94      1.0000 0.67590  0.34070  0.94510  Biso   1.000  H
  H95      1.0000 0.17590  0.15930  0.55490  Biso   1.000  H
  H96      1.0000 0.32410  0.84070  0.05490  Biso   1.000  H
