data_image0
_cell_length_a       12.8917
_cell_length_b       29.6686
_cell_length_c       8.4335
_cell_angle_alpha    90
_cell_angle_beta     90
_cell_angle_gamma    90

_symmetry_space_group_name_H-M    "P 1"
_symmetry_int_tables_number       1

loop_
  _symmetry_equiv_pos_as_xyz
  'x, y, z'

loop_
  _atom_site_label
  _atom_site_occupancy
  _atom_site_fract_x
  _atom_site_fract_y
  _atom_site_fract_z
  _atom_site_thermal_displace_type
  _atom_site_B_iso_or_equiv
  _atom_site_type_symbol
  C1       1.0000 0.63980  0.98157  0.36000  Biso   1.000  C
  C2       1.0000 0.86020  0.01843  0.86000  Biso   1.000  C
  C3       1.0000 0.13980  0.51843  0.14000  Biso   1.000  C
  C4       1.0000 0.36020  0.48157  0.64000  Biso   1.000  C
  C5       1.0000 0.36020  0.01843  0.64000  Biso   1.000  C
  C6       1.0000 0.13980  0.98157  0.14000  Biso   1.000  C
  C7       1.0000 0.86020  0.48157  0.86000  Biso   1.000  C
  C8       1.0000 0.63980  0.51843  0.36000  Biso   1.000  C
  C9       1.0000 0.57800  0.01874  0.35860  Biso   1.000  C
  C10      1.0000 0.92200  0.98126  0.85860  Biso   1.000  C
  C11      1.0000 0.07800  0.48126  0.14140  Biso   1.000  C
  C12      1.0000 0.42200  0.51874  0.64140  Biso   1.000  C
  C13      1.0000 0.42200  0.98126  0.64140  Biso   1.000  C
  C14      1.0000 0.07800  0.01874  0.14140  Biso   1.000  C
  C15      1.0000 0.92200  0.51874  0.85860  Biso   1.000  C
  C16      1.0000 0.57800  0.48126  0.35860  Biso   1.000  C
  C17      1.0000 0.78090  0.92174  0.40980  Biso   1.000  C
  C18      1.0000 0.71910  0.07826  0.90980  Biso   1.000  C
  C19      1.0000 0.28090  0.57826  0.09020  Biso   1.000  C
  C20      1.0000 0.21910  0.42174  0.59020  Biso   1.000  C
  C21      1.0000 0.21910  0.07826  0.59020  Biso   1.000  C
  C22      1.0000 0.28090  0.92174  0.09020  Biso   1.000  C
  C23      1.0000 0.71910  0.42174  0.90980  Biso   1.000  C
  C24      1.0000 0.78090  0.57826  0.40980  Biso   1.000  C
  C25      1.0000 0.72100  0.90421  0.29400  Biso   1.000  C
  C26      1.0000 0.77900  0.09579  0.79400  Biso   1.000  C
  C27      1.0000 0.22100  0.59579  0.20600  Biso   1.000  C
  C28      1.0000 0.27900  0.40421  0.70600  Biso   1.000  C
  C29      1.0000 0.27900  0.09579  0.70600  Biso   1.000  C
  C30      1.0000 0.22100  0.90421  0.20600  Biso   1.000  C
  C31      1.0000 0.77900  0.40421  0.79400  Biso   1.000  C
  C32      1.0000 0.72100  0.59579  0.29400  Biso   1.000  C
  C33      1.0000 0.50180  0.09842  0.38860  Biso   1.000  C
  C34      1.0000 0.99820  0.90158  0.88860  Biso   1.000  C
  C35      1.0000 0.00180  0.40158  0.11140  Biso   1.000  C
  C36      1.0000 0.49820  0.59842  0.61140  Biso   1.000  C
  C37      1.0000 0.49820  0.90158  0.61140  Biso   1.000  C
  C38      1.0000 0.00180  0.09842  0.11140  Biso   1.000  C
  C39      1.0000 0.99820  0.59842  0.88860  Biso   1.000  C
  C40      1.0000 0.50180  0.40158  0.38860  Biso   1.000  C
  C41      1.0000 0.44420  0.07840  0.27520  Biso   1.000  C
  C42      1.0000 0.05580  0.92160  0.77520  Biso   1.000  C
  C43      1.0000 0.94420  0.42160  0.22480  Biso   1.000  C
  C44      1.0000 0.55580  0.57840  0.72480  Biso   1.000  C
  C45      1.0000 0.55580  0.92160  0.72480  Biso   1.000  C
  C46      1.0000 0.94420  0.07840  0.22480  Biso   1.000  C
  C47      1.0000 0.05580  0.57840  0.77520  Biso   1.000  C
  C48      1.0000 0.44420  0.42160  0.27520  Biso   1.000  C
  C49      1.0000 0.91300  0.84902  0.38000  Biso   1.000  C
  C50      1.0000 0.58700  0.15098  0.88000  Biso   1.000  C
  C51      1.0000 0.41300  0.65098  0.12000  Biso   1.000  C
  C52      1.0000 0.08700  0.34902  0.62000  Biso   1.000  C
  C53      1.0000 0.08700  0.15098  0.62000  Biso   1.000  C
  C54      1.0000 0.41300  0.84902  0.12000  Biso   1.000  C
  C55      1.0000 0.58700  0.34902  0.88000  Biso   1.000  C
  C56      1.0000 0.91300  0.65098  0.38000  Biso   1.000  C
  H1       1.0000 0.95010  0.85880  0.28170  Biso   1.000  H
  H2       1.0000 0.54990  0.14120  0.78170  Biso   1.000  H
  H3       1.0000 0.45010  0.64120  0.21830  Biso   1.000  H
  H4       1.0000 0.04990  0.35880  0.71830  Biso   1.000  H
  H5       1.0000 0.04990  0.14120  0.71830  Biso   1.000  H
  H6       1.0000 0.45010  0.85880  0.21830  Biso   1.000  H
  H7       1.0000 0.54990  0.35880  0.78170  Biso   1.000  H
  H8       1.0000 0.95010  0.64120  0.28170  Biso   1.000  H
  H9       1.0000 0.96030  0.82830  0.43910  Biso   1.000  H
  H10      1.0000 0.53970  0.17170  0.93910  Biso   1.000  H
  H11      1.0000 0.46030  0.67170  0.06090  Biso   1.000  H
  H12      1.0000 0.03970  0.32830  0.56090  Biso   1.000  H
  H13      1.0000 0.03970  0.17170  0.56090  Biso   1.000  H
  H14      1.0000 0.46030  0.82830  0.06090  Biso   1.000  H
  H15      1.0000 0.53970  0.32830  0.93910  Biso   1.000  H
  H16      1.0000 0.96030  0.67170  0.43910  Biso   1.000  H
  C57      1.0000 0.81760  0.82308  0.33200  Biso   1.000  C
  C58      1.0000 0.68240  0.17692  0.83200  Biso   1.000  C
  C59      1.0000 0.31760  0.67692  0.16800  Biso   1.000  C
  C60      1.0000 0.18240  0.32308  0.66800  Biso   1.000  C
  C61      1.0000 0.18240  0.17692  0.66800  Biso   1.000  C
  C62      1.0000 0.31760  0.82308  0.16800  Biso   1.000  C
  C63      1.0000 0.68240  0.32308  0.83200  Biso   1.000  C
  C64      1.0000 0.81760  0.67692  0.33200  Biso   1.000  C
  H17      1.0000 0.77680  0.81560  0.42940  Biso   1.000  H
  H18      1.0000 0.72320  0.18440  0.92940  Biso   1.000  H
  H19      1.0000 0.27680  0.68440  0.07060  Biso   1.000  H
  H20      1.0000 0.22320  0.31560  0.57060  Biso   1.000  H
  H21      1.0000 0.22320  0.18440  0.57060  Biso   1.000  H
  H22      1.0000 0.27680  0.81560  0.07060  Biso   1.000  H
  H23      1.0000 0.72320  0.31560  0.92940  Biso   1.000  H
  H24      1.0000 0.77680  0.68440  0.42940  Biso   1.000  H
  H25      1.0000 0.83960  0.79400  0.28230  Biso   1.000  H
  H26      1.0000 0.66040  0.20600  0.78230  Biso   1.000  H
  H27      1.0000 0.33960  0.70600  0.21770  Biso   1.000  H
  H28      1.0000 0.16040  0.29400  0.71770  Biso   1.000  H
  H29      1.0000 0.16040  0.20600  0.71770  Biso   1.000  H
  H30      1.0000 0.33960  0.79400  0.21770  Biso   1.000  H
  H31      1.0000 0.66040  0.29400  0.78230  Biso   1.000  H
  H32      1.0000 0.83960  0.70600  0.28230  Biso   1.000  H
  C65      1.0000 0.41650  0.17958  0.30040  Biso   1.000  C
  C66      1.0000 0.08350  0.82042  0.80040  Biso   1.000  C
  C67      1.0000 0.91650  0.32042  0.19960  Biso   1.000  C
  C68      1.0000 0.58350  0.67958  0.69960  Biso   1.000  C
  C69      1.0000 0.58350  0.82042  0.69960  Biso   1.000  C
  C70      1.0000 0.91650  0.17958  0.19960  Biso   1.000  C
  C71      1.0000 0.08350  0.67958  0.80040  Biso   1.000  C
  C72      1.0000 0.41650  0.32042  0.30040  Biso   1.000  C
  H33      1.0000 0.39530  0.21040  0.33580  Biso   1.000  H
  H34      1.0000 0.10470  0.78960  0.83580  Biso   1.000  H
  H35      1.0000 0.89530  0.28960  0.16420  Biso   1.000  H
  H36      1.0000 0.60470  0.71040  0.66420  Biso   1.000  H
  H37      1.0000 0.60470  0.78960  0.66420  Biso   1.000  H
  H38      1.0000 0.89530  0.21040  0.16420  Biso   1.000  H
  H39      1.0000 0.10470  0.71040  0.83580  Biso   1.000  H
  H40      1.0000 0.39530  0.28960  0.33580  Biso   1.000  H
  H41      1.0000 0.46030  0.18320  0.20330  Biso   1.000  H
  H42      1.0000 0.03970  0.81680  0.70330  Biso   1.000  H
  H43      1.0000 0.96030  0.31680  0.29670  Biso   1.000  H
  H44      1.0000 0.53970  0.68320  0.79670  Biso   1.000  H
  H45      1.0000 0.53970  0.81680  0.79670  Biso   1.000  H
  H46      1.0000 0.96030  0.18320  0.29670  Biso   1.000  H
  H47      1.0000 0.03970  0.68320  0.70330  Biso   1.000  H
  H48      1.0000 0.46030  0.31680  0.20330  Biso   1.000  H
  C73      1.0000 0.32070  0.15354  0.25690  Biso   1.000  C
  C74      1.0000 0.17930  0.84646  0.75690  Biso   1.000  C
  C75      1.0000 0.82070  0.34646  0.24310  Biso   1.000  C
  C76      1.0000 0.67930  0.65354  0.74310  Biso   1.000  C
  C77      1.0000 0.67930  0.84646  0.74310  Biso   1.000  C
  C78      1.0000 0.82070  0.15354  0.24310  Biso   1.000  C
  C79      1.0000 0.17930  0.65354  0.75690  Biso   1.000  C
  C80      1.0000 0.32070  0.34646  0.25690  Biso   1.000  C
  H49      1.0000 0.27670  0.17270  0.18620  Biso   1.000  H
  H50      1.0000 0.22330  0.82730  0.68620  Biso   1.000  H
  H51      1.0000 0.77670  0.32730  0.31380  Biso   1.000  H
  H52      1.0000 0.72330  0.67270  0.81380  Biso   1.000  H
  H53      1.0000 0.72330  0.82730  0.81380  Biso   1.000  H
  H54      1.0000 0.77670  0.17270  0.31380  Biso   1.000  H
  H55      1.0000 0.22330  0.67270  0.68620  Biso   1.000  H
  H56      1.0000 0.27670  0.32730  0.18620  Biso   1.000  H
  H57      1.0000 0.28010  0.14740  0.35560  Biso   1.000  H
  H58      1.0000 0.21990  0.85260  0.85560  Biso   1.000  H
  H59      1.0000 0.78010  0.35260  0.14440  Biso   1.000  H
  H60      1.0000 0.71990  0.64740  0.64440  Biso   1.000  H
  H61      1.0000 0.71990  0.85260  0.64440  Biso   1.000  H
  H62      1.0000 0.78010  0.14740  0.14440  Biso   1.000  H
  H63      1.0000 0.21990  0.64740  0.85560  Biso   1.000  H
  H64      1.0000 0.28010  0.35260  0.35560  Biso   1.000  H
  S1       1.0000 0.74652  0.97474  0.48434  Biso   1.000  S
  S2       1.0000 0.75348  0.02526  0.98434  Biso   1.000  S
  S3       1.0000 0.24652  0.52526  0.01566  Biso   1.000  S
  S4       1.0000 0.25348  0.47474  0.51566  Biso   1.000  S
  S5       1.0000 0.25348  0.02526  0.51566  Biso   1.000  S
  S6       1.0000 0.24652  0.97474  0.01566  Biso   1.000  S
  S7       1.0000 0.75348  0.47474  0.98434  Biso   1.000  S
  S8       1.0000 0.74652  0.52526  0.48434  Biso   1.000  S
  S9       1.0000 0.61543  0.93674  0.23250  Biso   1.000  S
  S10      1.0000 0.88457  0.06326  0.73250  Biso   1.000  S
  S11      1.0000 0.11543  0.56326  0.26750  Biso   1.000  S
  S12      1.0000 0.38457  0.43674  0.76750  Biso   1.000  S
  S13      1.0000 0.38457  0.06326  0.76750  Biso   1.000  S
  S14      1.0000 0.11543  0.93674  0.26750  Biso   1.000  S
  S15      1.0000 0.88457  0.43674  0.73250  Biso   1.000  S
  S16      1.0000 0.61543  0.56326  0.23250  Biso   1.000  S
  S17      1.0000 0.59788  0.06563  0.47864  Biso   1.000  S
  S18      1.0000 0.90212  0.93437  0.97864  Biso   1.000  S
  S19      1.0000 0.09788  0.43437  0.02136  Biso   1.000  S
  S20      1.0000 0.40212  0.56563  0.52136  Biso   1.000  S
  S21      1.0000 0.40212  0.93437  0.52136  Biso   1.000  S
  S22      1.0000 0.09788  0.06563  0.02136  Biso   1.000  S
  S23      1.0000 0.90212  0.56563  0.97864  Biso   1.000  S
  S24      1.0000 0.59788  0.43437  0.47864  Biso   1.000  S
  S25      1.0000 0.47166  0.02207  0.23201  Biso   1.000  S
  S26      1.0000 0.02834  0.97793  0.73201  Biso   1.000  S
  S27      1.0000 0.97166  0.47793  0.26799  Biso   1.000  S
  S28      1.0000 0.52834  0.52207  0.76799  Biso   1.000  S
  S29      1.0000 0.52834  0.97793  0.76799  Biso   1.000  S
  S30      1.0000 0.97166  0.02207  0.26799  Biso   1.000  S
  S31      1.0000 0.02834  0.52207  0.73201  Biso   1.000  S
  S32      1.0000 0.47166  0.47793  0.23201  Biso   1.000  S
  S33      1.0000 0.88923  0.89793  0.50111  Biso   1.000  S
  S34      1.0000 0.61077  0.10207  0.00111  Biso   1.000  S
  S35      1.0000 0.38923  0.60207  0.99889  Biso   1.000  S
  S36      1.0000 0.11077  0.39793  0.49889  Biso   1.000  S
  S37      1.0000 0.11077  0.10207  0.49889  Biso   1.000  S
  S38      1.0000 0.38923  0.89793  0.99889  Biso   1.000  S
  S39      1.0000 0.61077  0.39793  0.00111  Biso   1.000  S
  S40      1.0000 0.88923  0.60207  0.50111  Biso   1.000  S
  S41      1.0000 0.73452  0.85283  0.19488  Biso   1.000  S
  S42      1.0000 0.76548  0.14717  0.69488  Biso   1.000  S
  S43      1.0000 0.23452  0.64717  0.30512  Biso   1.000  S
  S44      1.0000 0.26548  0.35283  0.80512  Biso   1.000  S
  S45      1.0000 0.26548  0.14717  0.80512  Biso   1.000  S
  S46      1.0000 0.23452  0.85283  0.30512  Biso   1.000  S
  S47      1.0000 0.76548  0.35283  0.69488  Biso   1.000  S
  S48      1.0000 0.73452  0.64717  0.19488  Biso   1.000  S
  S49      1.0000 0.49561  0.15391  0.45623  Biso   1.000  S
  S50      1.0000 0.00439  0.84609  0.95623  Biso   1.000  S
  S51      1.0000 0.99561  0.34609  0.04377  Biso   1.000  S
  S52      1.0000 0.50439  0.65391  0.54377  Biso   1.000  S
  S53      1.0000 0.50439  0.84609  0.54377  Biso   1.000  S
  S54      1.0000 0.99561  0.15391  0.04377  Biso   1.000  S
  S55      1.0000 0.00439  0.65391  0.95623  Biso   1.000  S
  S56      1.0000 0.49561  0.34609  0.45623  Biso   1.000  S
  S57      1.0000 0.34543  0.10119  0.15908  Biso   1.000  S
  S58      1.0000 0.15457  0.89881  0.65908  Biso   1.000  S
  S59      1.0000 0.84543  0.39881  0.34092  Biso   1.000  S
  S60      1.0000 0.65457  0.60119  0.84092  Biso   1.000  S
  S61      1.0000 0.65457  0.89881  0.84092  Biso   1.000  S
  S62      1.0000 0.84543  0.10119  0.34092  Biso   1.000  S
  S63      1.0000 0.15457  0.60119  0.65908  Biso   1.000  S
  S64      1.0000 0.34543  0.39881  0.15908  Biso   1.000  S
  C81      1.0000 0.84780  0.25000  0.59830  Biso   1.000  C
  C82      1.0000 0.65220  0.75000  0.09830  Biso   1.000  C
  C83      1.0000 0.34780  0.25000  0.90170  Biso   1.000  C
  C84      1.0000 0.15220  0.75000  0.40170  Biso   1.000  C
  C85      1.0000 0.97550  0.25000  0.78840  Biso   1.000  C
  C86      1.0000 0.52450  0.75000  0.28840  Biso   1.000  C
  C87      1.0000 0.47550  0.25000  0.71160  Biso   1.000  C
  C88      1.0000 0.02450  0.75000  0.21160  Biso   1.000  C
  N1       1.0000 0.76660  0.25000  0.54040  Biso   1.000  N
  N2       1.0000 0.73340  0.75000  0.04040  Biso   1.000  N
  N3       1.0000 0.26660  0.25000  0.95960  Biso   1.000  N
  N4       1.0000 0.23340  0.75000  0.45960  Biso   1.000  N
  N5       1.0000 0.94360  0.25000  0.64280  Biso   1.000  N
  N6       1.0000 0.55640  0.75000  0.14280  Biso   1.000  N
  N7       1.0000 0.44360  0.25000  0.85720  Biso   1.000  N
  N8       1.0000 0.05640  0.75000  0.35720  Biso   1.000  N
  N9       1.0000 0.01880  0.25000  0.90860  Biso   1.000  N
  N10      1.0000 0.48120  0.75000  0.40860  Biso   1.000  N
  N11      1.0000 0.51880  0.25000  0.59140  Biso   1.000  N
  N12      1.0000 0.98120  0.75000  0.09140  Biso   1.000  N
  Cu1      1.0000 0.62967  0.25000  0.43487  Biso   1.000  Cu
  Cu2      1.0000 0.87033  0.75000  0.93487  Biso   1.000  Cu
  Cu3      1.0000 0.12967  0.25000  0.06513  Biso   1.000  Cu
  Cu4      1.0000 0.37033  0.75000  0.56513  Biso   1.000  Cu
  Cl1      1.0000 0.64210  0.25000  0.16966  Biso   1.000  Cl
  Cl2      1.0000 0.85790  0.75000  0.66966  Biso   1.000  Cl
  Cl3      1.0000 0.14210  0.25000  0.33034  Biso   1.000  Cl
  Cl4      1.0000 0.35790  0.75000  0.83034  Biso   1.000  Cl
