data_image0
_cell_length_a       3.7824
_cell_length_b       15.056
_cell_length_c       10.8776
_cell_angle_alpha    90
_cell_angle_beta     96.301
_cell_angle_gamma    90

_symmetry_space_group_name_H-M    "P 1"
_symmetry_int_tables_number       1

loop_
  _symmetry_equiv_pos_as_xyz
  'x, y, z'

loop_
  _atom_site_label
  _atom_site_occupancy
  _atom_site_fract_x
  _atom_site_fract_y
  _atom_site_fract_z
  _atom_site_thermal_displace_type
  _atom_site_B_iso_or_equiv
  _atom_site_type_symbol
  Cu1      1.0000 0.23102  0.56255  0.94025  Biso   1.000  Cu
  Cu2      1.0000 0.76898  0.06255  0.55975  Biso   1.000  Cu
  Cu3      1.0000 0.76898  0.43745  0.05975  Biso   1.000  Cu
  Cu4      1.0000 0.23102  0.93745  0.44025  Biso   1.000  Cu
  Cl1      1.0000 0.31160  0.49904  0.15789  Biso   1.000  Cl
  Cl2      1.0000 0.68840  0.99904  0.34211  Biso   1.000  Cl
  Cl3      1.0000 0.68840  0.50096  0.84211  Biso   1.000  Cl
  Cl4      1.0000 0.31160  0.00096  0.65789  Biso   1.000  Cl
  N1       1.0000 0.18700  0.69250  0.96870  Biso   1.000  N
  N2       1.0000 0.81300  0.19250  0.53130  Biso   1.000  N
  N3       1.0000 0.81300  0.30750  0.03130  Biso   1.000  N
  N4       1.0000 0.18700  0.80750  0.46870  Biso   1.000  N
  C1       1.0000 0.12260  0.87610  0.00900  Biso   1.000  C
  C2       1.0000 0.87740  0.37610  0.49100  Biso   1.000  C
  C3       1.0000 0.87740  0.12390  0.99100  Biso   1.000  C
  C4       1.0000 0.12260  0.62390  0.50900  Biso   1.000  C
  C5       1.0000 0.08710  0.97080  0.03660  Biso   1.000  C
  C6       1.0000 0.91290  0.47080  0.46340  Biso   1.000  C
  C7       1.0000 0.91290  0.02920  0.96340  Biso   1.000  C
  C8       1.0000 0.08710  0.52920  0.53660  Biso   1.000  C
  H1       1.0000 0.19670  0.99120  0.11210  Biso   1.000  H
  H2       1.0000 0.80330  0.49120  0.38790  Biso   1.000  H
  H3       1.0000 0.80330  0.00880  0.88790  Biso   1.000  H
  H4       1.0000 0.19670  0.50880  0.61210  Biso   1.000  H
  C9       1.0000 0.30120  0.82060  0.09640  Biso   1.000  C
  C10      1.0000 0.69880  0.32060  0.40360  Biso   1.000  C
  C11      1.0000 0.69880  0.17940  0.90360  Biso   1.000  C
  C12      1.0000 0.30120  0.67940  0.59640  Biso   1.000  C
  H5       1.0000 0.40460  0.84400  0.17080  Biso   1.000  H
  H6       1.0000 0.59540  0.34400  0.32920  Biso   1.000  H
  H7       1.0000 0.59540  0.15600  0.82920  Biso   1.000  H
  H8       1.0000 0.40460  0.65600  0.67080  Biso   1.000  H
  C13      1.0000 0.01630  0.74650  0.88410  Biso   1.000  C
  C14      1.0000 0.98370  0.24650  0.61590  Biso   1.000  C
  C15      1.0000 0.98370  0.25350  0.11590  Biso   1.000  C
  C16      1.0000 0.01630  0.75350  0.38410  Biso   1.000  C
  H9       1.0000 0.91550  0.72130  0.81040  Biso   1.000  H
  H10      1.0000 0.08450  0.22130  0.68960  Biso   1.000  H
  H11      1.0000 0.08450  0.27870  0.18960  Biso   1.000  H
  H12      1.0000 0.91550  0.77870  0.31040  Biso   1.000  H
  C17      1.0000 0.98020  0.83610  0.89860  Biso   1.000  C
  C18      1.0000 0.01980  0.33610  0.60140  Biso   1.000  C
  C19      1.0000 0.01980  0.16390  0.10140  Biso   1.000  C
  C20      1.0000 0.98020  0.66390  0.39860  Biso   1.000  C
  H13      1.0000 0.86180  0.87010  0.83560  Biso   1.000  H
  H14      1.0000 0.13820  0.37010  0.66440  Biso   1.000  H
  H15      1.0000 0.13820  0.12990  0.16440  Biso   1.000  H
  H16      1.0000 0.86180  0.62990  0.33560  Biso   1.000  H
  C21      1.0000 0.32680  0.73120  0.07400  Biso   1.000  C
  C22      1.0000 0.67320  0.23120  0.42600  Biso   1.000  C
  C23      1.0000 0.67320  0.26880  0.92600  Biso   1.000  C
  C24      1.0000 0.32680  0.76880  0.57400  Biso   1.000  C
  H17      1.0000 0.44700  0.69580  0.13490  Biso   1.000  H
  H18      1.0000 0.55300  0.19580  0.36510  Biso   1.000  H
  H19      1.0000 0.55300  0.30420  0.86510  Biso   1.000  H
  H20      1.0000 0.44700  0.80420  0.63490  Biso   1.000  H
