data_image0
_cell_length_a       3.8076
_cell_length_b       15.128
_cell_length_c       10.9488
_cell_angle_alpha    90
_cell_angle_beta     96.353
_cell_angle_gamma    90

_symmetry_space_group_name_H-M    "P 1"
_symmetry_int_tables_number       1

loop_
  _symmetry_equiv_pos_as_xyz
  'x, y, z'

loop_
  _atom_site_label
  _atom_site_occupancy
  _atom_site_fract_x
  _atom_site_fract_y
  _atom_site_fract_z
  _atom_site_thermal_displace_type
  _atom_site_B_iso_or_equiv
  _atom_site_type_symbol
  Cu1      1.0000 0.23108  0.43739  0.94019  Biso   1.000  Cu
  Cu2      1.0000 0.76892  0.93739  0.55981  Biso   1.000  Cu
  Cu3      1.0000 0.76892  0.56261  0.05981  Biso   1.000  Cu
  Cu4      1.0000 0.23108  0.06261  0.44019  Biso   1.000  Cu
  Cl1      1.0000 0.31190  0.50094  0.15788  Biso   1.000  Cl
  Cl2      1.0000 0.68810  0.00094  0.34212  Biso   1.000  Cl
  Cl3      1.0000 0.68810  0.49906  0.84212  Biso   1.000  Cl
  Cl4      1.0000 0.31190  0.99906  0.65788  Biso   1.000  Cl
  N1       1.0000 0.18600  0.30731  0.96940  Biso   1.000  N
  N2       1.0000 0.81400  0.80731  0.53060  Biso   1.000  N
  N3       1.0000 0.81400  0.69269  0.03060  Biso   1.000  N
  N4       1.0000 0.18600  0.19269  0.46940  Biso   1.000  N
  C1       1.0000 0.01590  0.25350  0.88360  Biso   1.000  C
  C2       1.0000 0.98410  0.75350  0.61640  Biso   1.000  C
  C3       1.0000 0.98410  0.74650  0.11640  Biso   1.000  C
  C4       1.0000 0.01590  0.24650  0.38360  Biso   1.000  C
  H1       1.0000 0.91760  0.27860  0.81000  Biso   1.000  H
  H2       1.0000 0.08240  0.77860  0.69000  Biso   1.000  H
  H3       1.0000 0.08240  0.72140  0.19000  Biso   1.000  H
  H4       1.0000 0.91760  0.22140  0.31000  Biso   1.000  H
  C5       1.0000 0.98000  0.16370  0.89890  Biso   1.000  C
  C6       1.0000 0.02000  0.66370  0.60110  Biso   1.000  C
  C7       1.0000 0.02000  0.83630  0.10110  Biso   1.000  C
  C8       1.0000 0.98000  0.33630  0.39890  Biso   1.000  C
  H5       1.0000 0.86220  0.12970  0.83660  Biso   1.000  H
  H6       1.0000 0.13780  0.62970  0.66340  Biso   1.000  H
  H7       1.0000 0.13780  0.87030  0.16340  Biso   1.000  H
  H8       1.0000 0.86220  0.37030  0.33660  Biso   1.000  H
  C9       1.0000 0.12250  0.12390  0.00920  Biso   1.000  C
  C10      1.0000 0.87750  0.62390  0.49080  Biso   1.000  C
  C11      1.0000 0.87750  0.87610  0.99080  Biso   1.000  C
  C12      1.0000 0.12250  0.37610  0.50920  Biso   1.000  C
  C13      1.0000 0.30080  0.17920  0.09670  Biso   1.000  C
  C14      1.0000 0.69920  0.67920  0.40330  Biso   1.000  C
  C15      1.0000 0.69920  0.82080  0.90330  Biso   1.000  C
  C16      1.0000 0.30080  0.32080  0.59670  Biso   1.000  C
  H9       1.0000 0.40240  0.15590  0.17100  Biso   1.000  H
  H10      1.0000 0.59760  0.65590  0.32900  Biso   1.000  H
  H11      1.0000 0.59760  0.84410  0.82900  Biso   1.000  H
  H12      1.0000 0.40240  0.34410  0.67100  Biso   1.000  H
  C17      1.0000 0.32750  0.26890  0.07360  Biso   1.000  C
  C18      1.0000 0.67250  0.76890  0.42640  Biso   1.000  C
  C19      1.0000 0.67250  0.73110  0.92640  Biso   1.000  C
  C20      1.0000 0.32750  0.23110  0.57360  Biso   1.000  C
  H13      1.0000 0.44980  0.30430  0.13350  Biso   1.000  H
  H14      1.0000 0.55020  0.80430  0.36650  Biso   1.000  H
  H15      1.0000 0.55020  0.69570  0.86650  Biso   1.000  H
  H16      1.0000 0.44980  0.19570  0.63350  Biso   1.000  H
  C21      1.0000 0.08810  0.02930  0.03670  Biso   1.000  C
  C22      1.0000 0.91190  0.52930  0.46330  Biso   1.000  C
  C23      1.0000 0.91190  0.97070  0.96330  Biso   1.000  C
  C24      1.0000 0.08810  0.47070  0.53670  Biso   1.000  C
  H17      1.0000 0.19850  0.00890  0.11140  Biso   1.000  H
  H18      1.0000 0.80150  0.50890  0.38860  Biso   1.000  H
  H19      1.0000 0.80150  0.99110  0.88860  Biso   1.000  H
  H20      1.0000 0.19850  0.49110  0.61140  Biso   1.000  H
