data_image0
_cell_length_a       3.7965
_cell_length_b       15.078
_cell_length_c       10.972
_cell_angle_alpha    90
_cell_angle_beta     97.082
_cell_angle_gamma    90

_symmetry_space_group_name_H-M    "P 1"
_symmetry_int_tables_number       1

loop_
  _symmetry_equiv_pos_as_xyz
  'x, y, z'

loop_
  _atom_site_label
  _atom_site_occupancy
  _atom_site_fract_x
  _atom_site_fract_y
  _atom_site_fract_z
  _atom_site_thermal_displace_type
  _atom_site_B_iso_or_equiv
  _atom_site_type_symbol
  Cu1      1.0000 0.27220  0.43705  0.55941  Biso   1.000  Cu
  Cu2      1.0000 0.72780  0.93705  0.94059  Biso   1.000  Cu
  Cu3      1.0000 0.72780  0.56295  0.44059  Biso   1.000  Cu
  Cu4      1.0000 0.27220  0.06295  0.05941  Biso   1.000  Cu
  Cl1      1.0000 0.18070  0.50141  0.34369  Biso   1.000  Cl
  Cl2      1.0000 0.81930  0.00141  0.15631  Biso   1.000  Cl
  Cl3      1.0000 0.81930  0.49859  0.65631  Biso   1.000  Cl
  Cl4      1.0000 0.18070  0.99859  0.84369  Biso   1.000  Cl
  N1       1.0000 0.31550  0.30680  0.53090  Biso   1.000  N
  N2       1.0000 0.68450  0.80680  0.96910  Biso   1.000  N
  N3       1.0000 0.68450  0.69320  0.46910  Biso   1.000  N
  N4       1.0000 0.31550  0.19320  0.03090  Biso   1.000  N
  C1       1.0000 0.48630  0.25310  0.61470  Biso   1.000  C
  C2       1.0000 0.51370  0.75310  0.88530  Biso   1.000  C
  C3       1.0000 0.51370  0.74690  0.38530  Biso   1.000  C
  C4       1.0000 0.48630  0.24690  0.11470  Biso   1.000  C
  H1       1.0000 0.58570  0.27790  0.68870  Biso   1.000  H
  H2       1.0000 0.41430  0.77790  0.81130  Biso   1.000  H
  H3       1.0000 0.41430  0.72210  0.31130  Biso   1.000  H
  H4       1.0000 0.58570  0.22210  0.18870  Biso   1.000  H
  C5       1.0000 0.52460  0.16370  0.59880  Biso   1.000  C
  C6       1.0000 0.47540  0.66370  0.90120  Biso   1.000  C
  C7       1.0000 0.47540  0.83630  0.40120  Biso   1.000  C
  C8       1.0000 0.52460  0.33630  0.09880  Biso   1.000  C
  H5       1.0000 0.64390  0.12940  0.66120  Biso   1.000  H
  H6       1.0000 0.35610  0.62940  0.83880  Biso   1.000  H
  H7       1.0000 0.35610  0.87060  0.33880  Biso   1.000  H
  H8       1.0000 0.64390  0.37060  0.16120  Biso   1.000  H
  C9       1.0000 0.38400  0.12460  0.48870  Biso   1.000  C
  C10      1.0000 0.61600  0.62460  0.01130  Biso   1.000  C
  C11      1.0000 0.61600  0.87540  0.51130  Biso   1.000  C
  C12      1.0000 0.38400  0.37540  0.98870  Biso   1.000  C
  C13      1.0000 0.20720  0.18000  0.40200  Biso   1.000  C
  C14      1.0000 0.79280  0.68000  0.09800  Biso   1.000  C
  C15      1.0000 0.79280  0.82000  0.59800  Biso   1.000  C
  C16      1.0000 0.20720  0.32000  0.90200  Biso   1.000  C
  H9       1.0000 0.10500  0.15690  0.32730  Biso   1.000  H
  H10      1.0000 0.89500  0.65690  0.17270  Biso   1.000  H
  H11      1.0000 0.89500  0.84310  0.67270  Biso   1.000  H
  H12      1.0000 0.10500  0.34310  0.82730  Biso   1.000  H
  C17      1.0000 0.18050  0.26910  0.42490  Biso   1.000  C
  C18      1.0000 0.81950  0.76910  0.07510  Biso   1.000  C
  C19      1.0000 0.81950  0.73090  0.57510  Biso   1.000  C
  C20      1.0000 0.18050  0.23090  0.92490  Biso   1.000  C
  H13      1.0000 0.06320  0.30490  0.36390  Biso   1.000  H
  H14      1.0000 0.93680  0.80490  0.13610  Biso   1.000  H
  H15      1.0000 0.93680  0.69510  0.63610  Biso   1.000  H
  H16      1.0000 0.06320  0.19510  0.86390  Biso   1.000  H
  C21      1.0000 0.41970  0.02990  0.46020  Biso   1.000  C
  C22      1.0000 0.58030  0.52990  0.03980  Biso   1.000  C
  C23      1.0000 0.58030  0.97010  0.53980  Biso   1.000  C
  C24      1.0000 0.41970  0.47010  0.96020  Biso   1.000  C
  H17      1.0000 0.32580  0.01010  0.38270  Biso   1.000  H
  H18      1.0000 0.67420  0.51010  0.11730  Biso   1.000  H
  H19      1.0000 0.67420  0.98990  0.61730  Biso   1.000  H
  H20      1.0000 0.32580  0.48990  0.88270  Biso   1.000  H
