data_image0
_cell_length_a       3.7875
_cell_length_b       15.059
_cell_length_c       10.875
_cell_angle_alpha    90
_cell_angle_beta     96.262
_cell_angle_gamma    90

_symmetry_space_group_name_H-M    "P 1"
_symmetry_int_tables_number       1

loop_
  _symmetry_equiv_pos_as_xyz
  'x, y, z'

loop_
  _atom_site_label
  _atom_site_occupancy
  _atom_site_fract_x
  _atom_site_fract_y
  _atom_site_fract_z
  _atom_site_thermal_displace_type
  _atom_site_B_iso_or_equiv
  _atom_site_type_symbol
  Cu1      1.0000 0.26866  0.43740  0.55972  Biso   1.000  Cu
  Cu2      1.0000 0.73134  0.93740  0.94028  Biso   1.000  Cu
  Cu3      1.0000 0.73134  0.56260  0.44028  Biso   1.000  Cu
  Cu4      1.0000 0.26866  0.06260  0.05972  Biso   1.000  Cu
  Cl1      1.0000 0.18820  0.50097  0.34202  Biso   1.000  Cl
  Cl2      1.0000 0.81180  0.00097  0.15798  Biso   1.000  Cl
  Cl3      1.0000 0.81180  0.49903  0.65798  Biso   1.000  Cl
  Cl4      1.0000 0.18820  0.99903  0.84202  Biso   1.000  Cl
  C1       1.0000 0.37630  0.12364  0.49090  Biso   1.000  C
  C2       1.0000 0.62370  0.62364  0.00910  Biso   1.000  C
  C3       1.0000 0.62370  0.87636  0.50910  Biso   1.000  C
  C4       1.0000 0.37630  0.37636  0.99090  Biso   1.000  C
  C5       1.0000 0.48250  0.25330  0.61590  Biso   1.000  C
  C6       1.0000 0.51750  0.75330  0.88410  Biso   1.000  C
  C7       1.0000 0.51750  0.74670  0.38410  Biso   1.000  C
  C8       1.0000 0.48250  0.24670  0.11590  Biso   1.000  C
  H1       1.0000 0.58210  0.27830  0.68980  Biso   1.000  H
  H2       1.0000 0.41790  0.77830  0.81020  Biso   1.000  H
  H3       1.0000 0.41790  0.72170  0.31020  Biso   1.000  H
  H4       1.0000 0.58210  0.22170  0.18980  Biso   1.000  H
  C9       1.0000 0.41270  0.02999  0.46420  Biso   1.000  C
  C10      1.0000 0.58730  0.52999  0.03580  Biso   1.000  C
  C11      1.0000 0.58730  0.97001  0.53580  Biso   1.000  C
  C12      1.0000 0.41270  0.47001  0.96420  Biso   1.000  C
  H5       1.0000 0.30150  0.01000  0.38880  Biso   1.000  H
  H6       1.0000 0.69850  0.51000  0.11120  Biso   1.000  H
  H7       1.0000 0.69850  0.99000  0.61120  Biso   1.000  H
  H8       1.0000 0.30150  0.49000  0.88880  Biso   1.000  H
  C13      1.0000 0.19880  0.17953  0.40350  Biso   1.000  C
  C14      1.0000 0.80120  0.67953  0.09650  Biso   1.000  C
  C15      1.0000 0.80120  0.82047  0.59650  Biso   1.000  C
  C16      1.0000 0.19880  0.32047  0.90350  Biso   1.000  C
  H9       1.0000 0.09610  0.15620  0.32890  Biso   1.000  H
  H10      1.0000 0.90390  0.65620  0.17110  Biso   1.000  H
  H11      1.0000 0.90390  0.84380  0.67110  Biso   1.000  H
  H12      1.0000 0.09610  0.34380  0.82890  Biso   1.000  H
  C17      1.0000 0.17330  0.26850  0.42600  Biso   1.000  C
  C18      1.0000 0.82670  0.76850  0.07400  Biso   1.000  C
  C19      1.0000 0.82670  0.73150  0.57400  Biso   1.000  C
  C20      1.0000 0.17330  0.23150  0.92600  Biso   1.000  C
  H13      1.0000 0.05300  0.30390  0.36510  Biso   1.000  H
  H14      1.0000 0.94700  0.80390  0.13490  Biso   1.000  H
  H15      1.0000 0.94700  0.69610  0.63490  Biso   1.000  H
  H16      1.0000 0.05300  0.19610  0.86510  Biso   1.000  H
  C21      1.0000 0.51950  0.16355  0.60080  Biso   1.000  C
  C22      1.0000 0.48050  0.66355  0.89920  Biso   1.000  C
  C23      1.0000 0.48050  0.83645  0.39920  Biso   1.000  C
  C24      1.0000 0.51950  0.33645  0.10080  Biso   1.000  C
  H17      1.0000 0.63920  0.12950  0.66350  Biso   1.000  H
  H18      1.0000 0.36080  0.62950  0.83650  Biso   1.000  H
  H19      1.0000 0.36080  0.87050  0.33650  Biso   1.000  H
  H20      1.0000 0.63920  0.37050  0.16350  Biso   1.000  H
  N1       1.0000 0.31230  0.30749  0.53110  Biso   1.000  N
  N2       1.0000 0.68770  0.80749  0.96890  Biso   1.000  N
  N3       1.0000 0.68770  0.69251  0.46890  Biso   1.000  N
  N4       1.0000 0.31230  0.19251  0.03110  Biso   1.000  N
