data_image0
_cell_length_a       3.7354
_cell_length_b       12.099
_cell_length_c       13.129
_cell_angle_alpha    90
_cell_angle_beta     91.33
_cell_angle_gamma    90

_symmetry_space_group_name_H-M    "P 1"
_symmetry_int_tables_number       1

loop_
  _symmetry_equiv_pos_as_xyz
  'x, y, z'

loop_
  _atom_site_label
  _atom_site_occupancy
  _atom_site_fract_x
  _atom_site_fract_y
  _atom_site_fract_z
  _atom_site_thermal_displace_type
  _atom_site_B_iso_or_equiv
  _atom_site_type_symbol
  C1       1.0000 0.73650  0.13250  0.05980  Biso   1.000  C
  C2       1.0000 0.26350  0.13250  0.44020  Biso   1.000  C
  C3       1.0000 0.26350  0.86750  0.94020  Biso   1.000  C
  C4       1.0000 0.73650  0.86750  0.55980  Biso   1.000  C
  H1       1.0000 0.76760  0.06440  0.02820  Biso   1.000  H
  H2       1.0000 0.23240  0.06440  0.47180  Biso   1.000  H
  H3       1.0000 0.23240  0.93560  0.97180  Biso   1.000  H
  H4       1.0000 0.76760  0.93560  0.52820  Biso   1.000  H
  C5       1.0000 0.82490  0.22650  0.00660  Biso   1.000  C
  C6       1.0000 0.17510  0.22650  0.49340  Biso   1.000  C
  C7       1.0000 0.17510  0.77350  0.99340  Biso   1.000  C
  C8       1.0000 0.82490  0.77350  0.50660  Biso   1.000  C
  H5       1.0000 0.91420  0.22120  0.94120  Biso   1.000  H
  H6       1.0000 0.08580  0.22120  0.55880  Biso   1.000  H
  H7       1.0000 0.08580  0.77880  0.05880  Biso   1.000  H
  H8       1.0000 0.91420  0.77880  0.44120  Biso   1.000  H
  C9       1.0000 0.77950  0.32800  0.05120  Biso   1.000  C
  C10      1.0000 0.22050  0.32800  0.44880  Biso   1.000  C
  C11      1.0000 0.22050  0.67200  0.94880  Biso   1.000  C
  C12      1.0000 0.77950  0.67200  0.55120  Biso   1.000  C
  H9       1.0000 0.83720  0.39240  0.01660  Biso   1.000  H
  H10      1.0000 0.16280  0.39240  0.48340  Biso   1.000  H
  H11      1.0000 0.16280  0.60760  0.98340  Biso   1.000  H
  H12      1.0000 0.83720  0.60760  0.51660  Biso   1.000  H
  C13      1.0000 0.56660  0.23320  0.19810  Biso   1.000  C
  C14      1.0000 0.43340  0.23320  0.30190  Biso   1.000  C
  C15      1.0000 0.43340  0.76680  0.80190  Biso   1.000  C
  C16      1.0000 0.56660  0.76680  0.69810  Biso   1.000  C
  C17      1.0000 0.64450  0.33270  0.14970  Biso   1.000  C
  C18      1.0000 0.35550  0.33270  0.35030  Biso   1.000  C
  C19      1.0000 0.35550  0.66730  0.85030  Biso   1.000  C
  C20      1.0000 0.64450  0.66730  0.64970  Biso   1.000  C
  C21      1.0000 0.57370  0.43670  0.20150  Biso   1.000  C
  C22      1.0000 0.42630  0.43670  0.29850  Biso   1.000  C
  C23      1.0000 0.42630  0.56330  0.79850  Biso   1.000  C
  C24      1.0000 0.57370  0.56330  0.70150  Biso   1.000  C
  C25      1.0000 0.57580  0.62300  0.20220  Biso   1.000  C
  C26      1.0000 0.42420  0.62300  0.29780  Biso   1.000  C
  C27      1.0000 0.42420  0.37700  0.79780  Biso   1.000  C
  C28      1.0000 0.57580  0.37700  0.70220  Biso   1.000  C
  H13      1.0000 0.62510  0.69050  0.17170  Biso   1.000  H
  H14      1.0000 0.37490  0.69050  0.32830  Biso   1.000  H
  H15      1.0000 0.37490  0.30950  0.82830  Biso   1.000  H
  H16      1.0000 0.62510  0.30950  0.67170  Biso   1.000  H
  Cl1      1.0000 0.00000  0.88922  0.25000  Biso   1.000  Cl
  Cl2      1.0000 0.00000  0.11078  0.75000  Biso   1.000  Cl
  Cu1      1.0000 0.50000  0.00034  0.25000  Biso   1.000  Cu
  Cu2      1.0000 0.50000  0.99966  0.75000  Biso   1.000  Cu
  N1       1.0000 0.60940  0.13338  0.15357  Biso   1.000  N
  N2       1.0000 0.39060  0.13338  0.34643  Biso   1.000  N
  N3       1.0000 0.39060  0.86662  0.84643  Biso   1.000  N
  N4       1.0000 0.60940  0.86662  0.65357  Biso   1.000  N
  N5       1.0000 0.65220  0.53210  0.15320  Biso   1.000  N
  N6       1.0000 0.34780  0.53210  0.34680  Biso   1.000  N
  N7       1.0000 0.34780  0.46790  0.84680  Biso   1.000  N
  N8       1.0000 0.65220  0.46790  0.65320  Biso   1.000  N
