data_image0
_cell_length_a       15.428
_cell_length_b       6.1727
_cell_length_c       5.9765
_cell_angle_alpha    90
_cell_angle_beta     90
_cell_angle_gamma    90

_symmetry_space_group_name_H-M    "P 1"
_symmetry_int_tables_number       1

loop_
  _symmetry_equiv_pos_as_xyz
  'x, y, z'

loop_
  _atom_site_label
  _atom_site_occupancy
  _atom_site_fract_x
  _atom_site_fract_y
  _atom_site_fract_z
  _atom_site_thermal_displace_type
  _atom_site_B_iso_or_equiv
  _atom_site_type_symbol
  Cu1      1.0000 0.38171  0.98260  0.00000  Biso   1.000  Cu
  Cu2      1.0000 0.61829  0.01740  0.00000  Biso   1.000  Cu
  Cu3      1.0000 0.88171  0.51740  0.00000  Biso   1.000  Cu
  Cu4      1.0000 0.11829  0.48260  0.00000  Biso   1.000  Cu
  Cu5      1.0000 0.50000  0.50000  0.78337  Biso   1.000  Cu
  Cu6      1.0000 0.00000  0.00000  0.21663  Biso   1.000  Cu
  Cu7      1.0000 0.50000  0.50000  0.21663  Biso   1.000  Cu
  Cu8      1.0000 0.00000  0.00000  0.78337  Biso   1.000  Cu
  N1       1.0000 0.44166  0.73590  0.60990  Biso   1.000  N
  N2       1.0000 0.55834  0.26410  0.60990  Biso   1.000  N
  N3       1.0000 0.94166  0.76410  0.39010  Biso   1.000  N
  N4       1.0000 0.05834  0.23590  0.39010  Biso   1.000  N
  N5       1.0000 0.55834  0.26410  0.39010  Biso   1.000  N
  N6       1.0000 0.44166  0.73590  0.39010  Biso   1.000  N
  N7       1.0000 0.05834  0.23590  0.60990  Biso   1.000  N
  N8       1.0000 0.94166  0.76410  0.60990  Biso   1.000  N
  N9       1.0000 0.39667  0.90890  0.68380  Biso   1.000  N
  N10      1.0000 0.60333  0.09110  0.68380  Biso   1.000  N
  N11      1.0000 0.89667  0.59110  0.31620  Biso   1.000  N
  N12      1.0000 0.10333  0.40890  0.31620  Biso   1.000  N
  N13      1.0000 0.60333  0.09110  0.31620  Biso   1.000  N
  N14      1.0000 0.39667  0.90890  0.31620  Biso   1.000  N
  N15      1.0000 0.10333  0.40890  0.68380  Biso   1.000  N
  N16      1.0000 0.89667  0.59110  0.68380  Biso   1.000  N
  N17      1.0000 0.23190  0.04000  0.00000  Biso   1.000  N
  N18      1.0000 0.76810  0.96000  0.00000  Biso   1.000  N
  N19      1.0000 0.73190  0.46000  0.00000  Biso   1.000  N
  N20      1.0000 0.26810  0.54000  0.00000  Biso   1.000  N
  N21      1.0000 0.16530  0.95360  0.00000  Biso   1.000  N
  N22      1.0000 0.83470  0.04640  0.00000  Biso   1.000  N
  N23      1.0000 0.66530  0.54640  0.00000  Biso   1.000  N
  N24      1.0000 0.33470  0.45360  0.00000  Biso   1.000  N
  N25      1.0000 0.09620  0.86130  0.00000  Biso   1.000  N
  N26      1.0000 0.90380  0.13870  0.00000  Biso   1.000  N
  N27      1.0000 0.59620  0.63870  0.00000  Biso   1.000  N
  N28      1.0000 0.40380  0.36130  0.00000  Biso   1.000  N
  C1       1.0000 0.31510  0.21190  0.50000  Biso   1.000  C
  C2       1.0000 0.68490  0.78810  0.50000  Biso   1.000  C
  C3       1.0000 0.81510  0.28810  0.50000  Biso   1.000  C
  C4       1.0000 0.18490  0.71190  0.50000  Biso   1.000  C
  H1       1.0000 0.29060  0.23280  0.35390  Biso   1.000  H
  H2       1.0000 0.70940  0.76720  0.35390  Biso   1.000  H
  H3       1.0000 0.79060  0.26720  0.64610  Biso   1.000  H
  H4       1.0000 0.20940  0.73280  0.64610  Biso   1.000  H
  H5       1.0000 0.70940  0.76720  0.64610  Biso   1.000  H
  H6       1.0000 0.29060  0.23280  0.64610  Biso   1.000  H
  H7       1.0000 0.20940  0.73280  0.35390  Biso   1.000  H
  H8       1.0000 0.79060  0.26720  0.35390  Biso   1.000  H
  H9       1.0000 0.35010  0.33490  0.53840  Biso   1.000  H
  H10      1.0000 0.64990  0.66510  0.53840  Biso   1.000  H
  H11      1.0000 0.85010  0.16510  0.46160  Biso   1.000  H
  H12      1.0000 0.14990  0.83490  0.46160  Biso   1.000  H
  H13      1.0000 0.64990  0.66510  0.46160  Biso   1.000  H
  H14      1.0000 0.35010  0.33490  0.46160  Biso   1.000  H
  H15      1.0000 0.14990  0.83490  0.53840  Biso   1.000  H
  H16      1.0000 0.85010  0.16510  0.53840  Biso   1.000  H
  H17      1.0000 0.26930  0.19630  0.60760  Biso   1.000  H
  H18      1.0000 0.73070  0.80370  0.60760  Biso   1.000  H
  H19      1.0000 0.76930  0.30370  0.39240  Biso   1.000  H
  H20      1.0000 0.23070  0.69630  0.39240  Biso   1.000  H
  H21      1.0000 0.73070  0.80370  0.39240  Biso   1.000  H
  H22      1.0000 0.26930  0.19630  0.39240  Biso   1.000  H
  H23      1.0000 0.23070  0.69630  0.60760  Biso   1.000  H
  H24      1.0000 0.76930  0.30370  0.60760  Biso   1.000  H
  C5       1.0000 0.36980  0.01260  0.50000  Biso   1.000  C
  C6       1.0000 0.63020  0.98740  0.50000  Biso   1.000  C
  C7       1.0000 0.86980  0.48740  0.50000  Biso   1.000  C
  C8       1.0000 0.13020  0.51260  0.50000  Biso   1.000  C
