data_image0
_cell_length_a       13.05
_cell_length_b       14.647
_cell_length_c       14.025
_cell_angle_alpha    90
_cell_angle_beta     90
_cell_angle_gamma    90

_symmetry_space_group_name_H-M    "P 1"
_symmetry_int_tables_number       1

loop_
  _symmetry_equiv_pos_as_xyz
  'x, y, z'

loop_
  _atom_site_label
  _atom_site_occupancy
  _atom_site_fract_x
  _atom_site_fract_y
  _atom_site_fract_z
  _atom_site_thermal_displace_type
  _atom_site_B_iso_or_equiv
  _atom_site_type_symbol
  Cu1      1.0000 0.50000  0.03747  0.25000  Biso   1.000  Cu
  Cu2      1.0000 0.50000  0.96253  0.75000  Biso   1.000  Cu
  Cu3      1.0000 0.00000  0.53747  0.25000  Biso   1.000  Cu
  Cu4      1.0000 0.00000  0.46253  0.75000  Biso   1.000  Cu
  Cu5      1.0000 0.40615  0.00000  0.50000  Biso   1.000  Cu
  Cu6      1.0000 0.59385  0.00000  0.00000  Biso   1.000  Cu
  Cu7      1.0000 0.90615  0.50000  0.50000  Biso   1.000  Cu
  Cu8      1.0000 0.09385  0.50000  0.00000  Biso   1.000  Cu
  Cu9      1.0000 0.18755  0.72549  0.25076  Biso   1.000  Cu
  Cu10     1.0000 0.81245  0.27451  0.75076  Biso   1.000  Cu
  Cu11     1.0000 0.81245  0.72549  0.24924  Biso   1.000  Cu
  Cu12     1.0000 0.18755  0.27451  0.74924  Biso   1.000  Cu
  Cu13     1.0000 0.68755  0.22549  0.25076  Biso   1.000  Cu
  Cu14     1.0000 0.31245  0.77451  0.75076  Biso   1.000  Cu
  Cu15     1.0000 0.31245  0.22549  0.24924  Biso   1.000  Cu
  Cu16     1.0000 0.68755  0.77451  0.74924  Biso   1.000  Cu
  Cu17     1.0000 0.21754  0.81170  0.50117  Biso   1.000  Cu
  Cu18     1.0000 0.78246  0.18830  0.00117  Biso   1.000  Cu
  Cu19     1.0000 0.78246  0.81170  0.99883  Biso   1.000  Cu
  Cu20     1.0000 0.21754  0.18830  0.49883  Biso   1.000  Cu
  Cu21     1.0000 0.71754  0.31170  0.50117  Biso   1.000  Cu
  Cu22     1.0000 0.28246  0.68830  0.00117  Biso   1.000  Cu
  Cu23     1.0000 0.28246  0.31170  0.99883  Biso   1.000  Cu
  Cu24     1.0000 0.71754  0.68830  0.49883  Biso   1.000  Cu
  Cu25     1.0000 0.96802  0.00000  0.00000  Biso   1.000  Cu
  Cu26     1.0000 0.03198  0.00000  0.50000  Biso   1.000  Cu
  Cu27     1.0000 0.46802  0.50000  0.00000  Biso   1.000  Cu
  Cu28     1.0000 0.53198  0.50000  0.50000  Biso   1.000  Cu
  Cu29     1.0000 0.00000  0.91408  0.25000  Biso   1.000  Cu
  Cu30     1.0000 0.00000  0.08592  0.75000  Biso   1.000  Cu
  Cu31     1.0000 0.50000  0.41408  0.25000  Biso   1.000  Cu
  Cu32     1.0000 0.50000  0.58592  0.75000  Biso   1.000  Cu
  N1       1.0000 0.27970  0.83040  0.30030  Biso   1.000  N
  N2       1.0000 0.72030  0.16960  0.80030  Biso   1.000  N
  N3       1.0000 0.72030  0.83040  0.19970  Biso   1.000  N
  N4       1.0000 0.27970  0.16960  0.69970  Biso   1.000  N
  N5       1.0000 0.77970  0.33040  0.30030  Biso   1.000  N
  N6       1.0000 0.22030  0.66960  0.80030  Biso   1.000  N
  N7       1.0000 0.22030  0.33040  0.19970  Biso   1.000  N
  N8       1.0000 0.77970  0.66960  0.69970  Biso   1.000  N
  N9       1.0000 0.28650  0.86800  0.38540  Biso   1.000  N
  N10      1.0000 0.71350  0.13200  0.88540  Biso   1.000  N
  N11      1.0000 0.71350  0.86800  0.11460  Biso   1.000  N
  N12      1.0000 0.28650  0.13200  0.61460  Biso   1.000  N
  N13      1.0000 0.78650  0.36800  0.38540  Biso   1.000  N
  N14      1.0000 0.21350  0.63200  0.88540  Biso   1.000  N
  N15      1.0000 0.21350  0.36800  0.11460  Biso   1.000  N
  N16      1.0000 0.78650  0.63200  0.61460  Biso   1.000  N
  N17      1.0000 0.34710  0.93770  0.38440  Biso   1.000  N
  N18      1.0000 0.65290  0.06230  0.88440  Biso   1.000  N
  N19      1.0000 0.65290  0.93770  0.11560  Biso   1.000  N
  N20      1.0000 0.34710  0.06230  0.61560  Biso   1.000  N
  N21      1.0000 0.84710  0.43770  0.38440  Biso   1.000  N
  N22      1.0000 0.15290  0.56230  0.88440  Biso   1.000  N
  N23      1.0000 0.15290  0.43770  0.11560  Biso   1.000  N
  N24      1.0000 0.84710  0.56230  0.61560  Biso   1.000  N
  N25      1.0000 0.38890  0.94680  0.29620  Biso   1.000  N
  N26      1.0000 0.61110  0.05320  0.79620  Biso   1.000  N
  N27      1.0000 0.61110  0.94680  0.20380  Biso   1.000  N
  N28      1.0000 0.38890  0.05320  0.70380  Biso   1.000  N
  N29      1.0000 0.88890  0.44680  0.29620  Biso   1.000  N
  N30      1.0000 0.11110  0.55320  0.79620  Biso   1.000  N
  N31      1.0000 0.11110  0.44680  0.20380  Biso   1.000  N
  N32      1.0000 0.88890  0.55320  0.70380  Biso   1.000  N
  N33      1.0000 0.05980  0.89590  0.04410  Biso   1.000  N
  N34      1.0000 0.94020  0.10410  0.54410  Biso   1.000  N
  N35      1.0000 0.94020  0.89590  0.45590  Biso   1.000  N
  N36      1.0000 0.05980  0.10410  0.95590  Biso   1.000  N
  N37      1.0000 0.55980  0.39590  0.04410  Biso   1.000  N
  N38      1.0000 0.44020  0.60410  0.54410  Biso   1.000  N
  N39      1.0000 0.44020  0.39590  0.45590  Biso   1.000  N
  N40      1.0000 0.55980  0.60410  0.95590  Biso   1.000  N
  N41      1.0000 0.06730  0.85950  0.13550  Biso   1.000  N
  N42      1.0000 0.93270  0.14050  0.63550  Biso   1.000  N
  N43      1.0000 0.93270  0.85950  0.36450  Biso   1.000  N
  N44      1.0000 0.06730  0.14050  0.86450  Biso   1.000  N
  N45      1.0000 0.56730  0.35950  0.13550  Biso   1.000  N
  N46      1.0000 0.43270  0.64050  0.63550  Biso   1.000  N
  N47      1.0000 0.43270  0.35950  0.36450  Biso   1.000  N
  N48      1.0000 0.56730  0.64050  0.86450  Biso   1.000  N
  N49      1.0000 0.13080  0.79080  0.13410  Biso   1.000  N
  N50      1.0000 0.86920  0.20920  0.63410  Biso   1.000  N
  N51      1.0000 0.86920  0.79080  0.36590  Biso   1.000  N
  N52      1.0000 0.13080  0.20920  0.86590  Biso   1.000  N
  N53      1.0000 0.63080  0.29080  0.13410  Biso   1.000  N
  N54      1.0000 0.36920  0.70920  0.63410  Biso   1.000  N
  N55      1.0000 0.36920  0.29080  0.36590  Biso   1.000  N
  N56      1.0000 0.63080  0.70920  0.86590  Biso   1.000  N
  N57      1.0000 0.17060  0.77810  0.04650  Biso   1.000  N
  N58      1.0000 0.82940  0.22190  0.54650  Biso   1.000  N
  N59      1.0000 0.82940  0.77810  0.45350  Biso   1.000  N
  N60      1.0000 0.17060  0.22190  0.95350  Biso   1.000  N
  N61      1.0000 0.67060  0.27810  0.04650  Biso   1.000  N
  N62      1.0000 0.32940  0.72190  0.54650  Biso   1.000  N
  N63      1.0000 0.32940  0.27810  0.45350  Biso   1.000  N
  N64      1.0000 0.67060  0.72190  0.95350  Biso   1.000  N
  N65      1.0000 0.39040  0.50920  0.19950  Biso   1.000  N
  N66      1.0000 0.60960  0.49080  0.69950  Biso   1.000  N
  N67      1.0000 0.60960  0.50920  0.30050  Biso   1.000  N
  N68      1.0000 0.39040  0.49080  0.80050  Biso   1.000  N
  N69      1.0000 0.89040  0.00920  0.19950  Biso   1.000  N
  N70      1.0000 0.10960  0.99080  0.69950  Biso   1.000  N
  N71      1.0000 0.10960  0.00920  0.30050  Biso   1.000  N
  N72      1.0000 0.89040  0.99080  0.80050  Biso   1.000  N
  N73      1.0000 0.38720  0.54570  0.11220  Biso   1.000  N
  N74      1.0000 0.61280  0.45430  0.61220  Biso   1.000  N
  N75      1.0000 0.61280  0.54570  0.38780  Biso   1.000  N
  N76      1.0000 0.38720  0.45430  0.88780  Biso   1.000  N
  N77      1.0000 0.88720  0.04570  0.11220  Biso   1.000  N
  N78      1.0000 0.11280  0.95430  0.61220  Biso   1.000  N
  N79      1.0000 0.11280  0.04570  0.38780  Biso   1.000  N
  N80      1.0000 0.88720  0.95430  0.88780  Biso   1.000  N
  N81      1.0000 0.32360  0.61670  0.11440  Biso   1.000  N
  N82      1.0000 0.67640  0.38330  0.61440  Biso   1.000  N
  N83      1.0000 0.67640  0.61670  0.38560  Biso   1.000  N
  N84      1.0000 0.32360  0.38330  0.88560  Biso   1.000  N
  N85      1.0000 0.82360  0.11670  0.11440  Biso   1.000  N
  N86      1.0000 0.17640  0.88330  0.61440  Biso   1.000  N
  N87      1.0000 0.17640  0.11670  0.38560  Biso   1.000  N
  N88      1.0000 0.82360  0.88330  0.88560  Biso   1.000  N
  N89      1.0000 0.28270  0.62220  0.20170  Biso   1.000  N
  N90      1.0000 0.71730  0.37780  0.70170  Biso   1.000  N
  N91      1.0000 0.71730  0.62220  0.29830  Biso   1.000  N
  N92      1.0000 0.28270  0.37780  0.79830  Biso   1.000  N
  N93      1.0000 0.78270  0.12220  0.20170  Biso   1.000  N
  N94      1.0000 0.21730  0.87780  0.70170  Biso   1.000  N
  N95      1.0000 0.21730  0.12220  0.29830  Biso   1.000  N
  N96      1.0000 0.78270  0.87780  0.79830  Biso   1.000  N
  N97      1.0000 0.39080  0.22180  0.04890  Biso   1.000  N
  N98      1.0000 0.60920  0.77820  0.54890  Biso   1.000  N
  N99      1.0000 0.60920  0.22180  0.45110  Biso   1.000  N
  N100     1.0000 0.39080  0.77820  0.95110  Biso   1.000  N
  N101     1.0000 0.89080  0.72180  0.04890  Biso   1.000  N
  N102     1.0000 0.10920  0.27820  0.54890  Biso   1.000  N
  N103     1.0000 0.10920  0.72180  0.45110  Biso   1.000  N
  N104     1.0000 0.89080  0.27820  0.95110  Biso   1.000  N
  N105     1.0000 0.39120  0.18310  0.13680  Biso   1.000  N
  N106     1.0000 0.60880  0.81690  0.63680  Biso   1.000  N
  N107     1.0000 0.60880  0.18310  0.36320  Biso   1.000  N
  N108     1.0000 0.39120  0.81690  0.86320  Biso   1.000  N
  N109     1.0000 0.89120  0.68310  0.13680  Biso   1.000  N
  N110     1.0000 0.10880  0.31690  0.63680  Biso   1.000  N
  N111     1.0000 0.10880  0.68310  0.36320  Biso   1.000  N
  N112     1.0000 0.89120  0.31690  0.86320  Biso   1.000  N
  N113     1.0000 0.45560  0.11260  0.13690  Biso   1.000  N
  N114     1.0000 0.54440  0.88740  0.63690  Biso   1.000  N
  N115     1.0000 0.54440  0.11260  0.36310  Biso   1.000  N
  N116     1.0000 0.45560  0.88740  0.86310  Biso   1.000  N
  N117     1.0000 0.95560  0.61260  0.13690  Biso   1.000  N
  N118     1.0000 0.04440  0.38740  0.63690  Biso   1.000  N
  N119     1.0000 0.04440  0.61260  0.36310  Biso   1.000  N
  N120     1.0000 0.95560  0.38740  0.86310  Biso   1.000  N
  N121     1.0000 0.49760  0.10260  0.04960  Biso   1.000  N
  N122     1.0000 0.50240  0.89740  0.54960  Biso   1.000  N
  N123     1.0000 0.50240  0.10260  0.45040  Biso   1.000  N
  N124     1.0000 0.49760  0.89740  0.95040  Biso   1.000  N
  N125     1.0000 0.99760  0.60260  0.04960  Biso   1.000  N
  N126     1.0000 0.00240  0.39740  0.54960  Biso   1.000  N
  N127     1.0000 0.00240  0.60260  0.45040  Biso   1.000  N
  N128     1.0000 0.99760  0.39740  0.95040  Biso   1.000  N
  C1       1.0000 0.34370  0.88260  0.24140  Biso   1.000  C
  C2       1.0000 0.65630  0.11740  0.74140  Biso   1.000  C
  C3       1.0000 0.65630  0.88260  0.25860  Biso   1.000  C
  C4       1.0000 0.34370  0.11740  0.75860  Biso   1.000  C
  C5       1.0000 0.84370  0.38260  0.24140  Biso   1.000  C
  C6       1.0000 0.15630  0.61740  0.74140  Biso   1.000  C
  C7       1.0000 0.15630  0.38260  0.25860  Biso   1.000  C
  C8       1.0000 0.84370  0.61740  0.75860  Biso   1.000  C
  H1       1.0000 0.35330  0.87440  0.17620  Biso   1.000  H
  H2       1.0000 0.64670  0.12560  0.67620  Biso   1.000  H
  H3       1.0000 0.64670  0.87440  0.32380  Biso   1.000  H
  H4       1.0000 0.35330  0.12560  0.82380  Biso   1.000  H
  H5       1.0000 0.85330  0.37440  0.17620  Biso   1.000  H
  H6       1.0000 0.14670  0.62560  0.67620  Biso   1.000  H
  H7       1.0000 0.14670  0.37440  0.32380  Biso   1.000  H
  H8       1.0000 0.85330  0.62560  0.82380  Biso   1.000  H
  C9       1.0000 0.12280  0.84640  0.99970  Biso   1.000  C
  C10      1.0000 0.87720  0.15360  0.49970  Biso   1.000  C
  C11      1.0000 0.87720  0.84640  0.50030  Biso   1.000  C
  C12      1.0000 0.12280  0.15360  0.00030  Biso   1.000  C
  C13      1.0000 0.62280  0.34640  0.99970  Biso   1.000  C
  C14      1.0000 0.37720  0.65360  0.49970  Biso   1.000  C
  C15      1.0000 0.37720  0.34640  0.50030  Biso   1.000  C
  C16      1.0000 0.62280  0.65360  0.00030  Biso   1.000  C
  H9       1.0000 0.13610  0.85670  0.93540  Biso   1.000  H
  H10      1.0000 0.86390  0.14330  0.43540  Biso   1.000  H
  H11      1.0000 0.86390  0.85670  0.56460  Biso   1.000  H
  H12      1.0000 0.13610  0.14330  0.06460  Biso   1.000  H
  H13      1.0000 0.63610  0.35670  0.93540  Biso   1.000  H
  H14      1.0000 0.36390  0.64330  0.43540  Biso   1.000  H
  H15      1.0000 0.36390  0.35670  0.56460  Biso   1.000  H
  H16      1.0000 0.63610  0.64330  0.06460  Biso   1.000  H
  C17      1.0000 0.32490  0.55610  0.25630  Biso   1.000  C
  C18      1.0000 0.67510  0.44390  0.75630  Biso   1.000  C
  C19      1.0000 0.67510  0.55610  0.24370  Biso   1.000  C
  C20      1.0000 0.32490  0.44390  0.74370  Biso   1.000  C
  C21      1.0000 0.82490  0.05610  0.25630  Biso   1.000  C
  C22      1.0000 0.17510  0.94390  0.75630  Biso   1.000  C
  C23      1.0000 0.17510  0.05610  0.24370  Biso   1.000  C
  C24      1.0000 0.82490  0.94390  0.74370  Biso   1.000  C
  H17      1.0000 0.31170  0.54500  0.32040  Biso   1.000  H
  H18      1.0000 0.68830  0.45500  0.82040  Biso   1.000  H
  H19      1.0000 0.68830  0.54500  0.17960  Biso   1.000  H
  H20      1.0000 0.31170  0.45500  0.67960  Biso   1.000  H
  H21      1.0000 0.81170  0.04500  0.32040  Biso   1.000  H
  H22      1.0000 0.18830  0.95500  0.82040  Biso   1.000  H
  H23      1.0000 0.18830  0.04500  0.17960  Biso   1.000  H
  H24      1.0000 0.81170  0.95500  0.67960  Biso   1.000  H
  C25      1.0000 0.45490  0.16940  0.00240  Biso   1.000  C
  C26      1.0000 0.54510  0.83060  0.50240  Biso   1.000  C
  C27      1.0000 0.54510  0.16940  0.49760  Biso   1.000  C
  C28      1.0000 0.45490  0.83060  0.99760  Biso   1.000  C
  C29      1.0000 0.95490  0.66940  0.00240  Biso   1.000  C
  C30      1.0000 0.04510  0.33060  0.50240  Biso   1.000  C
  C31      1.0000 0.04510  0.66940  0.49760  Biso   1.000  C
  C32      1.0000 0.95490  0.33060  0.99760  Biso   1.000  C
  H25      1.0000 0.46940  0.17930  0.93830  Biso   1.000  H
  H26      1.0000 0.53060  0.82070  0.43830  Biso   1.000  H
  H27      1.0000 0.53060  0.17930  0.56170  Biso   1.000  H
  H28      1.0000 0.46940  0.82070  0.06170  Biso   1.000  H
  H29      1.0000 0.96940  0.67930  0.93830  Biso   1.000  H
  H30      1.0000 0.03060  0.32070  0.43830  Biso   1.000  H
  H31      1.0000 0.03060  0.67930  0.56170  Biso   1.000  H
  H32      1.0000 0.96940  0.32070  0.06170  Biso   1.000  H
