data_image0
_cell_length_a       10.988
_cell_length_b       12.236
_cell_length_c       12.292
_cell_angle_alpha    65.459
_cell_angle_beta     77.598
_cell_angle_gamma    85.232

_symmetry_space_group_name_H-M    "P 1"
_symmetry_int_tables_number       1

loop_
  _symmetry_equiv_pos_as_xyz
  'x, y, z'

loop_
  _atom_site_label
  _atom_site_occupancy
  _atom_site_fract_x
  _atom_site_fract_y
  _atom_site_fract_z
  _atom_site_thermal_displace_type
  _atom_site_B_iso_or_equiv
  _atom_site_type_symbol
  Cu1      1.0000 0.49346  0.63598  0.63310  Biso   1.000  Cu
  Cu2      1.0000 0.50654  0.36402  0.36690  Biso   1.000  Cu
  Cu3      1.0000 0.72737  0.74576  0.68504  Biso   1.000  Cu
  Cu4      1.0000 0.27263  0.25424  0.31496  Biso   1.000  Cu
  I1       1.0000 0.48058  0.76303  0.76243  Biso   1.000  I
  I2       1.0000 0.51942  0.23697  0.23757  Biso   1.000  I
  I3       1.0000 0.74296  0.61779  0.55487  Biso   1.000  I
  I4       1.0000 0.25704  0.38221  0.44513  Biso   1.000  I
  N1       1.0000 0.43390  0.46490  0.74450  Biso   1.000  N
  N2       1.0000 0.56610  0.53510  0.25550  Biso   1.000  N
  C1       1.0000 0.45420  0.40790  0.85880  Biso   1.000  C
  C2       1.0000 0.54580  0.59210  0.14120  Biso   1.000  C
  H1       1.0000 0.49070  0.45190  0.89180  Biso   1.000  H
  H2       1.0000 0.50930  0.54810  0.10820  Biso   1.000  H
  C3       1.0000 0.42440  0.28830  0.93070  Biso   1.000  C
  C4       1.0000 0.57560  0.71170  0.06930  Biso   1.000  C
  H3       1.0000 0.44090  0.25120  0.01090  Biso   1.000  H
  H4       1.0000 0.55910  0.74880  0.98910  Biso   1.000  H
  C5       1.0000 0.37030  0.22320  0.88420  Biso   1.000  C
  C6       1.0000 0.62970  0.77680  0.11580  Biso   1.000  C
  C7       1.0000 0.34800  0.28200  0.76700  Biso   1.000  C
  C8       1.0000 0.65200  0.71800  0.23300  Biso   1.000  C
  H5       1.0000 0.31030  0.24080  0.73200  Biso   1.000  H
  H6       1.0000 0.68970  0.75920  0.26800  Biso   1.000  H
  C9       1.0000 0.38110  0.40060  0.70240  Biso   1.000  C
  C10      1.0000 0.61890  0.59940  0.29760  Biso   1.000  C
  H7       1.0000 0.36530  0.43960  0.62200  Biso   1.000  H
  H8       1.0000 0.63470  0.56040  0.37800  Biso   1.000  H
  C11      1.0000 0.33840  0.09440  0.95470  Biso   1.000  C
  C12      1.0000 0.66160  0.90560  0.04530  Biso   1.000  C
  N3       1.0000 0.36450  0.04080  0.06690  Biso   1.000  N
  N4       1.0000 0.63550  0.95920  0.93310  Biso   1.000  N
  C13      1.0000 0.33680  0.92370  0.12490  Biso   1.000  C
  C14      1.0000 0.66320  0.07630  0.87510  Biso   1.000  C
  N5       1.0000 0.28750  0.85990  0.07960  Biso   1.000  N
  N6       1.0000 0.71250  0.14010  0.92040  Biso   1.000  N
  C15      1.0000 0.26480  0.92320  0.96750  Biso   1.000  C
  C16      1.0000 0.73520  0.07680  0.03250  Biso   1.000  C
  H9       1.0000 0.22820  0.88120  0.93260  Biso   1.000  H
  H10      1.0000 0.77180  0.11880  0.06740  Biso   1.000  H
  N7       1.0000 0.28890  0.03980  0.90030  Biso   1.000  N
  N8       1.0000 0.71110  0.96020  0.09970  Biso   1.000  N
  C17      1.0000 0.36560  0.85950  0.24830  Biso   1.000  C
  C18      1.0000 0.63440  0.14050  0.75170  Biso   1.000  C
  C19      1.0000 0.42590  0.91500  0.29920  Biso   1.000  C
  C20      1.0000 0.57410  0.08500  0.70080  Biso   1.000  C
  H11      1.0000 0.44810  0.99760  0.25610  Biso   1.000  H
  H12      1.0000 0.55190  0.00240  0.74390  Biso   1.000  H
  C21      1.0000 0.45400  0.85030  0.41290  Biso   1.000  C
  C22      1.0000 0.54600  0.14970  0.58710  Biso   1.000  C
  H13      1.0000 0.49570  0.89010  0.44650  Biso   1.000  H
  H14      1.0000 0.50430  0.10990  0.55350  Biso   1.000  H
  N9       1.0000 0.42500  0.73380  0.47800  Biso   1.000  N
  N10      1.0000 0.57500  0.26620  0.52200  Biso   1.000  N
  C23      1.0000 0.36420  0.68090  0.42950  Biso   1.000  C
  C24      1.0000 0.63580  0.31910  0.57050  Biso   1.000  C
  H15      1.0000 0.34140  0.59870  0.47560  Biso   1.000  H
  H16      1.0000 0.65860  0.40130  0.52440  Biso   1.000  H
  C25      1.0000 0.33250  0.73910  0.31540  Biso   1.000  C
  C26      1.0000 0.66750  0.26090  0.68460  Biso   1.000  C
  H17      1.0000 0.28950  0.69780  0.28420  Biso   1.000  H
  H18      1.0000 0.71050  0.30220  0.71580  Biso   1.000  H
  N11      1.0000 0.79520  0.64800  0.83870  Biso   1.000  N
  N12      1.0000 0.20480  0.35200  0.16130  Biso   1.000  N
  C27      1.0000 0.76880  0.53080  0.90260  Biso   1.000  C
  C28      1.0000 0.23120  0.46920  0.09740  Biso   1.000  C
  H19      1.0000 0.72870  0.49120  0.86770  Biso   1.000  H
  H20      1.0000 0.27130  0.50880  0.13230  Biso   1.000  H
  C29      1.0000 0.79670  0.46400  0.01640  Biso   1.000  C
  C30      1.0000 0.20330  0.53600  0.98360  Biso   1.000  C
  H21      1.0000 0.77590  0.38090  0.05800  Biso   1.000  H
  H22      1.0000 0.22410  0.61910  0.94200  Biso   1.000  H
  C31      1.0000 0.85490  0.51960  0.06870  Biso   1.000  C
  C32      1.0000 0.14510  0.48040  0.93130  Biso   1.000  C
  C33      1.0000 0.88510  0.63990  0.00270  Biso   1.000  C
  C34      1.0000 0.11490  0.36010  0.99730  Biso   1.000  C
  H23      1.0000 0.92670  0.68100  0.03510  Biso   1.000  H
  H24      1.0000 0.07330  0.31900  0.96490  Biso   1.000  H
  C35      1.0000 0.85460  0.69950  0.89040  Biso   1.000  C
  C36      1.0000 0.14540  0.30050  0.10960  Biso   1.000  C
  H25      1.0000 0.87670  0.78210  0.84640  Biso   1.000  H
  H26      1.0000 0.12330  0.21790  0.15360  Biso   1.000  H
  C37      1.0000 0.88390  0.45560  0.19150  Biso   1.000  C
  C38      1.0000 0.11610  0.54440  0.80850  Biso   1.000  C
  N13      1.0000 0.86130  0.33730  0.24740  Biso   1.000  N
  N14      1.0000 0.13870  0.66270  0.75260  Biso   1.000  N
  C39      1.0000 0.88440  0.28510  0.36030  Biso   1.000  C
  C40      1.0000 0.11560  0.71490  0.63970  Biso   1.000  C
  N15      1.0000 0.92850  0.34190  0.41670  Biso   1.000  N
  N16      1.0000 0.07150  0.65810  0.58330  Biso   1.000  N
  C41      1.0000 0.95120  0.45790  0.35060  Biso   1.000  C
  C42      1.0000 0.04880  0.54210  0.64940  Biso   1.000  C
  H27      1.0000 0.98660  0.50020  0.38600  Biso   1.000  H
  H28      1.0000 0.01340  0.49980  0.61400  Biso   1.000  H
  N17      1.0000 0.92880  0.52070  0.23860  Biso   1.000  N
  N18      1.0000 0.07120  0.47930  0.76140  Biso   1.000  N
  C43      1.0000 0.85770  0.15510  0.43010  Biso   1.000  C
  C44      1.0000 0.14230  0.84490  0.56990  Biso   1.000  C
  C45      1.0000 0.80530  0.08740  0.38520  Biso   1.000  C
  C46      1.0000 0.19470  0.91260  0.61480  Biso   1.000  C
  H29      1.0000 0.78930  0.12290  0.30480  Biso   1.000  H
  H30      1.0000 0.21070  0.87710  0.69520  Biso   1.000  H
  C47      1.0000 0.77690  0.96890  0.45780  Biso   1.000  C
  C48      1.0000 0.22310  0.03110  0.54220  Biso   1.000  C
  H31      1.0000 0.74260  0.92330  0.42500  Biso   1.000  H
  H32      1.0000 0.25740  0.07670  0.57500  Biso   1.000  H
  N19      1.0000 0.79480  0.91400  0.57250  Biso   1.000  N
  N20      1.0000 0.20520  0.08600  0.42750  Biso   1.000  N
  C49      1.0000 0.84880  0.97940  0.61370  Biso   1.000  C
  C50      1.0000 0.15120  0.02060  0.38630  Biso   1.000  C
  H33      1.0000 0.86560  0.94140  0.69370  Biso   1.000  H
  H34      1.0000 0.13440  0.05860  0.30630  Biso   1.000  H
  C51      1.0000 0.88120  0.09810  0.54690  Biso   1.000  C
  C52      1.0000 0.11880  0.90190  0.45310  Biso   1.000  C
  H35      1.0000 0.91930  0.14050  0.58040  Biso   1.000  H
  H36      1.0000 0.08070  0.85950  0.41960  Biso   1.000  H
  N21      1.0000 0.97630  0.96240  0.86630  Biso   1.000  N
  N22      1.0000 0.02370  0.03760  0.13370  Biso   1.000  N
  C53      1.0000 0.99770  0.06020  0.82820  Biso   1.000  C
  C54      1.0000 0.00230  0.93980  0.17180  Biso   1.000  C
  C55      1.0000 0.02330  0.18940  0.78000  Biso   1.000  C
  C56      1.0000 0.97670  0.81060  0.22000  Biso   1.000  C
  H37      1.0000 0.94440  0.23300  0.78120  Biso   1.000  H
  H38      1.0000 0.05560  0.76700  0.21880  Biso   1.000  H
  H39      1.0000 0.07070  0.21700  0.69600  Biso   1.000  H
  H40      1.0000 0.92930  0.78300  0.30400  Biso   1.000  H
  H41      1.0000 0.07190  0.20440  0.83070  Biso   1.000  H
  H42      1.0000 0.92810  0.79560  0.16930  Biso   1.000  H
