data_image0
_cell_length_a       13.624
_cell_length_b       16.235
_cell_length_c       30.292
_cell_angle_alpha    90
_cell_angle_beta     100.617
_cell_angle_gamma    90

_symmetry_space_group_name_H-M    "P 1"
_symmetry_int_tables_number       1

loop_
  _symmetry_equiv_pos_as_xyz
  'x, y, z'

loop_
  _atom_site_label
  _atom_site_occupancy
  _atom_site_fract_x
  _atom_site_fract_y
  _atom_site_fract_z
  _atom_site_thermal_displace_type
  _atom_site_B_iso_or_equiv
  _atom_site_type_symbol
  Cu1      1.0000 0.79549  0.25653  0.85753  Biso   1.000  Cu
  Cu2      1.0000 0.20451  0.25653  0.64247  Biso   1.000  Cu
  Cu3      1.0000 0.20451  0.74347  0.14247  Biso   1.000  Cu
  Cu4      1.0000 0.79549  0.74347  0.35753  Biso   1.000  Cu
  Cu5      1.0000 0.75299  0.26985  0.75650  Biso   1.000  Cu
  Cu6      1.0000 0.24701  0.26985  0.74350  Biso   1.000  Cu
  Cu7      1.0000 0.24701  0.73015  0.24350  Biso   1.000  Cu
  Cu8      1.0000 0.75299  0.73015  0.25650  Biso   1.000  Cu
  Cu9      1.0000 0.21837  0.86504  0.66951  Biso   1.000  Cu
  Cu10     1.0000 0.78163  0.86504  0.83049  Biso   1.000  Cu
  Cu11     1.0000 0.78163  0.13496  0.33049  Biso   1.000  Cu
  Cu12     1.0000 0.21837  0.13496  0.16951  Biso   1.000  Cu
  Cu13     1.0000 0.22144  0.68286  0.68180  Biso   1.000  Cu
  Cu14     1.0000 0.77856  0.68286  0.81820  Biso   1.000  Cu
  Cu15     1.0000 0.77856  0.31714  0.31820  Biso   1.000  Cu
  Cu16     1.0000 0.22144  0.31714  0.18180  Biso   1.000  Cu
  Cu17     1.0000 0.33412  0.86614  0.95543  Biso   1.000  Cu
  Cu18     1.0000 0.66588  0.86614  0.54457  Biso   1.000  Cu
  Cu19     1.0000 0.66588  0.13386  0.04457  Biso   1.000  Cu
  Cu20     1.0000 0.33412  0.13386  0.45543  Biso   1.000  Cu
  Cu21     1.0000 0.33028  0.65016  0.94966  Biso   1.000  Cu
  Cu22     1.0000 0.66972  0.65016  0.55034  Biso   1.000  Cu
  Cu23     1.0000 0.66972  0.34984  0.05034  Biso   1.000  Cu
  Cu24     1.0000 0.33028  0.34984  0.44966  Biso   1.000  Cu
  I1       1.0000 0.61350  0.26616  0.80848  Biso   1.000  I
  I2       1.0000 0.38650  0.26616  0.69152  Biso   1.000  I
  I3       1.0000 0.38650  0.73384  0.19152  Biso   1.000  I
  I4       1.0000 0.61350  0.73384  0.30848  Biso   1.000  I
  I5       1.0000 0.93509  0.26827  0.80824  Biso   1.000  I
  I6       1.0000 0.06491  0.26827  0.69176  Biso   1.000  I
  I7       1.0000 0.06491  0.73173  0.19176  Biso   1.000  I
  I8       1.0000 0.93509  0.73173  0.30824  Biso   1.000  I
  I9       1.0000 0.18853  0.76252  0.60077  Biso   1.000  I
  I10      1.0000 0.81147  0.76252  0.89923  Biso   1.000  I
  I11      1.0000 0.81147  0.23748  0.39923  Biso   1.000  I
  I12      1.0000 0.18853  0.23748  0.10077  Biso   1.000  I
  I13      1.0000 0.24898  0.79128  0.74846  Biso   1.000  I
  I14      1.0000 0.75102  0.79128  0.75154  Biso   1.000  I
  I15      1.0000 0.75102  0.20872  0.25154  Biso   1.000  I
  I16      1.0000 0.24898  0.20872  0.24846  Biso   1.000  I
  I17      1.0000 0.36410  0.75175  0.02023  Biso   1.000  I
  I18      1.0000 0.63590  0.75175  0.47977  Biso   1.000  I
  I19      1.0000 0.63590  0.24825  0.97977  Biso   1.000  I
  I20      1.0000 0.36410  0.24825  0.52023  Biso   1.000  I
  I21      1.0000 0.29956  0.76350  0.88368  Biso   1.000  I
  I22      1.0000 0.70044  0.76350  0.61632  Biso   1.000  I
  I23      1.0000 0.70044  0.23650  0.11632  Biso   1.000  I
  I24      1.0000 0.29956  0.23650  0.38368  Biso   1.000  I
  N1       1.0000 0.35510  0.62200  0.68640  Biso   1.000  N
  N2       1.0000 0.64490  0.62200  0.81360  Biso   1.000  N
  N3       1.0000 0.64490  0.37800  0.31360  Biso   1.000  N
  N4       1.0000 0.35510  0.37800  0.18640  Biso   1.000  N
  N5       1.0000 0.74130  0.38490  0.72810  Biso   1.000  N
  N6       1.0000 0.25870  0.38490  0.77190  Biso   1.000  N
  N7       1.0000 0.25870  0.61510  0.27190  Biso   1.000  N
  N8       1.0000 0.74130  0.61510  0.22810  Biso   1.000  N
  N9       1.0000 0.09230  0.62420  0.68540  Biso   1.000  N
  N10      1.0000 0.90770  0.62420  0.81460  Biso   1.000  N
  N11      1.0000 0.90770  0.37580  0.31460  Biso   1.000  N
  N12      1.0000 0.09230  0.37580  0.18540  Biso   1.000  N
  N13      1.0000 0.34930  0.92550  0.66930  Biso   1.000  N
  N14      1.0000 0.65070  0.92550  0.83070  Biso   1.000  N
  N15      1.0000 0.65070  0.07450  0.33070  Biso   1.000  N
  N16      1.0000 0.34930  0.07450  0.16930  Biso   1.000  N
  N17      1.0000 0.73890  0.15990  0.72180  Biso   1.000  N
  N18      1.0000 0.26110  0.15990  0.77820  Biso   1.000  N
  N19      1.0000 0.26110  0.84010  0.27820  Biso   1.000  N
  N20      1.0000 0.73890  0.84010  0.22180  Biso   1.000  N
  N21      1.0000 0.08650  0.92550  0.66900  Biso   1.000  N
  N22      1.0000 0.91350  0.92550  0.83100  Biso   1.000  N
  N23      1.0000 0.91350  0.07450  0.33100  Biso   1.000  N
  N24      1.0000 0.08650  0.07450  0.16900  Biso   1.000  N
  N25      1.0000 0.46250  0.92620  0.95260  Biso   1.000  N
  N26      1.0000 0.53750  0.92620  0.54740  Biso   1.000  N
  N27      1.0000 0.53750  0.07380  0.04740  Biso   1.000  N
  N28      1.0000 0.46250  0.07380  0.45260  Biso   1.000  N
  N29      1.0000 0.81210  0.14820  0.89240  Biso   1.000  N
  N30      1.0000 0.18790  0.14820  0.60760  Biso   1.000  N
  N31      1.0000 0.18790  0.85180  0.10760  Biso   1.000  N
  N32      1.0000 0.81210  0.85180  0.39240  Biso   1.000  N
  N33      1.0000 0.20490  0.92780  0.95600  Biso   1.000  N
  N34      1.0000 0.79510  0.92780  0.54400  Biso   1.000  N
  N35      1.0000 0.79510  0.07220  0.04400  Biso   1.000  N
  N36      1.0000 0.20490  0.07220  0.45600  Biso   1.000  N
  N37      1.0000 0.45770  0.59080  0.94340  Biso   1.000  N
  N38      1.0000 0.54230  0.59080  0.55660  Biso   1.000  N
  N39      1.0000 0.54230  0.40920  0.05660  Biso   1.000  N
  N40      1.0000 0.45770  0.40920  0.44340  Biso   1.000  N
  N41      1.0000 0.80970  0.36000  0.89570  Biso   1.000  N
  N42      1.0000 0.19030  0.36000  0.60430  Biso   1.000  N
  N43      1.0000 0.19030  0.64000  0.10430  Biso   1.000  N
  N44      1.0000 0.80970  0.64000  0.39570  Biso   1.000  N
  N45      1.0000 0.20060  0.59090  0.94670  Biso   1.000  N
  N46      1.0000 0.79940  0.59090  0.55330  Biso   1.000  N
  N47      1.0000 0.79940  0.40910  0.05330  Biso   1.000  N
  N48      1.0000 0.20060  0.40910  0.44670  Biso   1.000  N
  C1       1.0000 0.35890  0.54000  0.68190  Biso   1.000  C
  C2       1.0000 0.64110  0.54000  0.81810  Biso   1.000  C
  C3       1.0000 0.64110  0.46000  0.31810  Biso   1.000  C
  C4       1.0000 0.35890  0.46000  0.18190  Biso   1.000  C
  H1       1.0000 0.29910  0.50870  0.67520  Biso   1.000  H
  H2       1.0000 0.70090  0.50870  0.82480  Biso   1.000  H
  H3       1.0000 0.70090  0.49130  0.32480  Biso   1.000  H
  H4       1.0000 0.29910  0.49130  0.17520  Biso   1.000  H
  C5       1.0000 0.45360  0.50010  0.68730  Biso   1.000  C
  C6       1.0000 0.54640  0.50010  0.81270  Biso   1.000  C
  C7       1.0000 0.54640  0.49990  0.31270  Biso   1.000  C
  C8       1.0000 0.45360  0.49990  0.18730  Biso   1.000  C
  H5       1.0000 0.45740  0.44170  0.68620  Biso   1.000  H
  H6       1.0000 0.54260  0.44170  0.81380  Biso   1.000  H
  H7       1.0000 0.54260  0.55830  0.31380  Biso   1.000  H
  H8       1.0000 0.45740  0.55830  0.18620  Biso   1.000  H
  C9       1.0000 0.54130  0.54760  0.69420  Biso   1.000  C
  C10      1.0000 0.45870  0.54760  0.80580  Biso   1.000  C
  C11      1.0000 0.45870  0.45240  0.30580  Biso   1.000  C
  C12      1.0000 0.54130  0.45240  0.19420  Biso   1.000  C
  C13      1.0000 0.53270  0.62990  0.69430  Biso   1.000  C
  C14      1.0000 0.46730  0.62990  0.80570  Biso   1.000  C
  C15      1.0000 0.46730  0.37010  0.30570  Biso   1.000  C
  C16      1.0000 0.53270  0.37010  0.19430  Biso   1.000  C
  H9       1.0000 0.59010  0.66370  0.69570  Biso   1.000  H
  H10      1.0000 0.40990  0.66370  0.80430  Biso   1.000  H
  H11      1.0000 0.40990  0.33630  0.30430  Biso   1.000  H
  H12      1.0000 0.59010  0.33630  0.19570  Biso   1.000  H
  C17      1.0000 0.43910  0.66520  0.69220  Biso   1.000  C
  C18      1.0000 0.56090  0.66520  0.80780  Biso   1.000  C
  C19      1.0000 0.56090  0.33480  0.30780  Biso   1.000  C
  C20      1.0000 0.43910  0.33480  0.19220  Biso   1.000  C
  H13      1.0000 0.43500  0.72330  0.69510  Biso   1.000  H
  H14      1.0000 0.56500  0.72330  0.80490  Biso   1.000  H
  H15      1.0000 0.56500  0.27670  0.30490  Biso   1.000  H
  H16      1.0000 0.43500  0.27670  0.19510  Biso   1.000  H
  C21      1.0000 0.82160  0.42730  0.71870  Biso   1.000  C
  C22      1.0000 0.17840  0.42730  0.78130  Biso   1.000  C
  C23      1.0000 0.17840  0.57270  0.28130  Biso   1.000  C
  C24      1.0000 0.82160  0.57270  0.21870  Biso   1.000  C
  H17      1.0000 0.88490  0.40100  0.72570  Biso   1.000  H
  H18      1.0000 0.11510  0.40100  0.77430  Biso   1.000  H
  H19      1.0000 0.11510  0.59900  0.27430  Biso   1.000  H
  H20      1.0000 0.88490  0.59900  0.22570  Biso   1.000  H
  C25      1.0000 0.81890  0.50470  0.69990  Biso   1.000  C
  C26      1.0000 0.18110  0.50470  0.80010  Biso   1.000  C
  C27      1.0000 0.18110  0.49530  0.30010  Biso   1.000  C
  C28      1.0000 0.81890  0.49530  0.19990  Biso   1.000  C
  C29      1.0000 0.72610  0.54760  0.69140  Biso   1.000  C
  C30      1.0000 0.27390  0.54760  0.80860  Biso   1.000  C
  C31      1.0000 0.27390  0.45240  0.30860  Biso   1.000  C
  C32      1.0000 0.72610  0.45240  0.19140  Biso   1.000  C
  H21      1.0000 0.72210  0.60260  0.68050  Biso   1.000  H
  H22      1.0000 0.27790  0.60260  0.81950  Biso   1.000  H
  H23      1.0000 0.27790  0.39740  0.31950  Biso   1.000  H
  H24      1.0000 0.72210  0.39740  0.18050  Biso   1.000  H
  C33      1.0000 0.64020  0.50620  0.69970  Biso   1.000  C
  C34      1.0000 0.35980  0.50620  0.80030  Biso   1.000  C
  C35      1.0000 0.35980  0.49380  0.30030  Biso   1.000  C
  C36      1.0000 0.64020  0.49380  0.19970  Biso   1.000  C
  C37      1.0000 0.65280  0.42760  0.71940  Biso   1.000  C
  C38      1.0000 0.34720  0.42760  0.78060  Biso   1.000  C
  C39      1.0000 0.34720  0.57240  0.28060  Biso   1.000  C
  C40      1.0000 0.65280  0.57240  0.21940  Biso   1.000  C
  H25      1.0000 0.59570  0.40200  0.72730  Biso   1.000  H
  H26      1.0000 0.40430  0.40200  0.77270  Biso   1.000  H
  H27      1.0000 0.40430  0.59800  0.27270  Biso   1.000  H
  H28      1.0000 0.59570  0.59800  0.22730  Biso   1.000  H
  C41      1.0000 0.01330  0.66940  0.69280  Biso   1.000  C
  C42      1.0000 0.98670  0.66940  0.80720  Biso   1.000  C
  C43      1.0000 0.98670  0.33060  0.30720  Biso   1.000  C
  C44      1.0000 0.01330  0.33060  0.19280  Biso   1.000  C
  H29      1.0000 0.01840  0.72750  0.69600  Biso   1.000  H
  H30      1.0000 0.98160  0.72750  0.80400  Biso   1.000  H
  H31      1.0000 0.98160  0.27250  0.30400  Biso   1.000  H
  H32      1.0000 0.01840  0.27250  0.19600  Biso   1.000  H
  C45      1.0000 0.92190  0.62780  0.69580  Biso   1.000  C
  C46      1.0000 0.07810  0.62780  0.80420  Biso   1.000  C
  C47      1.0000 0.07810  0.37220  0.30420  Biso   1.000  C
  C48      1.0000 0.92190  0.37220  0.19580  Biso   1.000  C
  H33      1.0000 0.86560  0.65950  0.69990  Biso   1.000  H
  H34      1.0000 0.13440  0.65950  0.80010  Biso   1.000  H
  H35      1.0000 0.13440  0.34050  0.30010  Biso   1.000  H
  H36      1.0000 0.86560  0.34050  0.19990  Biso   1.000  H
  C49      1.0000 0.91340  0.54800  0.69320  Biso   1.000  C
  C50      1.0000 0.08660  0.54800  0.80680  Biso   1.000  C
  C51      1.0000 0.08660  0.45200  0.30680  Biso   1.000  C
  C52      1.0000 0.91340  0.45200  0.19320  Biso   1.000  C
  C53      1.0000 0.99210  0.50150  0.68530  Biso   1.000  C
  C54      1.0000 0.00790  0.50150  0.81470  Biso   1.000  C
  C55      1.0000 0.00790  0.49850  0.31470  Biso   1.000  C
  C56      1.0000 0.99210  0.49850  0.18530  Biso   1.000  C
  H37      1.0000 0.98640  0.44340  0.68240  Biso   1.000  H
  H38      1.0000 0.01360  0.44340  0.81760  Biso   1.000  H
  H39      1.0000 0.01360  0.55660  0.31760  Biso   1.000  H
  H40      1.0000 0.98640  0.55660  0.18240  Biso   1.000  H
  C57      1.0000 0.08110  0.54130  0.68160  Biso   1.000  C
  C58      1.0000 0.91890  0.54130  0.81840  Biso   1.000  C
  C59      1.0000 0.91890  0.45870  0.31840  Biso   1.000  C
  C60      1.0000 0.08110  0.45870  0.18160  Biso   1.000  C
  H41      1.0000 0.13580  0.50900  0.67620  Biso   1.000  H
  H42      1.0000 0.86420  0.50900  0.82380  Biso   1.000  H
  H43      1.0000 0.86420  0.49100  0.32380  Biso   1.000  H
  H44      1.0000 0.13580  0.49100  0.17620  Biso   1.000  H
  C61      1.0000 0.43080  0.88710  0.65960  Biso   1.000  C
  C62      1.0000 0.56920  0.88710  0.84040  Biso   1.000  C
  C63      1.0000 0.56920  0.11290  0.34040  Biso   1.000  C
  C64      1.0000 0.43080  0.11290  0.15960  Biso   1.000  C
  H45      1.0000 0.42300  0.83340  0.64700  Biso   1.000  H
  H46      1.0000 0.57700  0.83340  0.85300  Biso   1.000  H
  H47      1.0000 0.57700  0.16660  0.35300  Biso   1.000  H
  H48      1.0000 0.42300  0.16660  0.14700  Biso   1.000  H
  C65      1.0000 0.52500  0.92220  0.66710  Biso   1.000  C
  C66      1.0000 0.47500  0.92220  0.83290  Biso   1.000  C
  C67      1.0000 0.47500  0.07780  0.33290  Biso   1.000  C
  C68      1.0000 0.52500  0.07780  0.16710  Biso   1.000  C
  H49      1.0000 0.57950  0.89300  0.65910  Biso   1.000  H
  H50      1.0000 0.42050  0.89300  0.84090  Biso   1.000  H
  H51      1.0000 0.42050  0.10700  0.34090  Biso   1.000  H
  H52      1.0000 0.57950  0.10700  0.15910  Biso   1.000  H
  C69      1.0000 0.54010  0.00000  0.68630  Biso   1.000  C
  C70      1.0000 0.45990  0.00000  0.81370  Biso   1.000  C
  C71      1.0000 0.45990  0.00000  0.31370  Biso   1.000  C
  C72      1.0000 0.54010  0.00000  0.18630  Biso   1.000  C
  C73      1.0000 0.45600  0.03930  0.69480  Biso   1.000  C
  C74      1.0000 0.54400  0.03930  0.80520  Biso   1.000  C
  C75      1.0000 0.54400  0.96070  0.30520  Biso   1.000  C
  C76      1.0000 0.45600  0.96070  0.19480  Biso   1.000  C
  H53      1.0000 0.46140  0.09340  0.70690  Biso   1.000  H
  H54      1.0000 0.53860  0.09340  0.79310  Biso   1.000  H
  H55      1.0000 0.53860  0.90660  0.29310  Biso   1.000  H
  H56      1.0000 0.46140  0.90660  0.20690  Biso   1.000  H
  C77      1.0000 0.36450  0.00150  0.68590  Biso   1.000  C
  C78      1.0000 0.63550  0.00150  0.81410  Biso   1.000  C
  C79      1.0000 0.63550  0.99850  0.31410  Biso   1.000  C
  C80      1.0000 0.36450  0.99850  0.18590  Biso   1.000  C
  H57      1.0000 0.30850  0.03130  0.69200  Biso   1.000  H
  H58      1.0000 0.69150  0.03130  0.80800  Biso   1.000  H
  H59      1.0000 0.69150  0.96870  0.30800  Biso   1.000  H
  H60      1.0000 0.30850  0.96870  0.19200  Biso   1.000  H
  C81      1.0000 0.65220  0.12130  0.71280  Biso   1.000  C
  C82      1.0000 0.34780  0.12130  0.78720  Biso   1.000  C
  C83      1.0000 0.34780  0.87870  0.28720  Biso   1.000  C
  C84      1.0000 0.65220  0.87870  0.21280  Biso   1.000  C
  H61      1.0000 0.59470  0.14950  0.71850  Biso   1.000  H
  H62      1.0000 0.40530  0.14950  0.78150  Biso   1.000  H
  H63      1.0000 0.40530  0.85050  0.28150  Biso   1.000  H
  H64      1.0000 0.59470  0.85050  0.21850  Biso   1.000  H
  C85      1.0000 0.63980  0.04040  0.69510  Biso   1.000  C
  C86      1.0000 0.36020  0.04040  0.80490  Biso   1.000  C
  C87      1.0000 0.36020  0.95960  0.30490  Biso   1.000  C
  C88      1.0000 0.63980  0.95960  0.19510  Biso   1.000  C
  C89      1.0000 0.72580  0.00150  0.68500  Biso   1.000  C
  C90      1.0000 0.27420  0.00150  0.81500  Biso   1.000  C
  C91      1.0000 0.27420  0.99850  0.31500  Biso   1.000  C
  C92      1.0000 0.72580  0.99850  0.18500  Biso   1.000  C
  H65      1.0000 0.72110  0.94770  0.67250  Biso   1.000  H
  H66      1.0000 0.27890  0.94770  0.82750  Biso   1.000  H
  H67      1.0000 0.27890  0.05230  0.32750  Biso   1.000  H
  H68      1.0000 0.72110  0.05230  0.17250  Biso   1.000  H
  C93      1.0000 0.81780  0.04230  0.69350  Biso   1.000  C
  C94      1.0000 0.18220  0.04230  0.80650  Biso   1.000  C
  C95      1.0000 0.18220  0.95770  0.30650  Biso   1.000  C
  C96      1.0000 0.81780  0.95770  0.19350  Biso   1.000  C
  C97      1.0000 0.82020  0.12170  0.71160  Biso   1.000  C
  C98      1.0000 0.17980  0.12170  0.78840  Biso   1.000  C
  C99      1.0000 0.17980  0.87830  0.28840  Biso   1.000  C
  C100     1.0000 0.82020  0.87830  0.21160  Biso   1.000  C
  H69      1.0000 0.88210  0.15030  0.71700  Biso   1.000  H
  H70      1.0000 0.11790  0.15030  0.78300  Biso   1.000  H
  H71      1.0000 0.11790  0.84970  0.28300  Biso   1.000  H
  H72      1.0000 0.88210  0.84970  0.21700  Biso   1.000  H
  C101     1.0000 0.08730  0.00270  0.68610  Biso   1.000  C
  C102     1.0000 0.91270  0.00270  0.81390  Biso   1.000  C
  C103     1.0000 0.91270  0.99730  0.31390  Biso   1.000  C
  C104     1.0000 0.08730  0.99730  0.18610  Biso   1.000  C
  H73      1.0000 0.14860  0.03180  0.69340  Biso   1.000  H
  H74      1.0000 0.85140  0.03180  0.80660  Biso   1.000  H
  H75      1.0000 0.85140  0.96820  0.30660  Biso   1.000  H
  H76      1.0000 0.14860  0.96820  0.19340  Biso   1.000  H
  C105     1.0000 0.00050  0.03970  0.69310  Biso   1.000  C
  C106     1.0000 0.99950  0.03970  0.80690  Biso   1.000  C
  C107     1.0000 0.99950  0.96030  0.30690  Biso   1.000  C
  C108     1.0000 0.00050  0.96030  0.19310  Biso   1.000  C
  H77      1.0000 0.00380  0.09450  0.70410  Biso   1.000  H
  H78      1.0000 0.99620  0.09450  0.79590  Biso   1.000  H
  H79      1.0000 0.99620  0.90550  0.29590  Biso   1.000  H
  H80      1.0000 0.00380  0.90550  0.20410  Biso   1.000  H
  C109     1.0000 0.90990  0.00140  0.68480  Biso   1.000  C
  C110     1.0000 0.09010  0.00140  0.81520  Biso   1.000  C
  C111     1.0000 0.09010  0.99860  0.31520  Biso   1.000  C
  C112     1.0000 0.90990  0.99860  0.18480  Biso   1.000  C
  C113     1.0000 0.90970  0.92420  0.66550  Biso   1.000  C
  C114     1.0000 0.09030  0.92420  0.83450  Biso   1.000  C
  C115     1.0000 0.09030  0.07580  0.33450  Biso   1.000  C
  C116     1.0000 0.90970  0.07580  0.16550  Biso   1.000  C
  H81      1.0000 0.84890  0.89490  0.65680  Biso   1.000  H
  H82      1.0000 0.15110  0.89490  0.84320  Biso   1.000  H
  H83      1.0000 0.15110  0.10510  0.34320  Biso   1.000  H
  H84      1.0000 0.84890  0.10510  0.15680  Biso   1.000  H
  C117     1.0000 0.00060  0.88970  0.65890  Biso   1.000  C
  C118     1.0000 0.99940  0.88970  0.84110  Biso   1.000  C
  C119     1.0000 0.99940  0.11030  0.34110  Biso   1.000  C
  C120     1.0000 0.00060  0.11030  0.15890  Biso   1.000  C
  H85      1.0000 0.99870  0.83620  0.64610  Biso   1.000  H
  H86      1.0000 0.00130  0.83620  0.85390  Biso   1.000  H
  H87      1.0000 0.00130  0.16380  0.35390  Biso   1.000  H
  H88      1.0000 0.99870  0.16380  0.14610  Biso   1.000  H
  C121     1.0000 0.54730  0.88580  0.96080  Biso   1.000  C
  C122     1.0000 0.45270  0.88580  0.53920  Biso   1.000  C
  C123     1.0000 0.45270  0.11420  0.03920  Biso   1.000  C
  C124     1.0000 0.54730  0.11420  0.46080  Biso   1.000  C
  H89      1.0000 0.54710  0.83070  0.97130  Biso   1.000  H
  H90      1.0000 0.45290  0.83070  0.52870  Biso   1.000  H
  H91      1.0000 0.45290  0.16930  0.02870  Biso   1.000  H
  H92      1.0000 0.54710  0.16930  0.47130  Biso   1.000  H
  C125     1.0000 0.63830  0.92010  0.95470  Biso   1.000  C
  C126     1.0000 0.36170  0.92010  0.54530  Biso   1.000  C
  C127     1.0000 0.36170  0.07990  0.04530  Biso   1.000  C
  C128     1.0000 0.63830  0.07990  0.45470  Biso   1.000  C
  H93      1.0000 0.69840  0.88960  0.96290  Biso   1.000  H
  H94      1.0000 0.30160  0.88960  0.53710  Biso   1.000  H
  H95      1.0000 0.30160  0.11040  0.03710  Biso   1.000  H
  H96      1.0000 0.69840  0.11040  0.46290  Biso   1.000  H
  C129     1.0000 0.64070  0.00120  0.93620  Biso   1.000  C
  C130     1.0000 0.35930  0.00120  0.56380  Biso   1.000  C
  C131     1.0000 0.35930  0.99880  0.06380  Biso   1.000  C
  C132     1.0000 0.64070  0.99880  0.43620  Biso   1.000  C
  C133     1.0000 0.55140  0.04080  0.92940  Biso   1.000  C
  C134     1.0000 0.44860  0.04080  0.57060  Biso   1.000  C
  C135     1.0000 0.44860  0.95920  0.07060  Biso   1.000  C
  C136     1.0000 0.55140  0.95920  0.42940  Biso   1.000  C
  H97      1.0000 0.54840  0.09630  0.91950  Biso   1.000  H
  H98      1.0000 0.45160  0.09630  0.58050  Biso   1.000  H
  H99      1.0000 0.45160  0.90370  0.08050  Biso   1.000  H
  H100     1.0000 0.54840  0.90370  0.41950  Biso   1.000  H
  C137     1.0000 0.46600  0.00360  0.93650  Biso   1.000  C
  C138     1.0000 0.53400  0.00360  0.56350  Biso   1.000  C
  C139     1.0000 0.53400  0.99640  0.06350  Biso   1.000  C
  C140     1.0000 0.46600  0.99640  0.43650  Biso   1.000  C
  H101     1.0000 0.40540  0.03380  0.92960  Biso   1.000  H
  H102     1.0000 0.59460  0.03380  0.57040  Biso   1.000  H
  H103     1.0000 0.59460  0.96620  0.07040  Biso   1.000  H
  H104     1.0000 0.40540  0.96620  0.42960  Biso   1.000  H
  C141     1.0000 0.72810  0.11100  0.90220  Biso   1.000  C
  C142     1.0000 0.27190  0.11100  0.59780  Biso   1.000  C
  C143     1.0000 0.27190  0.88900  0.09780  Biso   1.000  C
  C144     1.0000 0.72810  0.88900  0.40220  Biso   1.000  C
  H105     1.0000 0.66470  0.13550  0.89180  Biso   1.000  H
  H106     1.0000 0.33530  0.13550  0.60820  Biso   1.000  H
  H107     1.0000 0.33530  0.86450  0.10820  Biso   1.000  H
  H108     1.0000 0.66470  0.86450  0.39180  Biso   1.000  H
  C145     1.0000 0.73360  0.03750  0.92710  Biso   1.000  C
  C146     1.0000 0.26640  0.03750  0.57290  Biso   1.000  C
  C147     1.0000 0.26640  0.96250  0.07290  Biso   1.000  C
  C148     1.0000 0.73360  0.96250  0.42710  Biso   1.000  C
  C149     1.0000 0.82800  0.00080  0.94030  Biso   1.000  C
  C150     1.0000 0.17200  0.00080  0.55970  Biso   1.000  C
  C151     1.0000 0.17200  0.99920  0.05970  Biso   1.000  C
  C152     1.0000 0.82800  0.99920  0.44030  Biso   1.000  C
  H109     1.0000 0.83480  0.95030  0.95640  Biso   1.000  H
  H110     1.0000 0.16520  0.95030  0.54360  Biso   1.000  H
  H111     1.0000 0.16520  0.04970  0.04360  Biso   1.000  H
  H112     1.0000 0.83480  0.04970  0.45640  Biso   1.000  H
  C153     1.0000 0.91190  0.04020  0.92930  Biso   1.000  C
  C154     1.0000 0.08810  0.04020  0.57070  Biso   1.000  C
  C155     1.0000 0.08810  0.95980  0.07070  Biso   1.000  C
  C156     1.0000 0.91190  0.95980  0.42930  Biso   1.000  C
  C157     1.0000 0.90030  0.11280  0.90580  Biso   1.000  C
  C158     1.0000 0.09970  0.11280  0.59420  Biso   1.000  C
  C159     1.0000 0.09970  0.88720  0.09420  Biso   1.000  C
  C160     1.0000 0.90030  0.88720  0.40580  Biso   1.000  C
  H113     1.0000 0.95790  0.13880  0.89870  Biso   1.000  H
  H114     1.0000 0.04210  0.13880  0.60130  Biso   1.000  H
  H115     1.0000 0.04210  0.86120  0.10130  Biso   1.000  H
  H116     1.0000 0.95790  0.86120  0.39870  Biso   1.000  H
  C161     1.0000 0.19000  0.00570  0.94730  Biso   1.000  C
  C162     1.0000 0.81000  0.00570  0.55270  Biso   1.000  C
  C163     1.0000 0.81000  0.99430  0.05270  Biso   1.000  C
  C164     1.0000 0.19000  0.99430  0.44730  Biso   1.000  C
  H117     1.0000 0.24680  0.03850  0.94540  Biso   1.000  H
  H118     1.0000 0.75320  0.03850  0.55460  Biso   1.000  H
  H119     1.0000 0.75320  0.96150  0.05460  Biso   1.000  H
  H120     1.0000 0.24680  0.96150  0.44540  Biso   1.000  H
  C165     1.0000 0.09800  0.04470  0.94050  Biso   1.000  C
  C166     1.0000 0.90200  0.04470  0.55950  Biso   1.000  C
  C167     1.0000 0.90200  0.95530  0.05950  Biso   1.000  C
  C168     1.0000 0.09800  0.95530  0.44050  Biso   1.000  C
  H121     1.0000 0.09450  0.10250  0.93570  Biso   1.000  H
  H122     1.0000 0.90550  0.10250  0.56430  Biso   1.000  H
  H123     1.0000 0.90550  0.89750  0.06430  Biso   1.000  H
  H124     1.0000 0.09450  0.89750  0.43570  Biso   1.000  H
  C169     1.0000 0.01370  0.00170  0.94050  Biso   1.000  C
  C170     1.0000 0.98630  0.00170  0.55950  Biso   1.000  C
  C171     1.0000 0.98630  0.99830  0.05950  Biso   1.000  C
  C172     1.0000 0.01370  0.99830  0.44050  Biso   1.000  C
  C173     1.0000 0.02720  0.92010  0.95250  Biso   1.000  C
  C174     1.0000 0.97280  0.92010  0.54750  Biso   1.000  C
  C175     1.0000 0.97280  0.07990  0.04750  Biso   1.000  C
  C176     1.0000 0.02720  0.07990  0.45250  Biso   1.000  C
  H125     1.0000 0.97080  0.88760  0.95550  Biso   1.000  H
  H126     1.0000 0.02920  0.88760  0.54450  Biso   1.000  H
  H127     1.0000 0.02920  0.11240  0.04450  Biso   1.000  H
  H128     1.0000 0.97080  0.11240  0.45550  Biso   1.000  H
  C177     1.0000 0.12280  0.88370  0.96040  Biso   1.000  C
  C178     1.0000 0.87720  0.88370  0.53960  Biso   1.000  C
  C179     1.0000 0.87720  0.11630  0.03960  Biso   1.000  C
  C180     1.0000 0.12280  0.11630  0.46040  Biso   1.000  C
  H129     1.0000 0.12980  0.82750  0.96900  Biso   1.000  H
  H130     1.0000 0.87020  0.82750  0.53100  Biso   1.000  H
  H131     1.0000 0.87020  0.17250  0.03100  Biso   1.000  H
  H132     1.0000 0.12980  0.17250  0.46900  Biso   1.000  H
  C181     1.0000 0.46870  0.51020  0.94470  Biso   1.000  C
  C182     1.0000 0.53130  0.51020  0.55530  Biso   1.000  C
  C183     1.0000 0.53130  0.48980  0.05530  Biso   1.000  C
  C184     1.0000 0.46870  0.48980  0.44470  Biso   1.000  C
  H133     1.0000 0.41300  0.47700  0.94800  Biso   1.000  H
  H134     1.0000 0.58700  0.47700  0.55200  Biso   1.000  H
  H135     1.0000 0.58700  0.52300  0.05200  Biso   1.000  H
  H136     1.0000 0.41300  0.52300  0.44800  Biso   1.000  H
  C185     1.0000 0.55940  0.47090  0.94150  Biso   1.000  C
  C186     1.0000 0.44060  0.47090  0.55850  Biso   1.000  C
  C187     1.0000 0.44060  0.52910  0.05850  Biso   1.000  C
  C188     1.0000 0.55940  0.52910  0.44150  Biso   1.000  C
  H137     1.0000 0.56640  0.41300  0.94590  Biso   1.000  H
  H138     1.0000 0.43360  0.41300  0.55410  Biso   1.000  H
  H139     1.0000 0.43360  0.58700  0.05410  Biso   1.000  H
  H140     1.0000 0.56640  0.58700  0.44590  Biso   1.000  H
  C189     1.0000 0.63670  0.51630  0.93220  Biso   1.000  C
  C190     1.0000 0.36330  0.51630  0.56780  Biso   1.000  C
  C191     1.0000 0.36330  0.48370  0.06780  Biso   1.000  C
  C192     1.0000 0.63670  0.48370  0.43220  Biso   1.000  C
  C193     1.0000 0.62740  0.60170  0.93110  Biso   1.000  C
  C194     1.0000 0.37260  0.60170  0.56890  Biso   1.000  C
  C195     1.0000 0.37260  0.39830  0.06890  Biso   1.000  C
  C196     1.0000 0.62740  0.39830  0.43110  Biso   1.000  C
  H141     1.0000 0.68140  0.63560  0.92650  Biso   1.000  H
  H142     1.0000 0.31860  0.63560  0.57350  Biso   1.000  H
  H143     1.0000 0.31860  0.36440  0.07350  Biso   1.000  H
  H144     1.0000 0.68140  0.36440  0.42650  Biso   1.000  H
  C197     1.0000 0.53610  0.63650  0.93690  Biso   1.000  C
  C198     1.0000 0.46390  0.63650  0.56310  Biso   1.000  C
  C199     1.0000 0.46390  0.36350  0.06310  Biso   1.000  C
  C200     1.0000 0.53610  0.36350  0.43690  Biso   1.000  C
  H145     1.0000 0.52950  0.69480  0.93620  Biso   1.000  H
  H146     1.0000 0.47050  0.69480  0.56380  Biso   1.000  H
  H147     1.0000 0.47050  0.30520  0.06380  Biso   1.000  H
  H148     1.0000 0.52950  0.30520  0.43620  Biso   1.000  H
  C201     1.0000 0.89970  0.39450  0.90860  Biso   1.000  C
  C202     1.0000 0.10030  0.39450  0.59140  Biso   1.000  C
  C203     1.0000 0.10030  0.60550  0.09140  Biso   1.000  C
  C204     1.0000 0.89970  0.60550  0.40860  Biso   1.000  C
  H149     1.0000 0.95780  0.36520  0.90460  Biso   1.000  H
  H150     1.0000 0.04220  0.36520  0.59540  Biso   1.000  H
  H151     1.0000 0.04220  0.63480  0.09540  Biso   1.000  H
  H152     1.0000 0.95780  0.63480  0.40460  Biso   1.000  H
  C205     1.0000 0.90980  0.47480  0.92820  Biso   1.000  C
  C206     1.0000 0.09020  0.47480  0.57180  Biso   1.000  C
  C207     1.0000 0.09020  0.52520  0.07180  Biso   1.000  C
  C208     1.0000 0.90980  0.52520  0.42820  Biso   1.000  C
  C209     1.0000 0.82510  0.51560  0.93520  Biso   1.000  C
  C210     1.0000 0.17490  0.51560  0.56480  Biso   1.000  C
  C211     1.0000 0.17490  0.48440  0.06480  Biso   1.000  C
  C212     1.0000 0.82510  0.48440  0.43520  Biso   1.000  C
  H153     1.0000 0.82980  0.57020  0.94670  Biso   1.000  H
  H154     1.0000 0.17020  0.57020  0.55330  Biso   1.000  H
  H155     1.0000 0.17020  0.42980  0.05330  Biso   1.000  H
  H156     1.0000 0.82980  0.42980  0.44670  Biso   1.000  H
  C213     1.0000 0.73490  0.47700  0.92570  Biso   1.000  C
  C214     1.0000 0.26510  0.47700  0.57430  Biso   1.000  C
  C215     1.0000 0.26510  0.52300  0.07430  Biso   1.000  C
  C216     1.0000 0.73490  0.52300  0.42570  Biso   1.000  C
  C217     1.0000 0.72900  0.39890  0.90570  Biso   1.000  C
  C218     1.0000 0.27100  0.39890  0.59430  Biso   1.000  C
  C219     1.0000 0.27100  0.60110  0.09430  Biso   1.000  C
  C220     1.0000 0.72900  0.60110  0.40570  Biso   1.000  C
  H157     1.0000 0.66580  0.37230  0.89900  Biso   1.000  H
  H158     1.0000 0.33420  0.37230  0.60100  Biso   1.000  H
  H159     1.0000 0.33420  0.62770  0.10100  Biso   1.000  H
  H160     1.0000 0.66580  0.62770  0.39900  Biso   1.000  H
  C221     1.0000 0.11490  0.63180  0.93800  Biso   1.000  C
  C222     1.0000 0.88510  0.63180  0.56200  Biso   1.000  C
  C223     1.0000 0.88510  0.36820  0.06200  Biso   1.000  C
  C224     1.0000 0.11490  0.36820  0.43800  Biso   1.000  C
  H161     1.0000 0.11870  0.68970  0.93420  Biso   1.000  H
  H162     1.0000 0.88130  0.68970  0.56580  Biso   1.000  H
  H163     1.0000 0.88130  0.31030  0.06580  Biso   1.000  H
  H164     1.0000 0.11870  0.31030  0.43420  Biso   1.000  H
  C225     1.0000 0.02040  0.59780  0.93380  Biso   1.000  C
  C226     1.0000 0.97960  0.59780  0.56620  Biso   1.000  C
  C227     1.0000 0.97960  0.40220  0.06620  Biso   1.000  C
  C228     1.0000 0.02040  0.40220  0.43380  Biso   1.000  C
  H165     1.0000 0.96270  0.63180  0.92990  Biso   1.000  H
  H166     1.0000 0.03730  0.63180  0.57010  Biso   1.000  H
  H167     1.0000 0.03730  0.36820  0.07010  Biso   1.000  H
  H168     1.0000 0.96270  0.36820  0.42990  Biso   1.000  H
  C229     1.0000 0.01240  0.51490  0.93560  Biso   1.000  C
  C230     1.0000 0.98760  0.51490  0.56440  Biso   1.000  C
  C231     1.0000 0.98760  0.48510  0.06440  Biso   1.000  C
  C232     1.0000 0.01240  0.48510  0.43560  Biso   1.000  C
  C233     1.0000 0.09480  0.46800  0.94740  Biso   1.000  C
  C234     1.0000 0.90520  0.46800  0.55260  Biso   1.000  C
  C235     1.0000 0.90520  0.53200  0.05260  Biso   1.000  C
  C236     1.0000 0.09480  0.53200  0.44740  Biso   1.000  C
  H169     1.0000 0.09030  0.41060  0.95260  Biso   1.000  H
  H170     1.0000 0.90970  0.41060  0.54740  Biso   1.000  H
  H171     1.0000 0.90970  0.58940  0.04740  Biso   1.000  H
  H172     1.0000 0.09030  0.58940  0.45260  Biso   1.000  H
  C237     1.0000 0.19070  0.50950  0.95180  Biso   1.000  C
  C238     1.0000 0.80930  0.50950  0.54820  Biso   1.000  C
  C239     1.0000 0.80930  0.49050  0.04820  Biso   1.000  C
  C240     1.0000 0.19070  0.49050  0.45180  Biso   1.000  C
  H173     1.0000 0.24960  0.47710  0.95870  Biso   1.000  H
  H174     1.0000 0.75040  0.47710  0.54130  Biso   1.000  H
  H175     1.0000 0.75040  0.52290  0.04130  Biso   1.000  H
  H176     1.0000 0.24960  0.52290  0.45870  Biso   1.000  H
