data_image0
_cell_length_a       9.04
_cell_length_b       14.87
_cell_length_c       10.27
_cell_angle_alpha    90
_cell_angle_beta     90
_cell_angle_gamma    90

_symmetry_space_group_name_H-M    "P 1"
_symmetry_int_tables_number       1

loop_
  _symmetry_equiv_pos_as_xyz
  'x, y, z'

loop_
  _atom_site_label
  _atom_site_occupancy
  _atom_site_fract_x
  _atom_site_fract_y
  _atom_site_fract_z
  _atom_site_thermal_displace_type
  _atom_site_B_iso_or_equiv
  _atom_site_type_symbol
  Cu1      1.0000 0.50000  0.08816  0.75000  Biso   1.000  Cu
  Cu2      1.0000 0.00000  0.41184  0.25000  Biso   1.000  Cu
  Cu3      1.0000 0.50000  0.91184  0.25000  Biso   1.000  Cu
  Cu4      1.0000 0.00000  0.58816  0.75000  Biso   1.000  Cu
  I1       1.0000 0.50000  0.25908  0.75000  Biso   1.000  I
  I2       1.0000 0.00000  0.24092  0.25000  Biso   1.000  I
  I3       1.0000 0.50000  0.74092  0.25000  Biso   1.000  I
  I4       1.0000 0.00000  0.75908  0.75000  Biso   1.000  I
  N1       1.0000 0.36970  0.02963  0.87960  Biso   1.000  N
  N2       1.0000 0.13030  0.47037  0.37960  Biso   1.000  N
  N3       1.0000 0.63030  0.02963  0.62040  Biso   1.000  N
  N4       1.0000 0.86970  0.47037  0.12040  Biso   1.000  N
  N5       1.0000 0.63030  0.97037  0.12040  Biso   1.000  N
  N6       1.0000 0.86970  0.52963  0.62040  Biso   1.000  N
  N7       1.0000 0.36970  0.97037  0.37960  Biso   1.000  N
  N8       1.0000 0.13030  0.52963  0.87960  Biso   1.000  N
  N9       1.0000 0.00000  0.75870  0.25000  Biso   1.000  N
  N10      1.0000 0.50000  0.74130  0.75000  Biso   1.000  N
  N11      1.0000 0.00000  0.24130  0.75000  Biso   1.000  N
  N12      1.0000 0.50000  0.25870  0.25000  Biso   1.000  N
  C1       1.0000 0.35410  0.94020  0.88450  Biso   1.000  C
  C2       1.0000 0.14590  0.55980  0.38450  Biso   1.000  C
  C3       1.0000 0.64590  0.94020  0.61550  Biso   1.000  C
  C4       1.0000 0.85410  0.55980  0.11550  Biso   1.000  C
  C5       1.0000 0.64590  0.05980  0.11550  Biso   1.000  C
  C6       1.0000 0.85410  0.44020  0.61550  Biso   1.000  C
  C7       1.0000 0.35410  0.05980  0.38450  Biso   1.000  C
  C8       1.0000 0.14590  0.44020  0.88450  Biso   1.000  C
  H1       1.0000 0.40590  0.90580  0.82410  Biso   1.000  H
  H2       1.0000 0.09410  0.59420  0.32410  Biso   1.000  H
  H3       1.0000 0.59410  0.90580  0.67590  Biso   1.000  H
  H4       1.0000 0.90590  0.59420  0.17590  Biso   1.000  H
  H5       1.0000 0.59410  0.09420  0.17590  Biso   1.000  H
  H6       1.0000 0.90590  0.40580  0.67590  Biso   1.000  H
  H7       1.0000 0.40590  0.09420  0.32410  Biso   1.000  H
  H8       1.0000 0.09410  0.40580  0.82410  Biso   1.000  H
  C9       1.0000 0.26610  0.89570  0.97320  Biso   1.000  C
  C10      1.0000 0.23390  0.60430  0.47320  Biso   1.000  C
  C11      1.0000 0.73390  0.89570  0.52680  Biso   1.000  C
  C12      1.0000 0.76610  0.60430  0.02680  Biso   1.000  C
  C13      1.0000 0.73390  0.10430  0.02680  Biso   1.000  C
  C14      1.0000 0.76610  0.39570  0.52680  Biso   1.000  C
  C15      1.0000 0.26610  0.10430  0.47320  Biso   1.000  C
  C16      1.0000 0.23390  0.39570  0.97320  Biso   1.000  C
  H9       1.0000 0.26020  0.83330  0.97150  Biso   1.000  H
  H10      1.0000 0.23980  0.66670  0.47150  Biso   1.000  H
  H11      1.0000 0.73980  0.83330  0.52850  Biso   1.000  H
  H12      1.0000 0.76020  0.66670  0.02850  Biso   1.000  H
  H13      1.0000 0.73980  0.16670  0.02850  Biso   1.000  H
  H14      1.0000 0.76020  0.33330  0.52850  Biso   1.000  H
  H15      1.0000 0.26020  0.16670  0.47150  Biso   1.000  H
  H16      1.0000 0.23980  0.33330  0.97150  Biso   1.000  H
  C17      1.0000 0.18570  0.94440  0.06590  Biso   1.000  C
  C18      1.0000 0.31430  0.55560  0.56590  Biso   1.000  C
  C19      1.0000 0.81430  0.94440  0.43410  Biso   1.000  C
  C20      1.0000 0.68570  0.55560  0.93410  Biso   1.000  C
  C21      1.0000 0.81430  0.05560  0.93410  Biso   1.000  C
  C22      1.0000 0.68570  0.44440  0.43410  Biso   1.000  C
  C23      1.0000 0.18570  0.05560  0.56590  Biso   1.000  C
  C24      1.0000 0.31430  0.44440  0.06590  Biso   1.000  C
  C25      1.0000 0.20230  0.03700  0.06070  Biso   1.000  C
  C26      1.0000 0.29770  0.46300  0.56070  Biso   1.000  C
  C27      1.0000 0.79770  0.03700  0.43930  Biso   1.000  C
  C28      1.0000 0.70230  0.46300  0.93930  Biso   1.000  C
  C29      1.0000 0.79770  0.96300  0.93930  Biso   1.000  C
  C30      1.0000 0.70230  0.53700  0.43930  Biso   1.000  C
  C31      1.0000 0.20230  0.96300  0.56070  Biso   1.000  C
  C32      1.0000 0.29770  0.53700  0.06070  Biso   1.000  C
  H17      1.0000 0.15240  0.07300  0.12020  Biso   1.000  H
  H18      1.0000 0.34760  0.42700  0.62020  Biso   1.000  H
  H19      1.0000 0.84760  0.07300  0.37980  Biso   1.000  H
  H20      1.0000 0.65240  0.42700  0.87980  Biso   1.000  H
  H21      1.0000 0.84760  0.92700  0.87980  Biso   1.000  H
  H22      1.0000 0.65240  0.57300  0.37980  Biso   1.000  H
  H23      1.0000 0.15240  0.92700  0.62020  Biso   1.000  H
  H24      1.0000 0.34760  0.57300  0.12020  Biso   1.000  H
  C33      1.0000 0.29140  0.07610  0.96870  Biso   1.000  C
  C34      1.0000 0.20860  0.42390  0.46870  Biso   1.000  C
  C35      1.0000 0.70860  0.07610  0.53130  Biso   1.000  C
  C36      1.0000 0.79140  0.42390  0.03130  Biso   1.000  C
  C37      1.0000 0.70860  0.92390  0.03130  Biso   1.000  C
  C38      1.0000 0.79140  0.57610  0.53130  Biso   1.000  C
  C39      1.0000 0.29140  0.92390  0.46870  Biso   1.000  C
  C40      1.0000 0.20860  0.57610  0.96870  Biso   1.000  C
  H25      1.0000 0.29820  0.13850  0.96780  Biso   1.000  H
  H26      1.0000 0.20180  0.36150  0.46780  Biso   1.000  H
  H27      1.0000 0.70180  0.13850  0.53220  Biso   1.000  H
  H28      1.0000 0.79820  0.36150  0.03220  Biso   1.000  H
  H29      1.0000 0.70180  0.86150  0.03220  Biso   1.000  H
  H30      1.0000 0.79820  0.63850  0.53220  Biso   1.000  H
  H31      1.0000 0.29820  0.86150  0.46780  Biso   1.000  H
  H32      1.0000 0.20180  0.63850  0.96780  Biso   1.000  H
  C41      1.0000 0.00000  0.94400  0.25000  Biso   1.000  C
  C42      1.0000 0.50000  0.55600  0.75000  Biso   1.000  C
  C43      1.0000 0.00000  0.05600  0.75000  Biso   1.000  C
  C44      1.0000 0.50000  0.44400  0.25000  Biso   1.000  C
  H33      1.0000 0.00000  0.00660  0.25000  Biso   1.000  H
  H34      1.0000 0.50000  0.49340  0.75000  Biso   1.000  H
  H35      1.0000 0.00000  0.99340  0.75000  Biso   1.000  H
  H36      1.0000 0.50000  0.50660  0.25000  Biso   1.000  H
  C45      1.0000 0.08980  0.89840  0.16160  Biso   1.000  C
  C46      1.0000 0.41020  0.60160  0.66160  Biso   1.000  C
  C47      1.0000 0.91020  0.89840  0.33840  Biso   1.000  C
  C48      1.0000 0.58980  0.60160  0.83840  Biso   1.000  C
  C49      1.0000 0.91020  0.10160  0.83840  Biso   1.000  C
  C50      1.0000 0.58980  0.39840  0.33840  Biso   1.000  C
  C51      1.0000 0.08980  0.10160  0.66160  Biso   1.000  C
  C52      1.0000 0.41020  0.39840  0.16160  Biso   1.000  C
  C53      1.0000 0.08440  0.80490  0.16830  Biso   1.000  C
  C54      1.0000 0.41560  0.69510  0.66830  Biso   1.000  C
  C55      1.0000 0.91560  0.80490  0.33170  Biso   1.000  C
  C56      1.0000 0.58440  0.69510  0.83170  Biso   1.000  C
  C57      1.0000 0.91560  0.19510  0.83170  Biso   1.000  C
  C58      1.0000 0.58440  0.30490  0.33170  Biso   1.000  C
  C59      1.0000 0.08440  0.19510  0.66830  Biso   1.000  C
  C60      1.0000 0.41560  0.30490  0.16830  Biso   1.000  C
  H37      1.0000 0.14430  0.77260  0.11140  Biso   1.000  H
  H38      1.0000 0.35570  0.72740  0.61140  Biso   1.000  H
  H39      1.0000 0.85570  0.77260  0.38860  Biso   1.000  H
  H40      1.0000 0.64430  0.72740  0.88860  Biso   1.000  H
  H41      1.0000 0.85570  0.22740  0.88860  Biso   1.000  H
  H42      1.0000 0.64430  0.27260  0.38860  Biso   1.000  H
  H43      1.0000 0.14430  0.22740  0.61140  Biso   1.000  H
  H44      1.0000 0.35570  0.27260  0.11140  Biso   1.000  H
