data_image0
_cell_length_a       21.618
_cell_length_b       4.2267
_cell_length_c       15.212
_cell_angle_alpha    90
_cell_angle_beta     90
_cell_angle_gamma    90

_symmetry_space_group_name_H-M    "P 1"
_symmetry_int_tables_number       1

loop_
  _symmetry_equiv_pos_as_xyz
  'x, y, z'

loop_
  _atom_site_label
  _atom_site_occupancy
  _atom_site_fract_x
  _atom_site_fract_y
  _atom_site_fract_z
  _atom_site_thermal_displace_type
  _atom_site_B_iso_or_equiv
  _atom_site_type_symbol
  I1       1.0000 0.25000  0.25000  0.54056  Biso   1.000  I
  I2       1.0000 0.75000  0.75000  0.95944  Biso   1.000  I
  I3       1.0000 0.75000  0.75000  0.45944  Biso   1.000  I
  I4       1.0000 0.25000  0.25000  0.04056  Biso   1.000  I
  Cu1      1.0000 0.25000  0.75000  0.64118  Biso   1.000  Cu
  Cu2      1.0000 0.75000  0.25000  0.85882  Biso   1.000  Cu
  Cu3      1.0000 0.75000  0.25000  0.35882  Biso   1.000  Cu
  Cu4      1.0000 0.25000  0.75000  0.14118  Biso   1.000  Cu
  N1       1.0000 0.32400  0.72770  0.72771  Biso   1.000  N
  N2       1.0000 0.17600  0.77230  0.72771  Biso   1.000  N
  N3       1.0000 0.67600  0.22770  0.77229  Biso   1.000  N
  N4       1.0000 0.82400  0.27230  0.77229  Biso   1.000  N
  N5       1.0000 0.67600  0.27230  0.27229  Biso   1.000  N
  N6       1.0000 0.82400  0.22770  0.27229  Biso   1.000  N
  N7       1.0000 0.32400  0.77230  0.22771  Biso   1.000  N
  N8       1.0000 0.17600  0.72770  0.22771  Biso   1.000  N
  C1       1.0000 0.32003  0.86940  0.80683  Biso   1.000  C
  C2       1.0000 0.17997  0.63060  0.80683  Biso   1.000  C
  C3       1.0000 0.67997  0.36940  0.69317  Biso   1.000  C
  C4       1.0000 0.82003  0.13060  0.69317  Biso   1.000  C
  C5       1.0000 0.67997  0.13060  0.19317  Biso   1.000  C
  C6       1.0000 0.82003  0.36940  0.19317  Biso   1.000  C
  C7       1.0000 0.32003  0.63060  0.30683  Biso   1.000  C
  C8       1.0000 0.17997  0.86940  0.30683  Biso   1.000  C
  H1       1.0000 0.28630  0.00830  0.81710  Biso   1.000  H
  H2       1.0000 0.21370  0.49170  0.81710  Biso   1.000  H
  H3       1.0000 0.71370  0.50830  0.68290  Biso   1.000  H
  H4       1.0000 0.78630  0.99170  0.68290  Biso   1.000  H
  H5       1.0000 0.71370  0.99170  0.18290  Biso   1.000  H
  H6       1.0000 0.78630  0.50830  0.18290  Biso   1.000  H
  H7       1.0000 0.28630  0.49170  0.31710  Biso   1.000  H
  H8       1.0000 0.21370  0.00830  0.31710  Biso   1.000  H
  C9       1.0000 0.36210  0.82430  0.87359  Biso   1.000  C
  C10      1.0000 0.13790  0.67570  0.87359  Biso   1.000  C
  C11      1.0000 0.63790  0.32430  0.62641  Biso   1.000  C
  C12      1.0000 0.86210  0.17570  0.62641  Biso   1.000  C
  C13      1.0000 0.63790  0.17570  0.12641  Biso   1.000  C
  C14      1.0000 0.86210  0.32430  0.12641  Biso   1.000  C
  C15      1.0000 0.36210  0.67570  0.37359  Biso   1.000  C
  C16      1.0000 0.13790  0.82430  0.37359  Biso   1.000  C
  H9       1.0000 0.35660  0.92820  0.92840  Biso   1.000  H
  H10      1.0000 0.14340  0.57180  0.92840  Biso   1.000  H
  H11      1.0000 0.64340  0.42820  0.57160  Biso   1.000  H
  H12      1.0000 0.85660  0.07180  0.57160  Biso   1.000  H
  H13      1.0000 0.64340  0.07180  0.07160  Biso   1.000  H
  H14      1.0000 0.85660  0.42820  0.07160  Biso   1.000  H
  H15      1.0000 0.35660  0.57180  0.42840  Biso   1.000  H
  H16      1.0000 0.14340  0.92820  0.42840  Biso   1.000  H
  C17      1.0000 0.41285  0.62610  0.86065  Biso   1.000  C
  C18      1.0000 0.08715  0.87390  0.86065  Biso   1.000  C
  C19      1.0000 0.58715  0.12610  0.63935  Biso   1.000  C
  C20      1.0000 0.91285  0.37390  0.63935  Biso   1.000  C
  C21      1.0000 0.58715  0.37390  0.13935  Biso   1.000  C
  C22      1.0000 0.91285  0.12610  0.13935  Biso   1.000  C
  C23      1.0000 0.41285  0.87390  0.36065  Biso   1.000  C
  C24      1.0000 0.08715  0.62610  0.36065  Biso   1.000  C
  C25      1.0000 0.41857  0.49150  0.77712  Biso   1.000  C
  C26      1.0000 0.08143  0.00850  0.77712  Biso   1.000  C
  C27      1.0000 0.58143  0.99150  0.72288  Biso   1.000  C
  C28      1.0000 0.91857  0.50850  0.72288  Biso   1.000  C
  C29      1.0000 0.58143  0.50850  0.22288  Biso   1.000  C
  C30      1.0000 0.91857  0.99150  0.22288  Biso   1.000  C
  C31      1.0000 0.41857  0.00850  0.27712  Biso   1.000  C
  C32      1.0000 0.08143  0.49150  0.27712  Biso   1.000  C
  H17      1.0000 0.45360  0.36520  0.76330  Biso   1.000  H
  H18      1.0000 0.04640  0.13480  0.76330  Biso   1.000  H
  H19      1.0000 0.54640  0.86520  0.73670  Biso   1.000  H
  H20      1.0000 0.95360  0.63480  0.73670  Biso   1.000  H
  H21      1.0000 0.54640  0.63480  0.23670  Biso   1.000  H
  H22      1.0000 0.95360  0.86520  0.23670  Biso   1.000  H
  H23      1.0000 0.45360  0.13480  0.26330  Biso   1.000  H
  H24      1.0000 0.04640  0.36520  0.26330  Biso   1.000  H
  C33      1.0000 0.37329  0.54210  0.71467  Biso   1.000  C
  C34      1.0000 0.12671  0.95790  0.71467  Biso   1.000  C
  C35      1.0000 0.62671  0.04210  0.78533  Biso   1.000  C
  C36      1.0000 0.87329  0.45790  0.78533  Biso   1.000  C
  C37      1.0000 0.62671  0.45790  0.28533  Biso   1.000  C
  C38      1.0000 0.87329  0.04210  0.28533  Biso   1.000  C
  C39      1.0000 0.37329  0.95790  0.21467  Biso   1.000  C
  C40      1.0000 0.12671  0.54210  0.21467  Biso   1.000  C
  H25      1.0000 0.37740  0.43940  0.65940  Biso   1.000  H
  H26      1.0000 0.12260  0.06060  0.65940  Biso   1.000  H
  H27      1.0000 0.62260  0.93940  0.84060  Biso   1.000  H
  H28      1.0000 0.87740  0.56060  0.84060  Biso   1.000  H
  H29      1.0000 0.62260  0.56060  0.34060  Biso   1.000  H
  H30      1.0000 0.87740  0.93940  0.34060  Biso   1.000  H
  H31      1.0000 0.37740  0.06060  0.15940  Biso   1.000  H
  H32      1.0000 0.12260  0.43940  0.15940  Biso   1.000  H
  C41      1.0000 0.45788  0.56310  0.93171  Biso   1.000  C
  C42      1.0000 0.04212  0.93690  0.93171  Biso   1.000  C
  C43      1.0000 0.54212  0.06310  0.56829  Biso   1.000  C
  C44      1.0000 0.95788  0.43690  0.56829  Biso   1.000  C
  C45      1.0000 0.54212  0.43690  0.06829  Biso   1.000  C
  C46      1.0000 0.95788  0.06310  0.06829  Biso   1.000  C
  C47      1.0000 0.45788  0.93690  0.43171  Biso   1.000  C
  C48      1.0000 0.04212  0.56310  0.43171  Biso   1.000  C
  C49      1.0000 0.51914  0.49000  0.91374  Biso   1.000  C
  C50      1.0000 0.98086  0.01000  0.91374  Biso   1.000  C
  C51      1.0000 0.48086  0.99000  0.58626  Biso   1.000  C
  C52      1.0000 0.01914  0.51000  0.58626  Biso   1.000  C
  C53      1.0000 0.48086  0.51000  0.08626  Biso   1.000  C
  C54      1.0000 0.01914  0.99000  0.08626  Biso   1.000  C
  C55      1.0000 0.51914  0.01000  0.41374  Biso   1.000  C
  C56      1.0000 0.98086  0.49000  0.41374  Biso   1.000  C
  H33      1.0000 0.53260  0.48120  0.85430  Biso   1.000  H
  H34      1.0000 0.96740  0.01880  0.85430  Biso   1.000  H
  H35      1.0000 0.46740  0.98120  0.64570  Biso   1.000  H
  H36      1.0000 0.03260  0.51880  0.64570  Biso   1.000  H
  H37      1.0000 0.46740  0.51880  0.14570  Biso   1.000  H
  H38      1.0000 0.03260  0.98120  0.14570  Biso   1.000  H
  H39      1.0000 0.53260  0.01880  0.35430  Biso   1.000  H
  H40      1.0000 0.96740  0.48120  0.35430  Biso   1.000  H
  C57      1.0000 0.43902  0.57020  0.01960  Biso   1.000  C
  C58      1.0000 0.06098  0.92980  0.01960  Biso   1.000  C
  C59      1.0000 0.56098  0.07020  0.48040  Biso   1.000  C
  C60      1.0000 0.93902  0.42980  0.48040  Biso   1.000  C
  C61      1.0000 0.56098  0.42980  0.98040  Biso   1.000  C
  C62      1.0000 0.93902  0.07020  0.98040  Biso   1.000  C
  C63      1.0000 0.43902  0.92980  0.51960  Biso   1.000  C
  C64      1.0000 0.06098  0.57020  0.51960  Biso   1.000  C
  H41      1.0000 0.39720  0.61670  0.03360  Biso   1.000  H
  H42      1.0000 0.10280  0.88330  0.03360  Biso   1.000  H
  H43      1.0000 0.60280  0.11670  0.46640  Biso   1.000  H
  H44      1.0000 0.89720  0.38330  0.46640  Biso   1.000  H
  H45      1.0000 0.60280  0.38330  0.96640  Biso   1.000  H
  H46      1.0000 0.89720  0.11670  0.96640  Biso   1.000  H
  H47      1.0000 0.39720  0.88330  0.53360  Biso   1.000  H
  H48      1.0000 0.10280  0.61670  0.53360  Biso   1.000  H
