data_image0
_cell_length_a       8.643
_cell_length_b       20.034
_cell_length_c       8.384
_cell_angle_alpha    90
_cell_angle_beta     99.846
_cell_angle_gamma    90

_symmetry_space_group_name_H-M    "P 1"
_symmetry_int_tables_number       1

loop_
  _symmetry_equiv_pos_as_xyz
  'x, y, z'

loop_
  _atom_site_label
  _atom_site_occupancy
  _atom_site_fract_x
  _atom_site_fract_y
  _atom_site_fract_z
  _atom_site_thermal_displace_type
  _atom_site_B_iso_or_equiv
  _atom_site_type_symbol
  Cu1      1.0000 0.13088  0.46427  0.91915  Biso   1.000  Cu
  Cu2      1.0000 0.86912  0.96427  0.58085  Biso   1.000  Cu
  Cu3      1.0000 0.86912  0.53573  0.08085  Biso   1.000  Cu
  Cu4      1.0000 0.13088  0.03573  0.41915  Biso   1.000  Cu
  Cu5      1.0000 0.87695  0.62654  0.77945  Biso   1.000  Cu
  Cu6      1.0000 0.12305  0.12654  0.72055  Biso   1.000  Cu
  Cu7      1.0000 0.12305  0.37346  0.22055  Biso   1.000  Cu
  Cu8      1.0000 0.87695  0.87346  0.27945  Biso   1.000  Cu
  Cu9      1.0000 0.27661  0.28238  0.08350  Biso   1.000  Cu
  Cu10     1.0000 0.72339  0.78238  0.41650  Biso   1.000  Cu
  Cu11     1.0000 0.72339  0.71762  0.91650  Biso   1.000  Cu
  Cu12     1.0000 0.27661  0.21762  0.58350  Biso   1.000  Cu
  I1       1.0000 0.11655  0.59477  0.01116  Biso   1.000  I
  I2       1.0000 0.88345  0.09477  0.48884  Biso   1.000  I
  I3       1.0000 0.88345  0.40523  0.98884  Biso   1.000  I
  I4       1.0000 0.11655  0.90523  0.51116  Biso   1.000  I
  I5       1.0000 0.38465  0.40430  0.07729  Biso   1.000  I
  I6       1.0000 0.61535  0.90430  0.42271  Biso   1.000  I
  I7       1.0000 0.61535  0.59570  0.92271  Biso   1.000  I
  I8       1.0000 0.38465  0.09570  0.57729  Biso   1.000  I
  I9       1.0000 0.90493  0.75037  0.70374  Biso   1.000  I
  I10      1.0000 0.09507  0.25037  0.79626  Biso   1.000  I
  I11      1.0000 0.09507  0.24963  0.29626  Biso   1.000  I
  I12      1.0000 0.90493  0.74963  0.20374  Biso   1.000  I
  N1       1.0000 0.54360  0.71624  0.40950  Biso   1.000  N
  N2       1.0000 0.45640  0.21624  0.09050  Biso   1.000  N
  N3       1.0000 0.45640  0.28376  0.59050  Biso   1.000  N
  N4       1.0000 0.54360  0.78376  0.90950  Biso   1.000  N
  C1       1.0000 0.55710  0.65780  0.33550  Biso   1.000  C
  C2       1.0000 0.44290  0.15780  0.16450  Biso   1.000  C
  C3       1.0000 0.44290  0.34220  0.66450  Biso   1.000  C
  C4       1.0000 0.55710  0.84220  0.83550  Biso   1.000  C
  H1       1.0000 0.63120  0.65430  0.26430  Biso   1.000  H
  H2       1.0000 0.36880  0.15430  0.23570  Biso   1.000  H
  H3       1.0000 0.36880  0.34570  0.73570  Biso   1.000  H
  H4       1.0000 0.63120  0.84570  0.76430  Biso   1.000  H
  C5       1.0000 0.46880  0.60230  0.35770  Biso   1.000  C
  C6       1.0000 0.53120  0.10230  0.14230  Biso   1.000  C
  C7       1.0000 0.53120  0.39770  0.64230  Biso   1.000  C
  C8       1.0000 0.46880  0.89770  0.85770  Biso   1.000  C
  H5       1.0000 0.48050  0.56220  0.30060  Biso   1.000  H
  H6       1.0000 0.51950  0.06220  0.19940  Biso   1.000  H
  H7       1.0000 0.51950  0.43780  0.69940  Biso   1.000  H
  H8       1.0000 0.48050  0.93780  0.80060  Biso   1.000  H
  C9       1.0000 0.36200  0.60580  0.46510  Biso   1.000  C
  C10      1.0000 0.63800  0.10580  0.03490  Biso   1.000  C
  C11      1.0000 0.63800  0.39420  0.53490  Biso   1.000  C
  C12      1.0000 0.36200  0.89420  0.96510  Biso   1.000  C
  C13      1.0000 0.34370  0.66710  0.53720  Biso   1.000  C
  C14      1.0000 0.65630  0.16710  0.96280  Biso   1.000  C
  C15      1.0000 0.65630  0.33290  0.46280  Biso   1.000  C
  C16      1.0000 0.34370  0.83290  0.03720  Biso   1.000  C
  H9       1.0000 0.26880  0.67220  0.60720  Biso   1.000  H
  H10      1.0000 0.73120  0.17220  0.89280  Biso   1.000  H
  H11      1.0000 0.73120  0.32780  0.39280  Biso   1.000  H
  H12      1.0000 0.26880  0.82780  0.10720  Biso   1.000  H
  C17      1.0000 0.43450  0.72050  0.50670  Biso   1.000  C
  C18      1.0000 0.56550  0.22050  0.99330  Biso   1.000  C
  C19      1.0000 0.56550  0.27950  0.49330  Biso   1.000  C
  C20      1.0000 0.43450  0.77950  0.00670  Biso   1.000  C
  H13      1.0000 0.41980  0.76220  0.55620  Biso   1.000  H
  H14      1.0000 0.58020  0.26220  0.94380  Biso   1.000  H
  H15      1.0000 0.58020  0.23780  0.44380  Biso   1.000  H
  H16      1.0000 0.41980  0.73780  0.05620  Biso   1.000  H
  C21      1.0000 0.27560  0.54519  0.49900  Biso   1.000  C
  C22      1.0000 0.72440  0.04519  0.00100  Biso   1.000  C
  C23      1.0000 0.72440  0.45481  0.50100  Biso   1.000  C
  C24      1.0000 0.27560  0.95481  0.99900  Biso   1.000  C
  C25      1.0000 0.23370  0.49640  0.38210  Biso   1.000  C
  C26      1.0000 0.76630  0.99640  0.11790  Biso   1.000  C
  C27      1.0000 0.76630  0.50360  0.61790  Biso   1.000  C
  C28      1.0000 0.23370  0.00360  0.88210  Biso   1.000  C
  H17      1.0000 0.25740  0.50370  0.27690  Biso   1.000  H
  H18      1.0000 0.74260  0.00370  0.22310  Biso   1.000  H
  H19      1.0000 0.74260  0.49630  0.72310  Biso   1.000  H
  H20      1.0000 0.25740  0.99630  0.77690  Biso   1.000  H
  N5       1.0000 0.16160  0.43972  0.41060  Biso   1.000  N
  N6       1.0000 0.83840  0.93972  0.08940  Biso   1.000  N
  N7       1.0000 0.83840  0.56028  0.58940  Biso   1.000  N
  N8       1.0000 0.16160  0.06028  0.91060  Biso   1.000  N
  C29      1.0000 0.13040  0.43180  0.56020  Biso   1.000  C
  C30      1.0000 0.86960  0.93180  0.93980  Biso   1.000  C
  C31      1.0000 0.86960  0.56820  0.43980  Biso   1.000  C
  C32      1.0000 0.13040  0.06820  0.06020  Biso   1.000  C
  H21      1.0000 0.08010  0.39150  0.58250  Biso   1.000  H
  H22      1.0000 0.91990  0.89150  0.91750  Biso   1.000  H
  H23      1.0000 0.91990  0.60850  0.41750  Biso   1.000  H
  H24      1.0000 0.08010  0.10850  0.08250  Biso   1.000  H
  N9       1.0000 0.16400  0.47578  0.68130  Biso   1.000  N
  N10      1.0000 0.83600  0.97578  0.81870  Biso   1.000  N
  N11      1.0000 0.83600  0.52422  0.31870  Biso   1.000  N
  N12      1.0000 0.16400  0.02422  0.18130  Biso   1.000  N
  C33      1.0000 0.23780  0.53230  0.64970  Biso   1.000  C
  C34      1.0000 0.76220  0.03230  0.85030  Biso   1.000  C
  C35      1.0000 0.76220  0.46770  0.35030  Biso   1.000  C
  C36      1.0000 0.23780  0.96770  0.14970  Biso   1.000  C
  H25      1.0000 0.26470  0.56420  0.73360  Biso   1.000  H
  H26      1.0000 0.73530  0.06420  0.76640  Biso   1.000  H
  H27      1.0000 0.73530  0.43580  0.26640  Biso   1.000  H
  H28      1.0000 0.26470  0.93580  0.23360  Biso   1.000  H
