data_image0
_cell_length_a       28.567
_cell_length_b       17.56
_cell_length_c       11.512
_cell_angle_alpha    90
_cell_angle_beta     90
_cell_angle_gamma    90

_symmetry_space_group_name_H-M    "P 1"
_symmetry_int_tables_number       1

loop_
  _symmetry_equiv_pos_as_xyz
  'x, y, z'

loop_
  _atom_site_label
  _atom_site_occupancy
  _atom_site_fract_x
  _atom_site_fract_y
  _atom_site_fract_z
  _atom_site_thermal_displace_type
  _atom_site_B_iso_or_equiv
  _atom_site_type_symbol
  Cl1      1.0000 0.22760  0.13360  0.72570  Biso   1.000  Cl
  Cl2      1.0000 0.27240  0.86640  0.22570  Biso   1.000  Cl
  Cl3      1.0000 0.72760  0.36640  0.27430  Biso   1.000  Cl
  Cl4      1.0000 0.77240  0.63360  0.77430  Biso   1.000  Cl
  Cl5      1.0000 0.77240  0.86640  0.27430  Biso   1.000  Cl
  Cl6      1.0000 0.72760  0.13360  0.77430  Biso   1.000  Cl
  Cl7      1.0000 0.27240  0.63360  0.72570  Biso   1.000  Cl
  Cl8      1.0000 0.22760  0.36640  0.22570  Biso   1.000  Cl
  O1       1.0000 0.24940  0.08590  0.64200  Biso   1.000  O
  O2       1.0000 0.25060  0.91410  0.14200  Biso   1.000  O
  O3       1.0000 0.74940  0.41410  0.35800  Biso   1.000  O
  O4       1.0000 0.75060  0.58590  0.85800  Biso   1.000  O
  O5       1.0000 0.75060  0.91410  0.35800  Biso   1.000  O
  O6       1.0000 0.74940  0.08590  0.85800  Biso   1.000  O
  O7       1.0000 0.25060  0.58590  0.64200  Biso   1.000  O
  O8       1.0000 0.24940  0.41410  0.14200  Biso   1.000  O
  O9       1.0000 0.24730  0.11980  0.83700  Biso   1.000  O
  O10      1.0000 0.25270  0.88020  0.33700  Biso   1.000  O
  O11      1.0000 0.74730  0.38020  0.16300  Biso   1.000  O
  O12      1.0000 0.75270  0.61980  0.66300  Biso   1.000  O
  O13      1.0000 0.75270  0.88020  0.16300  Biso   1.000  O
  O14      1.0000 0.74730  0.11980  0.66300  Biso   1.000  O
  O15      1.0000 0.25270  0.61980  0.83700  Biso   1.000  O
  O16      1.0000 0.24730  0.38020  0.33700  Biso   1.000  O
  O17      1.0000 0.23500  0.21070  0.69100  Biso   1.000  O
  O18      1.0000 0.26500  0.78930  0.19100  Biso   1.000  O
  O19      1.0000 0.73500  0.28930  0.30900  Biso   1.000  O
  O20      1.0000 0.76500  0.71070  0.80900  Biso   1.000  O
  O21      1.0000 0.76500  0.78930  0.30900  Biso   1.000  O
  O22      1.0000 0.73500  0.21070  0.80900  Biso   1.000  O
  O23      1.0000 0.26500  0.71070  0.69100  Biso   1.000  O
  O24      1.0000 0.23500  0.28930  0.19100  Biso   1.000  O
  O25      1.0000 0.18110  0.11430  0.73200  Biso   1.000  O
  O26      1.0000 0.31890  0.88570  0.23200  Biso   1.000  O
  O27      1.0000 0.68110  0.38570  0.26800  Biso   1.000  O
  O28      1.0000 0.81890  0.61430  0.76800  Biso   1.000  O
  O29      1.0000 0.81890  0.88570  0.26800  Biso   1.000  O
  O30      1.0000 0.68110  0.11430  0.76800  Biso   1.000  O
  O31      1.0000 0.31890  0.61430  0.73200  Biso   1.000  O
  O32      1.0000 0.18110  0.38570  0.23200  Biso   1.000  O
  Cl9      1.0000 0.46420  0.13130  0.72840  Biso   1.000  Cl
  Cl10     1.0000 0.03580  0.86870  0.22840  Biso   1.000  Cl
  Cl11     1.0000 0.96420  0.36870  0.27160  Biso   1.000  Cl
  Cl12     1.0000 0.53580  0.63130  0.77160  Biso   1.000  Cl
  Cl13     1.0000 0.53580  0.86870  0.27160  Biso   1.000  Cl
  Cl14     1.0000 0.96420  0.13130  0.77160  Biso   1.000  Cl
  Cl15     1.0000 0.03580  0.63130  0.72840  Biso   1.000  Cl
  Cl16     1.0000 0.46420  0.36870  0.22840  Biso   1.000  Cl
  O33      1.0000 0.42940  0.13630  0.81400  Biso   1.000  O
  O34      1.0000 0.07060  0.86370  0.31400  Biso   1.000  O
  O35      1.0000 0.92940  0.36370  0.18600  Biso   1.000  O
  O36      1.0000 0.57060  0.63630  0.68600  Biso   1.000  O
  O37      1.0000 0.57060  0.86370  0.18600  Biso   1.000  O
  O38      1.0000 0.92940  0.13630  0.68600  Biso   1.000  O
  O39      1.0000 0.07060  0.63630  0.81400  Biso   1.000  O
  O40      1.0000 0.42940  0.36370  0.31400  Biso   1.000  O
  O41      1.0000 0.50240  0.08490  0.77300  Biso   1.000  O
  O42      1.0000 0.99760  0.91510  0.27300  Biso   1.000  O
  O43      1.0000 0.00240  0.41510  0.22700  Biso   1.000  O
  O44      1.0000 0.49760  0.58490  0.72700  Biso   1.000  O
  O45      1.0000 0.49760  0.91510  0.22700  Biso   1.000  O
  O46      1.0000 0.00240  0.08490  0.72700  Biso   1.000  O
  O47      1.0000 0.99760  0.58490  0.77300  Biso   1.000  O
  O48      1.0000 0.50240  0.41510  0.27300  Biso   1.000  O
  O49      1.0000 0.47780  0.20320  0.69700  Biso   1.000  O
  O50      1.0000 0.02220  0.79680  0.19700  Biso   1.000  O
  O51      1.0000 0.97780  0.29680  0.30300  Biso   1.000  O
  O52      1.0000 0.52220  0.70320  0.80300  Biso   1.000  O
  O53      1.0000 0.52220  0.79680  0.30300  Biso   1.000  O
  O54      1.0000 0.97780  0.20320  0.80300  Biso   1.000  O
  O55      1.0000 0.02220  0.70320  0.69700  Biso   1.000  O
  O56      1.0000 0.47780  0.29680  0.19700  Biso   1.000  O
  O57      1.0000 0.44300  0.09500  0.63500  Biso   1.000  O
  O58      1.0000 0.05700  0.90500  0.13500  Biso   1.000  O
  O59      1.0000 0.94300  0.40500  0.36500  Biso   1.000  O
  O60      1.0000 0.55700  0.59500  0.86500  Biso   1.000  O
  O61      1.0000 0.55700  0.90500  0.36500  Biso   1.000  O
  O62      1.0000 0.94300  0.09500  0.86500  Biso   1.000  O
  O63      1.0000 0.05700  0.59500  0.63500  Biso   1.000  O
  O64      1.0000 0.44300  0.40500  0.13500  Biso   1.000  O
  Cu1      1.0000 0.57288  0.13950  0.09870  Biso   1.000  Cu
  Cu2      1.0000 0.92712  0.86050  0.59870  Biso   1.000  Cu
  Cu3      1.0000 0.07288  0.36050  0.90130  Biso   1.000  Cu
  Cu4      1.0000 0.42712  0.63950  0.40130  Biso   1.000  Cu
  Cu5      1.0000 0.42712  0.86050  0.90130  Biso   1.000  Cu
  Cu6      1.0000 0.07288  0.13950  0.40130  Biso   1.000  Cu
  Cu7      1.0000 0.92712  0.63950  0.09870  Biso   1.000  Cu
  Cu8      1.0000 0.57288  0.36050  0.59870  Biso   1.000  Cu
  Cu9      1.0000 0.81595  0.14880  0.12520  Biso   1.000  Cu
  Cu10     1.0000 0.68405  0.85120  0.62520  Biso   1.000  Cu
  Cu11     1.0000 0.31595  0.35120  0.87480  Biso   1.000  Cu
  Cu12     1.0000 0.18405  0.64880  0.37480  Biso   1.000  Cu
  Cu13     1.0000 0.18405  0.85120  0.87480  Biso   1.000  Cu
  Cu14     1.0000 0.31595  0.14880  0.37480  Biso   1.000  Cu
  Cu15     1.0000 0.68405  0.64880  0.12520  Biso   1.000  Cu
  Cu16     1.0000 0.81595  0.35120  0.62520  Biso   1.000  Cu
  Cl17     1.0000 0.64310  0.99150  0.18370  Biso   1.000  Cl
  Cl18     1.0000 0.85690  0.00850  0.68370  Biso   1.000  Cl
  Cl19     1.0000 0.14310  0.50850  0.81630  Biso   1.000  Cl
  Cl20     1.0000 0.35690  0.49150  0.31630  Biso   1.000  Cl
  Cl21     1.0000 0.35690  0.00850  0.81630  Biso   1.000  Cl
  Cl22     1.0000 0.14310  0.99150  0.31630  Biso   1.000  Cl
  Cl23     1.0000 0.85690  0.49150  0.18370  Biso   1.000  Cl
  Cl24     1.0000 0.64310  0.50850  0.68370  Biso   1.000  Cl
  Cl25     1.0000 0.82140  0.86080  0.90920  Biso   1.000  Cl
  Cl26     1.0000 0.67860  0.13920  0.40920  Biso   1.000  Cl
  Cl27     1.0000 0.32140  0.63920  0.09080  Biso   1.000  Cl
  Cl28     1.0000 0.17860  0.36080  0.59080  Biso   1.000  Cl
  Cl29     1.0000 0.17860  0.13920  0.09080  Biso   1.000  Cl
  Cl30     1.0000 0.32140  0.86080  0.59080  Biso   1.000  Cl
  Cl31     1.0000 0.67860  0.36080  0.90920  Biso   1.000  Cl
  Cl32     1.0000 0.82140  0.63920  0.40920  Biso   1.000  Cl
  Cl33     1.0000 0.80490  0.06720  0.38170  Biso   1.000  Cl
  Cl34     1.0000 0.69510  0.93280  0.88170  Biso   1.000  Cl
  Cl35     1.0000 0.30490  0.43280  0.61830  Biso   1.000  Cl
  Cl36     1.0000 0.19510  0.56720  0.11830  Biso   1.000  Cl
  Cl37     1.0000 0.19510  0.93280  0.61830  Biso   1.000  Cl
  Cl38     1.0000 0.30490  0.06720  0.11830  Biso   1.000  Cl
  Cl39     1.0000 0.69510  0.56720  0.38170  Biso   1.000  Cl
  Cl40     1.0000 0.80490  0.43280  0.88170  Biso   1.000  Cl
  N1       1.0000 0.64750  0.12690  0.09500  Biso   1.000  N
  N2       1.0000 0.85250  0.87310  0.59500  Biso   1.000  N
  N3       1.0000 0.14750  0.37310  0.90500  Biso   1.000  N
  N4       1.0000 0.35250  0.62690  0.40500  Biso   1.000  N
  N5       1.0000 0.35250  0.87310  0.90500  Biso   1.000  N
  N6       1.0000 0.14750  0.12690  0.40500  Biso   1.000  N
  N7       1.0000 0.85250  0.62690  0.09500  Biso   1.000  N
  N8       1.0000 0.64750  0.37310  0.59500  Biso   1.000  N
  N9       1.0000 0.74460  0.13570  0.12000  Biso   1.000  N
  N10      1.0000 0.75540  0.86430  0.62000  Biso   1.000  N
  N11      1.0000 0.24460  0.36430  0.88000  Biso   1.000  N
  N12      1.0000 0.25540  0.63570  0.38000  Biso   1.000  N
  N13      1.0000 0.25540  0.86430  0.88000  Biso   1.000  N
  N14      1.0000 0.24460  0.13570  0.38000  Biso   1.000  N
  N15      1.0000 0.75540  0.63570  0.12000  Biso   1.000  N
  N16      1.0000 0.74460  0.36430  0.62000  Biso   1.000  N
  N17      1.0000 0.84730  0.04760  0.08200  Biso   1.000  N
  N18      1.0000 0.65270  0.95240  0.58200  Biso   1.000  N
  N19      1.0000 0.34730  0.45240  0.91800  Biso   1.000  N
  N20      1.0000 0.15270  0.54760  0.41800  Biso   1.000  N
  N21      1.0000 0.15270  0.95240  0.91800  Biso   1.000  N
  N22      1.0000 0.34730  0.04760  0.41800  Biso   1.000  N
  N23      1.0000 0.65270  0.54760  0.08200  Biso   1.000  N
  N24      1.0000 0.84730  0.45240  0.58200  Biso   1.000  N
  N25      1.0000 0.88780  0.90680  0.04200  Biso   1.000  N
  N26      1.0000 0.61220  0.09320  0.54200  Biso   1.000  N
  N27      1.0000 0.38780  0.59320  0.95800  Biso   1.000  N
  N28      1.0000 0.11220  0.40680  0.45800  Biso   1.000  N
  N29      1.0000 0.11220  0.09320  0.95800  Biso   1.000  N
  N30      1.0000 0.38780  0.90680  0.45800  Biso   1.000  N
  N31      1.0000 0.61220  0.40680  0.04200  Biso   1.000  N
  N32      1.0000 0.88780  0.59320  0.54200  Biso   1.000  N
  N33      1.0000 0.83430  0.19100  0.28500  Biso   1.000  N
  N34      1.0000 0.66570  0.80900  0.78500  Biso   1.000  N
  N35      1.0000 0.33430  0.30900  0.71500  Biso   1.000  N
  N36      1.0000 0.16570  0.69100  0.21500  Biso   1.000  N
  N37      1.0000 0.16570  0.80900  0.71500  Biso   1.000  N
  N38      1.0000 0.33430  0.19100  0.21500  Biso   1.000  N
  N39      1.0000 0.66570  0.69100  0.28500  Biso   1.000  N
  N40      1.0000 0.83430  0.30900  0.78500  Biso   1.000  N
  N41      1.0000 0.83260  0.27640  0.49100  Biso   1.000  N
  N42      1.0000 0.66740  0.72360  0.99100  Biso   1.000  N
  N43      1.0000 0.33260  0.22360  0.50900  Biso   1.000  N
  N44      1.0000 0.16740  0.77640  0.00900  Biso   1.000  N
  N45      1.0000 0.16740  0.72360  0.50900  Biso   1.000  N
  N46      1.0000 0.33260  0.27640  0.00900  Biso   1.000  N
  N47      1.0000 0.66740  0.77640  0.49100  Biso   1.000  N
  N48      1.0000 0.83260  0.22360  0.99100  Biso   1.000  N
  C1       1.0000 0.67250  0.07140  0.13600  Biso   1.000  C
  C2       1.0000 0.82750  0.92860  0.63600  Biso   1.000  C
  C3       1.0000 0.17250  0.42860  0.86400  Biso   1.000  C
  C4       1.0000 0.32750  0.57140  0.36400  Biso   1.000  C
  C5       1.0000 0.32750  0.92860  0.86400  Biso   1.000  C
  C6       1.0000 0.17250  0.07140  0.36400  Biso   1.000  C
  C7       1.0000 0.82750  0.57140  0.13600  Biso   1.000  C
  C8       1.0000 0.67250  0.42860  0.63600  Biso   1.000  C
  C9       1.0000 0.72100  0.07280  0.14800  Biso   1.000  C
  C10      1.0000 0.77900  0.92720  0.64800  Biso   1.000  C
  C11      1.0000 0.22100  0.42720  0.85200  Biso   1.000  C
  C12      1.0000 0.27900  0.57280  0.35200  Biso   1.000  C
  C13      1.0000 0.27900  0.92720  0.85200  Biso   1.000  C
  C14      1.0000 0.22100  0.07280  0.35200  Biso   1.000  C
  C15      1.0000 0.77900  0.57280  0.14800  Biso   1.000  C
  C16      1.0000 0.72100  0.42720  0.64800  Biso   1.000  C
  C17      1.0000 0.71900  0.19490  0.07800  Biso   1.000  C
  C18      1.0000 0.78100  0.80510  0.57800  Biso   1.000  C
  C19      1.0000 0.21900  0.30510  0.92200  Biso   1.000  C
  C20      1.0000 0.28100  0.69490  0.42200  Biso   1.000  C
  C21      1.0000 0.28100  0.80510  0.92200  Biso   1.000  C
  C22      1.0000 0.21900  0.19490  0.42200  Biso   1.000  C
  C23      1.0000 0.78100  0.69490  0.07800  Biso   1.000  C
  C24      1.0000 0.71900  0.30510  0.57800  Biso   1.000  C
  C25      1.0000 0.67120  0.18800  0.06500  Biso   1.000  C
  C26      1.0000 0.82880  0.81200  0.56500  Biso   1.000  C
  C27      1.0000 0.17120  0.31200  0.93500  Biso   1.000  C
  C28      1.0000 0.32880  0.68800  0.43500  Biso   1.000  C
  C29      1.0000 0.32880  0.81200  0.93500  Biso   1.000  C
  C30      1.0000 0.17120  0.18800  0.43500  Biso   1.000  C
  C31      1.0000 0.82880  0.68800  0.06500  Biso   1.000  C
  C32      1.0000 0.67120  0.31200  0.56500  Biso   1.000  C
  C33      1.0000 0.82720  0.99680  0.01600  Biso   1.000  C
  C34      1.0000 0.67280  0.00320  0.51600  Biso   1.000  C
  C35      1.0000 0.32720  0.50320  0.98400  Biso   1.000  C
  C36      1.0000 0.17280  0.49680  0.48400  Biso   1.000  C
  C37      1.0000 0.17280  0.00320  0.98400  Biso   1.000  C
  C38      1.0000 0.32720  0.99680  0.48400  Biso   1.000  C
  C39      1.0000 0.67280  0.49680  0.01600  Biso   1.000  C
  C40      1.0000 0.82720  0.50320  0.51600  Biso   1.000  C
  C41      1.0000 0.84760  0.92680  0.99800  Biso   1.000  C
  C42      1.0000 0.65240  0.07320  0.49800  Biso   1.000  C
  C43      1.0000 0.34760  0.57320  0.00200  Biso   1.000  C
  C44      1.0000 0.15240  0.42680  0.50200  Biso   1.000  C
  C45      1.0000 0.15240  0.07320  0.00200  Biso   1.000  C
  C46      1.0000 0.34760  0.92680  0.50200  Biso   1.000  C
  C47      1.0000 0.65240  0.42680  0.99800  Biso   1.000  C
  C48      1.0000 0.84760  0.57320  0.49800  Biso   1.000  C
  C49      1.0000 0.90780  0.95700  0.10700  Biso   1.000  C
  C50      1.0000 0.59220  0.04300  0.60700  Biso   1.000  C
  C51      1.0000 0.40780  0.54300  0.89300  Biso   1.000  C
  C52      1.0000 0.09220  0.45700  0.39300  Biso   1.000  C
  C53      1.0000 0.09220  0.04300  0.89300  Biso   1.000  C
  C54      1.0000 0.40780  0.95700  0.39300  Biso   1.000  C
  C55      1.0000 0.59220  0.45700  0.10700  Biso   1.000  C
  C56      1.0000 0.90780  0.54300  0.60700  Biso   1.000  C
  C57      1.0000 0.88780  0.02900  0.13000  Biso   1.000  C
  C58      1.0000 0.61220  0.97100  0.63000  Biso   1.000  C
  C59      1.0000 0.38780  0.47100  0.87000  Biso   1.000  C
  C60      1.0000 0.11220  0.52900  0.37000  Biso   1.000  C
  C61      1.0000 0.11220  0.97100  0.87000  Biso   1.000  C
  C62      1.0000 0.38780  0.02900  0.37000  Biso   1.000  C
  C63      1.0000 0.61220  0.52900  0.13000  Biso   1.000  C
  C64      1.0000 0.88780  0.47100  0.63000  Biso   1.000  C
  C65      1.0000 0.82080  0.16250  0.38400  Biso   1.000  C
  C66      1.0000 0.67920  0.83750  0.88400  Biso   1.000  C
  C67      1.0000 0.32080  0.33750  0.61600  Biso   1.000  C
  C68      1.0000 0.17920  0.66250  0.11600  Biso   1.000  C
  C69      1.0000 0.17920  0.83750  0.61600  Biso   1.000  C
  C70      1.0000 0.32080  0.16250  0.11600  Biso   1.000  C
  C71      1.0000 0.67920  0.66250  0.38400  Biso   1.000  C
  C72      1.0000 0.82080  0.33750  0.88400  Biso   1.000  C
  C73      1.0000 0.81990  0.20180  0.48500  Biso   1.000  C
  C74      1.0000 0.68010  0.79820  0.98500  Biso   1.000  C
  C75      1.0000 0.31990  0.29820  0.51500  Biso   1.000  C
  C76      1.0000 0.18010  0.70180  0.01500  Biso   1.000  C
  C77      1.0000 0.18010  0.79820  0.51500  Biso   1.000  C
  C78      1.0000 0.31990  0.20180  0.01500  Biso   1.000  C
  C79      1.0000 0.68010  0.70180  0.48500  Biso   1.000  C
  C80      1.0000 0.81990  0.29820  0.98500  Biso   1.000  C
  C81      1.0000 0.84940  0.30420  0.39300  Biso   1.000  C
  C82      1.0000 0.65060  0.69580  0.89300  Biso   1.000  C
  C83      1.0000 0.34940  0.19580  0.60700  Biso   1.000  C
  C84      1.0000 0.15060  0.80420  0.10700  Biso   1.000  C
  C85      1.0000 0.15060  0.69580  0.60700  Biso   1.000  C
  C86      1.0000 0.34940  0.30420  0.10700  Biso   1.000  C
  C87      1.0000 0.65060  0.80420  0.39300  Biso   1.000  C
  C88      1.0000 0.84940  0.19580  0.89300  Biso   1.000  C
  C89      1.0000 0.85000  0.26350  0.29100  Biso   1.000  C
  C90      1.0000 0.65000  0.73650  0.79100  Biso   1.000  C
  C91      1.0000 0.35000  0.23650  0.70900  Biso   1.000  C
  C92      1.0000 0.15000  0.76350  0.20900  Biso   1.000  C
  C93      1.0000 0.15000  0.73650  0.70900  Biso   1.000  C
  C94      1.0000 0.35000  0.26350  0.20900  Biso   1.000  C
  C95      1.0000 0.65000  0.76350  0.29100  Biso   1.000  C
  C96      1.0000 0.85000  0.23650  0.79100  Biso   1.000  C
  H1       1.0000 0.73760  0.02800  0.17950  Biso   1.000  H
  H2       1.0000 0.76240  0.97200  0.67950  Biso   1.000  H
  H3       1.0000 0.23760  0.47200  0.82050  Biso   1.000  H
  H4       1.0000 0.26240  0.52800  0.32050  Biso   1.000  H
  H5       1.0000 0.26240  0.97200  0.82050  Biso   1.000  H
  H6       1.0000 0.23760  0.02800  0.32050  Biso   1.000  H
  H7       1.0000 0.76240  0.52800  0.17950  Biso   1.000  H
  H8       1.0000 0.73760  0.47200  0.67950  Biso   1.000  H
  H9       1.0000 0.73420  0.24290  0.05750  Biso   1.000  H
  H10      1.0000 0.76580  0.75710  0.55750  Biso   1.000  H
  H11      1.0000 0.23420  0.25710  0.94250  Biso   1.000  H
  H12      1.0000 0.26580  0.74290  0.44250  Biso   1.000  H
  H13      1.0000 0.26580  0.75710  0.94250  Biso   1.000  H
  H14      1.0000 0.23420  0.24290  0.44250  Biso   1.000  H
  H15      1.0000 0.76580  0.74290  0.05750  Biso   1.000  H
  H16      1.0000 0.73420  0.25710  0.55750  Biso   1.000  H
  H17      1.0000 0.65400  0.23110  0.03220  Biso   1.000  H
  H18      1.0000 0.84600  0.76890  0.53220  Biso   1.000  H
  H19      1.0000 0.15400  0.26890  0.96780  Biso   1.000  H
  H20      1.0000 0.34600  0.73110  0.46780  Biso   1.000  H
  H21      1.0000 0.34600  0.76890  0.96780  Biso   1.000  H
  H22      1.0000 0.15400  0.23110  0.46780  Biso   1.000  H
  H23      1.0000 0.84600  0.73110  0.03220  Biso   1.000  H
  H24      1.0000 0.65400  0.26890  0.53220  Biso   1.000  H
  H25      1.0000 0.79750  0.00840  0.97860  Biso   1.000  H
  H26      1.0000 0.70250  0.99160  0.47860  Biso   1.000  H
  H27      1.0000 0.29750  0.49160  0.02140  Biso   1.000  H
  H28      1.0000 0.20250  0.50840  0.52140  Biso   1.000  H
  H29      1.0000 0.20250  0.99160  0.02140  Biso   1.000  H
  H30      1.0000 0.29750  0.00840  0.52140  Biso   1.000  H
  H31      1.0000 0.70250  0.50840  0.97860  Biso   1.000  H
  H32      1.0000 0.79750  0.49160  0.47860  Biso   1.000  H
  H33      1.0000 0.93830  0.94720  0.14520  Biso   1.000  H
  H34      1.0000 0.56170  0.05280  0.64520  Biso   1.000  H
  H35      1.0000 0.43830  0.55280  0.85480  Biso   1.000  H
  H36      1.0000 0.06170  0.44720  0.35480  Biso   1.000  H
  H37      1.0000 0.06170  0.05280  0.85480  Biso   1.000  H
  H38      1.0000 0.43830  0.94720  0.35480  Biso   1.000  H
  H39      1.0000 0.56170  0.44720  0.14520  Biso   1.000  H
  H40      1.0000 0.93830  0.55280  0.64520  Biso   1.000  H
  H41      1.0000 0.90400  0.06630  0.17980  Biso   1.000  H
  H42      1.0000 0.59600  0.93370  0.67980  Biso   1.000  H
  H43      1.0000 0.40400  0.43370  0.82020  Biso   1.000  H
  H44      1.0000 0.09600  0.56630  0.32020  Biso   1.000  H
  H45      1.0000 0.09600  0.93370  0.82020  Biso   1.000  H
  H46      1.0000 0.40400  0.06630  0.32020  Biso   1.000  H
  H47      1.0000 0.59600  0.56630  0.17980  Biso   1.000  H
  H48      1.0000 0.90400  0.43370  0.67980  Biso   1.000  H
  H49      1.0000 0.80980  0.17530  0.55620  Biso   1.000  H
  H50      1.0000 0.69020  0.82470  0.05620  Biso   1.000  H
  H51      1.0000 0.30980  0.32470  0.44380  Biso   1.000  H
  H52      1.0000 0.19020  0.67530  0.94380  Biso   1.000  H
  H53      1.0000 0.19020  0.82470  0.44380  Biso   1.000  H
  H54      1.0000 0.30980  0.17530  0.94380  Biso   1.000  H
  H55      1.0000 0.69020  0.67530  0.55620  Biso   1.000  H
  H56      1.0000 0.80980  0.32470  0.05620  Biso   1.000  H
  H57      1.0000 0.86220  0.35590  0.39410  Biso   1.000  H
  H58      1.0000 0.63780  0.64410  0.89410  Biso   1.000  H
  H59      1.0000 0.36220  0.14410  0.60590  Biso   1.000  H
  H60      1.0000 0.13780  0.85590  0.10590  Biso   1.000  H
  H61      1.0000 0.13780  0.64410  0.60590  Biso   1.000  H
  H62      1.0000 0.36220  0.35590  0.10590  Biso   1.000  H
  H63      1.0000 0.63780  0.85590  0.39410  Biso   1.000  H
  H64      1.0000 0.86220  0.14410  0.89410  Biso   1.000  H
  H65      1.0000 0.86250  0.28740  0.22120  Biso   1.000  H
  H66      1.0000 0.63750  0.71260  0.72120  Biso   1.000  H
  H67      1.0000 0.36250  0.21260  0.77880  Biso   1.000  H
  H68      1.0000 0.13750  0.78740  0.27880  Biso   1.000  H
  H69      1.0000 0.13750  0.71260  0.77880  Biso   1.000  H
  H70      1.0000 0.36250  0.28740  0.27880  Biso   1.000  H
  H71      1.0000 0.63750  0.78740  0.22120  Biso   1.000  H
  H72      1.0000 0.86250  0.21260  0.72120  Biso   1.000  H
  Cl41     1.0000 0.52080  0.08870  0.34540  Biso   1.000  Cl
  Cl42     1.0000 0.97920  0.91130  0.84540  Biso   1.000  Cl
  Cl43     1.0000 0.02080  0.41130  0.65460  Biso   1.000  Cl
  Cl44     1.0000 0.47920  0.58870  0.15460  Biso   1.000  Cl
  Cl45     1.0000 0.47920  0.91130  0.65460  Biso   1.000  Cl
  Cl46     1.0000 0.02080  0.08870  0.15460  Biso   1.000  Cl
  Cl47     1.0000 0.97920  0.58870  0.34540  Biso   1.000  Cl
  Cl48     1.0000 0.52080  0.41130  0.84540  Biso   1.000  Cl
  N49      1.0000 0.56690  0.19910  0.24800  Biso   1.000  N
  N50      1.0000 0.93310  0.80090  0.74800  Biso   1.000  N
  N51      1.0000 0.06690  0.30090  0.75200  Biso   1.000  N
  N52      1.0000 0.43310  0.69910  0.25200  Biso   1.000  N
  N53      1.0000 0.43310  0.80090  0.75200  Biso   1.000  N
  N54      1.0000 0.06690  0.19910  0.25200  Biso   1.000  N
  N55      1.0000 0.93310  0.69910  0.24800  Biso   1.000  N
  N56      1.0000 0.56690  0.30090  0.74800  Biso   1.000  N
  N57      1.0000 0.56690  0.28740  0.45200  Biso   1.000  N
  N58      1.0000 0.93310  0.71260  0.95200  Biso   1.000  N
  N59      1.0000 0.06690  0.21260  0.54800  Biso   1.000  N
  N60      1.0000 0.43310  0.78740  0.04800  Biso   1.000  N
  N61      1.0000 0.43310  0.71260  0.54800  Biso   1.000  N
  N62      1.0000 0.06690  0.28740  0.04800  Biso   1.000  N
  N63      1.0000 0.93310  0.78740  0.45200  Biso   1.000  N
  N64      1.0000 0.56690  0.21260  0.95200  Biso   1.000  N
  C97      1.0000 0.54580  0.17820  0.34600  Biso   1.000  C
  C98      1.0000 0.95420  0.82180  0.84600  Biso   1.000  C
  C99      1.0000 0.04580  0.32180  0.65400  Biso   1.000  C
  C100     1.0000 0.45420  0.67820  0.15400  Biso   1.000  C
  C101     1.0000 0.45420  0.82180  0.65400  Biso   1.000  C
  C102     1.0000 0.04580  0.17820  0.15400  Biso   1.000  C
  C103     1.0000 0.95420  0.67820  0.34600  Biso   1.000  C
  C104     1.0000 0.54580  0.32180  0.84600  Biso   1.000  C
  C105     1.0000 0.54400  0.21970  0.44400  Biso   1.000  C
  C106     1.0000 0.95600  0.78030  0.94400  Biso   1.000  C
  C107     1.0000 0.04400  0.28030  0.55600  Biso   1.000  C
  C108     1.0000 0.45600  0.71970  0.05600  Biso   1.000  C
  C109     1.0000 0.45600  0.78030  0.55600  Biso   1.000  C
  C110     1.0000 0.04400  0.21970  0.05600  Biso   1.000  C
  C111     1.0000 0.95600  0.71970  0.44400  Biso   1.000  C
  C112     1.0000 0.54400  0.28030  0.94400  Biso   1.000  C
  C113     1.0000 0.58810  0.30960  0.35600  Biso   1.000  C
  C114     1.0000 0.91190  0.69040  0.85600  Biso   1.000  C
  C115     1.0000 0.08810  0.19040  0.64400  Biso   1.000  C
  C116     1.0000 0.41190  0.80960  0.14400  Biso   1.000  C
  C117     1.0000 0.41190  0.69040  0.64400  Biso   1.000  C
  C118     1.0000 0.08810  0.30960  0.14400  Biso   1.000  C
  C119     1.0000 0.91190  0.80960  0.35600  Biso   1.000  C
  C120     1.0000 0.58810  0.19040  0.85600  Biso   1.000  C
  C121     1.0000 0.58760  0.26780  0.25700  Biso   1.000  C
  C122     1.0000 0.91240  0.73220  0.75700  Biso   1.000  C
  C123     1.0000 0.08760  0.23220  0.74300  Biso   1.000  C
  C124     1.0000 0.41240  0.76780  0.24300  Biso   1.000  C
  C125     1.0000 0.41240  0.73220  0.74300  Biso   1.000  C
  C126     1.0000 0.08760  0.26780  0.24300  Biso   1.000  C
  C127     1.0000 0.91240  0.76780  0.25700  Biso   1.000  C
  C128     1.0000 0.58760  0.23220  0.75700  Biso   1.000  C
  H73      1.0000 0.52660  0.20070  0.51220  Biso   1.000  H
  H74      1.0000 0.97340  0.79930  0.01220  Biso   1.000  H
  H75      1.0000 0.02660  0.29930  0.48780  Biso   1.000  H
  H76      1.0000 0.47340  0.70070  0.98780  Biso   1.000  H
  H77      1.0000 0.47340  0.79930  0.48780  Biso   1.000  H
  H78      1.0000 0.02660  0.20070  0.98780  Biso   1.000  H
  H79      1.0000 0.97340  0.70070  0.51220  Biso   1.000  H
  H80      1.0000 0.52660  0.29930  0.01220  Biso   1.000  H
  H81      1.0000 0.60590  0.35780  0.35720  Biso   1.000  H
  H82      1.0000 0.89410  0.64220  0.85720  Biso   1.000  H
  H83      1.0000 0.10590  0.14220  0.64280  Biso   1.000  H
  H84      1.0000 0.39410  0.85780  0.14280  Biso   1.000  H
  H85      1.0000 0.39410  0.64220  0.64280  Biso   1.000  H
  H86      1.0000 0.10590  0.35780  0.14280  Biso   1.000  H
  H87      1.0000 0.89410  0.85780  0.35720  Biso   1.000  H
  H88      1.0000 0.60590  0.14220  0.85720  Biso   1.000  H
  H89      1.0000 0.60290  0.28860  0.18760  Biso   1.000  H
  H90      1.0000 0.89710  0.71140  0.68760  Biso   1.000  H
  H91      1.0000 0.10290  0.21140  0.81240  Biso   1.000  H
  H92      1.0000 0.39710  0.78860  0.31240  Biso   1.000  H
  H93      1.0000 0.39710  0.71140  0.81240  Biso   1.000  H
  H94      1.0000 0.10290  0.28860  0.31240  Biso   1.000  H
  H95      1.0000 0.89710  0.78860  0.18760  Biso   1.000  H
  H96      1.0000 0.60290  0.21140  0.68760  Biso   1.000  H
  Cl49     1.0000 0.46000  0.14590  0.10120  Biso   1.000  Cl
  Cl50     1.0000 0.04000  0.85410  0.60120  Biso   1.000  Cl
  Cl51     1.0000 0.96000  0.35410  0.89880  Biso   1.000  Cl
  Cl52     1.0000 0.54000  0.64590  0.39880  Biso   1.000  Cl
  Cl53     1.0000 0.54000  0.85410  0.89880  Biso   1.000  Cl
  Cl54     1.0000 0.96000  0.14590  0.39880  Biso   1.000  Cl
  Cl55     1.0000 0.04000  0.64590  0.10120  Biso   1.000  Cl
  Cl56     1.0000 0.46000  0.35410  0.60120  Biso   1.000  Cl
  N65      1.0000 0.53060  0.05460  0.04600  Biso   1.000  N
  N66      1.0000 0.96940  0.94540  0.54600  Biso   1.000  N
  N67      1.0000 0.03060  0.44540  0.95400  Biso   1.000  N
  N68      1.0000 0.46940  0.55460  0.45400  Biso   1.000  N
  N69      1.0000 0.46940  0.94540  0.95400  Biso   1.000  N
  N70      1.0000 0.03060  0.05460  0.45400  Biso   1.000  N
  N71      1.0000 0.96940  0.55460  0.04600  Biso   1.000  N
  N72      1.0000 0.53060  0.44540  0.54600  Biso   1.000  N
  C129     1.0000 0.48530  0.06350  0.04700  Biso   1.000  C
  C130     1.0000 0.01470  0.93650  0.54700  Biso   1.000  C
  C131     1.0000 0.98530  0.43650  0.95300  Biso   1.000  C
  C132     1.0000 0.51470  0.56350  0.45300  Biso   1.000  C
  C133     1.0000 0.51470  0.93650  0.95300  Biso   1.000  C
  C134     1.0000 0.98530  0.06350  0.45300  Biso   1.000  C
  C135     1.0000 0.01470  0.56350  0.04700  Biso   1.000  C
  C136     1.0000 0.48530  0.43650  0.54700  Biso   1.000  C
  C137     1.0000 0.54580  0.99000  0.99600  Biso   1.000  C
  C138     1.0000 0.95420  0.01000  0.49600  Biso   1.000  C
  C139     1.0000 0.04580  0.51000  0.00400  Biso   1.000  C
  C140     1.0000 0.45420  0.49000  0.50400  Biso   1.000  C
  C141     1.0000 0.45420  0.01000  0.00400  Biso   1.000  C
  C142     1.0000 0.04580  0.99000  0.50400  Biso   1.000  C
  C143     1.0000 0.95420  0.49000  0.99600  Biso   1.000  C
  C144     1.0000 0.54580  0.51000  0.49600  Biso   1.000  C
  H97      1.0000 0.58040  0.98940  0.99980  Biso   1.000  H
  H98      1.0000 0.91960  0.01060  0.49980  Biso   1.000  H
  H99      1.0000 0.08040  0.51060  0.00020  Biso   1.000  H
  H100     1.0000 0.41960  0.48940  0.50020  Biso   1.000  H
  H101     1.0000 0.41960  0.01060  0.00020  Biso   1.000  H
  H102     1.0000 0.08040  0.98940  0.50020  Biso   1.000  H
  H103     1.0000 0.91960  0.48940  0.99980  Biso   1.000  H
  H104     1.0000 0.58040  0.51060  0.49980  Biso   1.000  H
