data_image0
_cell_length_a       15.52
_cell_length_b       19.315
_cell_length_c       11.856
_cell_angle_alpha    90
_cell_angle_beta     110.82
_cell_angle_gamma    90

_symmetry_space_group_name_H-M    "P 1"
_symmetry_int_tables_number       1

loop_
  _symmetry_equiv_pos_as_xyz
  'x, y, z'

loop_
  _atom_site_label
  _atom_site_occupancy
  _atom_site_fract_x
  _atom_site_fract_y
  _atom_site_fract_z
  _atom_site_thermal_displace_type
  _atom_site_B_iso_or_equiv
  _atom_site_type_symbol
  Cu1      1.0000 0.20070  0.06555  0.28380  Biso   1.000  Cu
  Cu2      1.0000 0.29930  0.56555  0.71620  Biso   1.000  Cu
  Cu3      1.0000 0.79930  0.93445  0.71620  Biso   1.000  Cu
  Cu4      1.0000 0.70070  0.43445  0.28380  Biso   1.000  Cu
  Cu5      1.0000 0.23420  0.90405  0.80000  Biso   1.000  Cu
  Cu6      1.0000 0.26580  0.40405  0.20000  Biso   1.000  Cu
  Cu7      1.0000 0.76580  0.09595  0.20000  Biso   1.000  Cu
  Cu8      1.0000 0.73420  0.59595  0.80000  Biso   1.000  Cu
  N1       1.0000 0.19950  0.02010  0.13260  Biso   1.000  N
  N2       1.0000 0.30050  0.52010  0.86740  Biso   1.000  N
  N3       1.0000 0.80050  0.97990  0.86740  Biso   1.000  N
  N4       1.0000 0.69950  0.47990  0.13260  Biso   1.000  N
  N5       1.0000 0.21650  0.95320  0.93490  Biso   1.000  N
  N6       1.0000 0.28350  0.45320  0.06510  Biso   1.000  N
  N7       1.0000 0.78350  0.04680  0.06510  Biso   1.000  N
  N8       1.0000 0.71650  0.54680  0.93490  Biso   1.000  N
  N9       1.0000 0.21360  0.02360  0.43850  Biso   1.000  N
  N10      1.0000 0.28640  0.52360  0.56150  Biso   1.000  N
  N11      1.0000 0.78640  0.97640  0.56150  Biso   1.000  N
  N12      1.0000 0.71360  0.47640  0.43850  Biso   1.000  N
  N13      1.0000 0.23070  0.95920  0.65370  Biso   1.000  N
  N14      1.0000 0.26930  0.45920  0.34630  Biso   1.000  N
  N15      1.0000 0.76930  0.04080  0.34630  Biso   1.000  N
  N16      1.0000 0.73070  0.54080  0.65370  Biso   1.000  N
  N17      1.0000 0.21090  0.16730  0.25870  Biso   1.000  N
  N18      1.0000 0.28910  0.66730  0.74130  Biso   1.000  N
  N19      1.0000 0.78910  0.83270  0.74130  Biso   1.000  N
  N20      1.0000 0.71090  0.33270  0.25870  Biso   1.000  N
  N21      1.0000 0.24690  0.30430  0.22130  Biso   1.000  N
  N22      1.0000 0.25310  0.80430  0.77870  Biso   1.000  N
  N23      1.0000 0.75310  0.69570  0.77870  Biso   1.000  N
  N24      1.0000 0.74690  0.19570  0.22130  Biso   1.000  N
  C1       1.0000 0.14160  0.97270  0.07400  Biso   1.000  C
  C2       1.0000 0.35840  0.47270  0.92600  Biso   1.000  C
  C3       1.0000 0.85840  0.02730  0.92600  Biso   1.000  C
  C4       1.0000 0.64160  0.52730  0.07400  Biso   1.000  C
  C5       1.0000 0.14820  0.93760  0.97300  Biso   1.000  C
  C6       1.0000 0.35180  0.43760  0.02700  Biso   1.000  C
  C7       1.0000 0.85180  0.06240  0.02700  Biso   1.000  C
  C8       1.0000 0.64820  0.56240  0.97300  Biso   1.000  C
  C9       1.0000 0.27570  0.00430  0.99300  Biso   1.000  C
  C10      1.0000 0.22430  0.50430  0.00700  Biso   1.000  C
  C11      1.0000 0.72430  0.99570  0.00700  Biso   1.000  C
  C12      1.0000 0.77570  0.49570  0.99300  Biso   1.000  C
  C13      1.0000 0.26580  0.03730  0.09100  Biso   1.000  C
  C14      1.0000 0.23420  0.53730  0.90900  Biso   1.000  C
  C15      1.0000 0.73420  0.96270  0.90900  Biso   1.000  C
  C16      1.0000 0.76580  0.46270  0.09100  Biso   1.000  C
  C17      1.0000 0.08100  0.88440  0.91200  Biso   1.000  C
  C18      1.0000 0.41900  0.38440  0.08800  Biso   1.000  C
  C19      1.0000 0.91900  0.11560  0.08800  Biso   1.000  C
  C20      1.0000 0.58100  0.61560  0.91200  Biso   1.000  C
  C21      1.0000 0.35000  0.02320  0.94700  Biso   1.000  C
  C22      1.0000 0.15000  0.52320  0.05300  Biso   1.000  C
  C23      1.0000 0.65000  0.97680  0.05300  Biso   1.000  C
  C24      1.0000 0.85000  0.47680  0.94700  Biso   1.000  C
  C25      1.0000 0.15480  0.03970  0.49500  Biso   1.000  C
  C26      1.0000 0.34520  0.53970  0.50500  Biso   1.000  C
  C27      1.0000 0.84520  0.96030  0.50500  Biso   1.000  C
  C28      1.0000 0.65480  0.46030  0.49500  Biso   1.000  C
  C29      1.0000 0.16610  0.00870  0.60500  Biso   1.000  C
  C30      1.0000 0.33390  0.50870  0.39500  Biso   1.000  C
  C31      1.0000 0.83390  0.99130  0.39500  Biso   1.000  C
  C32      1.0000 0.66610  0.49130  0.60500  Biso   1.000  C
  C33      1.0000 0.28970  0.94750  0.59700  Biso   1.000  C
  C34      1.0000 0.21030  0.44750  0.40300  Biso   1.000  C
  C35      1.0000 0.71030  0.05250  0.40300  Biso   1.000  C
  C36      1.0000 0.78970  0.55250  0.59700  Biso   1.000  C
  C37      1.0000 0.28230  0.97850  0.49000  Biso   1.000  C
  C38      1.0000 0.21770  0.47850  0.51000  Biso   1.000  C
  C39      1.0000 0.71770  0.02150  0.51000  Biso   1.000  C
  C40      1.0000 0.78230  0.52150  0.49000  Biso   1.000  C
  C41      1.0000 0.07900  0.08780  0.44000  Biso   1.000  C
  C42      1.0000 0.42100  0.58780  0.56000  Biso   1.000  C
  C43      1.0000 0.92100  0.91220  0.56000  Biso   1.000  C
  C44      1.0000 0.57900  0.41220  0.44000  Biso   1.000  C
  C45      1.0000 0.35100  0.96670  0.43100  Biso   1.000  C
  C46      1.0000 0.14900  0.46670  0.56900  Biso   1.000  C
  C47      1.0000 0.64900  0.03330  0.56900  Biso   1.000  C
  C48      1.0000 0.85100  0.53330  0.43100  Biso   1.000  C
  C49      1.0000 0.16520  0.19840  0.15700  Biso   1.000  C
  C50      1.0000 0.33480  0.69840  0.84300  Biso   1.000  C
  C51      1.0000 0.83480  0.80160  0.84300  Biso   1.000  C
  C52      1.0000 0.66520  0.30160  0.15700  Biso   1.000  C
  C53      1.0000 0.18130  0.26760  0.13520  Biso   1.000  C
  C54      1.0000 0.31870  0.76760  0.86480  Biso   1.000  C
  C55      1.0000 0.81870  0.73240  0.86480  Biso   1.000  C
  C56      1.0000 0.68130  0.23240  0.13520  Biso   1.000  C
  C57      1.0000 0.29550  0.27090  0.32300  Biso   1.000  C
  C58      1.0000 0.20450  0.77090  0.67700  Biso   1.000  C
  C59      1.0000 0.70450  0.72910  0.67700  Biso   1.000  C
  C60      1.0000 0.79550  0.22910  0.32300  Biso   1.000  C
  C61      1.0000 0.27490  0.20340  0.34300  Biso   1.000  C
  C62      1.0000 0.22510  0.70340  0.65700  Biso   1.000  C
  C63      1.0000 0.72510  0.79660  0.65700  Biso   1.000  C
  C64      1.0000 0.77490  0.29660  0.34300  Biso   1.000  C
  C65      1.0000 0.12600  0.30300  0.02000  Biso   1.000  C
  C66      1.0000 0.37400  0.80300  0.98000  Biso   1.000  C
  C67      1.0000 0.87400  0.69700  0.98000  Biso   1.000  C
  C68      1.0000 0.62600  0.19700  0.02000  Biso   1.000  C
  C69      1.0000 0.37500  0.30750  0.41400  Biso   1.000  C
  C70      1.0000 0.12500  0.80750  0.58600  Biso   1.000  C
  C71      1.0000 0.62500  0.69250  0.58600  Biso   1.000  C
  C72      1.0000 0.87500  0.19250  0.41400  Biso   1.000  C
  H1       1.0000 0.08990  0.96170  0.09990  Biso   1.000  H
  H2       1.0000 0.41010  0.46170  0.90010  Biso   1.000  H
  H3       1.0000 0.91010  0.03830  0.90010  Biso   1.000  H
  H4       1.0000 0.58990  0.53830  0.09990  Biso   1.000  H
  H5       1.0000 0.30790  0.07370  0.13040  Biso   1.000  H
  H6       1.0000 0.19210  0.57370  0.86960  Biso   1.000  H
  H7       1.0000 0.69210  0.92630  0.86960  Biso   1.000  H
  H8       1.0000 0.80790  0.42630  0.13040  Biso   1.000  H
  H9       1.0000 0.03470  0.87870  0.94910  Biso   1.000  H
  H10      1.0000 0.46530  0.37870  0.05090  Biso   1.000  H
  H11      1.0000 0.96530  0.12130  0.05090  Biso   1.000  H
  H12      1.0000 0.53470  0.62130  0.94910  Biso   1.000  H
  H13      1.0000 0.04730  0.89650  0.82820  Biso   1.000  H
  H14      1.0000 0.45270  0.39650  0.17180  Biso   1.000  H
  H15      1.0000 0.95270  0.10350  0.17180  Biso   1.000  H
  H16      1.0000 0.54730  0.60350  0.82820  Biso   1.000  H
  H17      1.0000 0.10830  0.84010  0.91230  Biso   1.000  H
  H18      1.0000 0.39170  0.34010  0.08770  Biso   1.000  H
  H19      1.0000 0.89170  0.15990  0.08770  Biso   1.000  H
  H20      1.0000 0.60830  0.65990  0.91230  Biso   1.000  H
  H21      1.0000 0.39050  0.98340  0.95160  Biso   1.000  H
  H22      1.0000 0.10950  0.48340  0.04840  Biso   1.000  H
  H23      1.0000 0.60950  0.01660  0.04840  Biso   1.000  H
  H24      1.0000 0.89050  0.51660  0.95160  Biso   1.000  H
  H25      1.0000 0.32650  0.03710  0.86390  Biso   1.000  H
  H26      1.0000 0.17350  0.53710  0.13610  Biso   1.000  H
  H27      1.0000 0.67350  0.96290  0.13610  Biso   1.000  H
  H28      1.0000 0.82650  0.46290  0.86390  Biso   1.000  H
  H29      1.0000 0.38800  0.05930  0.99320  Biso   1.000  H
  H30      1.0000 0.11200  0.55930  0.00680  Biso   1.000  H
  H31      1.0000 0.61200  0.94070  0.00680  Biso   1.000  H
  H32      1.0000 0.88800  0.44070  0.99320  Biso   1.000  H
  H33      1.0000 0.12660  0.02330  0.64760  Biso   1.000  H
  H34      1.0000 0.37340  0.52330  0.35240  Biso   1.000  H
  H35      1.0000 0.87340  0.97670  0.35240  Biso   1.000  H
  H36      1.0000 0.62660  0.47670  0.64760  Biso   1.000  H
  H37      1.0000 0.33980  0.91550  0.63320  Biso   1.000  H
  H38      1.0000 0.16020  0.41550  0.36680  Biso   1.000  H
  H39      1.0000 0.66020  0.08450  0.36680  Biso   1.000  H
  H40      1.0000 0.83980  0.58450  0.63320  Biso   1.000  H
  H41      1.0000 0.10060  0.13190  0.42610  Biso   1.000  H
  H42      1.0000 0.39940  0.63190  0.57390  Biso   1.000  H
  H43      1.0000 0.89940  0.86810  0.57390  Biso   1.000  H
  H44      1.0000 0.60060  0.36810  0.42610  Biso   1.000  H
  H45      1.0000 0.03810  0.07000  0.36360  Biso   1.000  H
  H46      1.0000 0.46190  0.57000  0.63640  Biso   1.000  H
  H47      1.0000 0.96190  0.93000  0.63640  Biso   1.000  H
  H48      1.0000 0.53810  0.43000  0.36360  Biso   1.000  H
  H49      1.0000 0.04280  0.09410  0.49050  Biso   1.000  H
  H50      1.0000 0.45720  0.59410  0.50950  Biso   1.000  H
  H51      1.0000 0.95720  0.90590  0.50950  Biso   1.000  H
  H52      1.0000 0.54280  0.40590  0.49050  Biso   1.000  H
  H53      1.0000 0.39540  0.93310  0.47500  Biso   1.000  H
  H54      1.0000 0.10460  0.43310  0.52500  Biso   1.000  H
  H55      1.0000 0.60460  0.06690  0.52500  Biso   1.000  H
  H56      1.0000 0.89540  0.56690  0.47500  Biso   1.000  H
  H57      1.0000 0.32140  0.94930  0.34990  Biso   1.000  H
  H58      1.0000 0.17860  0.44930  0.65010  Biso   1.000  H
  H59      1.0000 0.67860  0.05070  0.65010  Biso   1.000  H
  H60      1.0000 0.82140  0.55070  0.34990  Biso   1.000  H
  H61      1.0000 0.38210  0.00840  0.42620  Biso   1.000  H
  H62      1.0000 0.11790  0.50840  0.57380  Biso   1.000  H
  H63      1.0000 0.61790  0.99160  0.57380  Biso   1.000  H
  H64      1.0000 0.88210  0.49160  0.42620  Biso   1.000  H
  H65      1.0000 0.11780  0.17260  0.09550  Biso   1.000  H
  H66      1.0000 0.38220  0.67260  0.90450  Biso   1.000  H
  H67      1.0000 0.88220  0.82740  0.90450  Biso   1.000  H
  H68      1.0000 0.61780  0.32740  0.09550  Biso   1.000  H
  H69      1.0000 0.30970  0.18130  0.41880  Biso   1.000  H
  H70      1.0000 0.19030  0.68130  0.58120  Biso   1.000  H
  H71      1.0000 0.69030  0.81870  0.58120  Biso   1.000  H
  H72      1.0000 0.80970  0.31870  0.41880  Biso   1.000  H
  H73      1.0000 0.09210  0.34180  0.03630  Biso   1.000  H
  H74      1.0000 0.40790  0.84180  0.96370  Biso   1.000  H
  H75      1.0000 0.90790  0.65820  0.96370  Biso   1.000  H
  H76      1.0000 0.59210  0.15820  0.03630  Biso   1.000  H
  H77      1.0000 0.16480  0.32180  0.97980  Biso   1.000  H
  H78      1.0000 0.33520  0.82180  0.02020  Biso   1.000  H
  H79      1.0000 0.83520  0.67820  0.02020  Biso   1.000  H
  H80      1.0000 0.66480  0.17820  0.97980  Biso   1.000  H
  H81      1.0000 0.08240  0.27290  0.96570  Biso   1.000  H
  H82      1.0000 0.41760  0.77290  0.03430  Biso   1.000  H
  H83      1.0000 0.91760  0.72710  0.03430  Biso   1.000  H
  H84      1.0000 0.58240  0.22710  0.96570  Biso   1.000  H
  H85      1.0000 0.40680  0.27860  0.48110  Biso   1.000  H
  H86      1.0000 0.09320  0.77860  0.51890  Biso   1.000  H
  H87      1.0000 0.59320  0.72140  0.51890  Biso   1.000  H
  H88      1.0000 0.90680  0.22140  0.48110  Biso   1.000  H
  H89      1.0000 0.42070  0.32040  0.37710  Biso   1.000  H
  H90      1.0000 0.07930  0.82040  0.62290  Biso   1.000  H
  H91      1.0000 0.57930  0.67960  0.62290  Biso   1.000  H
  H92      1.0000 0.92070  0.17960  0.37710  Biso   1.000  H
  H93      1.0000 0.35660  0.34880  0.44120  Biso   1.000  H
  H94      1.0000 0.14340  0.84880  0.55880  Biso   1.000  H
  H95      1.0000 0.64340  0.65120  0.55880  Biso   1.000  H
  H96      1.0000 0.85660  0.15120  0.44120  Biso   1.000  H
  Cl1      1.0000 0.48600  0.16450  0.25470  Biso   1.000  Cl
  Cl2      1.0000 0.01400  0.66450  0.74530  Biso   1.000  Cl
  Cl3      1.0000 0.51400  0.83550  0.74530  Biso   1.000  Cl
  Cl4      1.0000 0.98600  0.33550  0.25470  Biso   1.000  Cl
  O1       1.0000 0.52410  0.11880  0.18900  Biso   1.000  O
  O2       1.0000 0.97590  0.61880  0.81100  Biso   1.000  O
  O3       1.0000 0.47590  0.88120  0.81100  Biso   1.000  O
  O4       1.0000 0.02410  0.38120  0.18900  Biso   1.000  O
  O5       1.0000 0.45500  0.12630  0.33200  Biso   1.000  O
  O6       1.0000 0.04500  0.62630  0.66800  Biso   1.000  O
  O7       1.0000 0.54500  0.87370  0.66800  Biso   1.000  O
  O8       1.0000 0.95500  0.37370  0.33200  Biso   1.000  O
  O9       1.0000 0.55400  0.20760  0.32000  Biso   1.000  O
  O10      1.0000 0.94600  0.70760  0.68000  Biso   1.000  O
  O11      1.0000 0.44600  0.79240  0.68000  Biso   1.000  O
  O12      1.0000 0.05400  0.29240  0.32000  Biso   1.000  O
  O13      1.0000 0.41100  0.19900  0.17500  Biso   1.000  O
  O14      1.0000 0.08900  0.69900  0.82500  Biso   1.000  O
  O15      1.0000 0.58900  0.80100  0.82500  Biso   1.000  O
  O16      1.0000 0.91100  0.30100  0.17500  Biso   1.000  O
  Cl5      1.0000 0.02530  0.11210  0.77670  Biso   1.000  Cl
  Cl6      1.0000 0.47470  0.61210  0.22330  Biso   1.000  Cl
  Cl7      1.0000 0.97470  0.88790  0.22330  Biso   1.000  Cl
  Cl8      1.0000 0.52530  0.38790  0.77670  Biso   1.000  Cl
  O17      1.0000 0.01300  0.04100  0.76800  Biso   1.000  O
  O18      1.0000 0.48700  0.54100  0.23200  Biso   1.000  O
  O19      1.0000 0.98700  0.95900  0.23200  Biso   1.000  O
  O20      1.0000 0.51300  0.45900  0.76800  Biso   1.000  O
  O21      1.0000 0.01900  0.14000  0.87200  Biso   1.000  O
  O22      1.0000 0.48100  0.64000  0.12800  Biso   1.000  O
  O23      1.0000 0.98100  0.86000  0.12800  Biso   1.000  O
  O24      1.0000 0.51900  0.36000  0.87200  Biso   1.000  O
  O25      1.0000 0.09800  0.13300  0.75500  Biso   1.000  O
  O26      1.0000 0.40200  0.63300  0.24500  Biso   1.000  O
  O27      1.0000 0.90200  0.86700  0.24500  Biso   1.000  O
  O28      1.0000 0.59800  0.36700  0.75500  Biso   1.000  O
  O29      1.0000 0.96400  0.13300  0.69700  Biso   1.000  O
  O30      1.0000 0.53600  0.63300  0.30300  Biso   1.000  O
  O31      1.0000 0.03600  0.86700  0.30300  Biso   1.000  O
  O32      1.0000 0.46400  0.36700  0.69700  Biso   1.000  O
  O33      1.0000 0.36800  0.11350  0.62500  Biso   1.000  O
  O34      1.0000 0.13200  0.61350  0.37500  Biso   1.000  O
  O35      1.0000 0.63200  0.88650  0.37500  Biso   1.000  O
  O36      1.0000 0.86800  0.38650  0.62500  Biso   1.000  O
  C73      1.0000 0.45100  0.11790  0.68200  Biso   1.000  C
  C74      1.0000 0.04900  0.61790  0.31800  Biso   1.000  C
  C75      1.0000 0.54900  0.88210  0.31800  Biso   1.000  C
  C76      1.0000 0.95100  0.38210  0.68200  Biso   1.000  C
  C77      1.0000 0.50200  0.17800  0.66500  Biso   1.000  C
  C78      1.0000 0.99800  0.67800  0.33500  Biso   1.000  C
  C79      1.0000 0.49800  0.82200  0.33500  Biso   1.000  C
  C80      1.0000 0.00200  0.32200  0.66500  Biso   1.000  C
  C81      1.0000 0.50100  0.06000  0.76300  Biso   1.000  C
  C82      1.0000 0.99900  0.56000  0.23700  Biso   1.000  C
  C83      1.0000 0.49900  0.94000  0.23700  Biso   1.000  C
  C84      1.0000 0.00100  0.44000  0.76300  Biso   1.000  C
  H97      1.0000 0.56650  0.17690  0.71230  Biso   1.000  H
  H98      1.0000 0.93350  0.67690  0.28770  Biso   1.000  H
  H99      1.0000 0.43350  0.82310  0.28770  Biso   1.000  H
  H100     1.0000 0.06650  0.32310  0.71230  Biso   1.000  H
  H101     1.0000 0.49580  0.18470  0.58210  Biso   1.000  H
  H102     1.0000 0.00420  0.68470  0.41790  Biso   1.000  H
  H103     1.0000 0.50420  0.81530  0.41790  Biso   1.000  H
  H104     1.0000 0.99580  0.31530  0.58210  Biso   1.000  H
  H105     1.0000 0.47860  0.22140  0.68860  Biso   1.000  H
  H106     1.0000 0.02140  0.72140  0.31140  Biso   1.000  H
  H107     1.0000 0.52140  0.77860  0.31140  Biso   1.000  H
  H108     1.0000 0.97860  0.27860  0.68860  Biso   1.000  H
  H109     1.0000 0.47730  0.05340  0.82930  Biso   1.000  H
  H110     1.0000 0.02270  0.55340  0.17070  Biso   1.000  H
  H111     1.0000 0.52270  0.94660  0.17070  Biso   1.000  H
  H112     1.0000 0.97730  0.44660  0.82930  Biso   1.000  H
  H113     1.0000 0.49400  0.01710  0.72210  Biso   1.000  H
  H114     1.0000 0.00600  0.51710  0.27790  Biso   1.000  H
  H115     1.0000 0.50600  0.98290  0.27790  Biso   1.000  H
  H116     1.0000 0.99400  0.48290  0.72210  Biso   1.000  H
  H117     1.0000 0.56640  0.06870  0.80280  Biso   1.000  H
  H118     1.0000 0.93360  0.56870  0.19720  Biso   1.000  H
  H119     1.0000 0.43360  0.93130  0.19720  Biso   1.000  H
  H120     1.0000 0.06640  0.43130  0.80280  Biso   1.000  H
  O37      1.0000 0.73600  0.16530  0.81200  Biso   1.000  O
  O38      1.0000 0.76400  0.66530  0.18800  Biso   1.000  O
  O39      1.0000 0.26400  0.83470  0.18800  Biso   1.000  O
  O40      1.0000 0.23600  0.33470  0.81200  Biso   1.000  O
  C85      1.0000 0.75700  0.21900  0.77400  Biso   1.000  C
  C86      1.0000 0.74300  0.71900  0.22600  Biso   1.000  C
  C87      1.0000 0.24300  0.78100  0.22600  Biso   1.000  C
  C88      1.0000 0.25700  0.28100  0.77400  Biso   1.000  C
  C89      1.0000 0.80700  0.27500  0.86100  Biso   1.000  C
  C90      1.0000 0.69300  0.77500  0.13900  Biso   1.000  C
  C91      1.0000 0.19300  0.72500  0.13900  Biso   1.000  C
  C92      1.0000 0.30700  0.22500  0.86100  Biso   1.000  C
  C93      1.0000 0.73400  0.23600  0.64900  Biso   1.000  C
  C94      1.0000 0.76600  0.73600  0.35100  Biso   1.000  C
  C95      1.0000 0.26600  0.76400  0.35100  Biso   1.000  C
  C96      1.0000 0.23400  0.26400  0.64900  Biso   1.000  C
  H121     1.0000 0.86490  0.25990  0.91320  Biso   1.000  H
  H122     1.0000 0.63510  0.75990  0.08680  Biso   1.000  H
  H123     1.0000 0.13510  0.74010  0.08680  Biso   1.000  H
  H124     1.0000 0.36490  0.24010  0.91320  Biso   1.000  H
  H125     1.0000 0.82060  0.31450  0.81340  Biso   1.000  H
  H126     1.0000 0.67940  0.81450  0.18660  Biso   1.000  H
  H127     1.0000 0.17940  0.68550  0.18660  Biso   1.000  H
  H128     1.0000 0.32060  0.18550  0.81340  Biso   1.000  H
  H129     1.0000 0.77100  0.29310  0.90090  Biso   1.000  H
  H130     1.0000 0.72900  0.79310  0.09910  Biso   1.000  H
  H131     1.0000 0.22900  0.70690  0.09910  Biso   1.000  H
  H132     1.0000 0.27100  0.20690  0.90090  Biso   1.000  H
  H133     1.0000 0.75640  0.28010  0.63390  Biso   1.000  H
  H134     1.0000 0.74360  0.78010  0.36610  Biso   1.000  H
  H135     1.0000 0.24360  0.71990  0.36610  Biso   1.000  H
  H136     1.0000 0.25640  0.21990  0.63390  Biso   1.000  H
  H137     1.0000 0.75560  0.20180  0.60430  Biso   1.000  H
  H138     1.0000 0.74440  0.70180  0.39570  Biso   1.000  H
  H139     1.0000 0.24440  0.79820  0.39570  Biso   1.000  H
  H140     1.0000 0.25560  0.29820  0.60430  Biso   1.000  H
  H141     1.0000 0.66660  0.23740  0.60660  Biso   1.000  H
  H142     1.0000 0.83340  0.73740  0.39340  Biso   1.000  H
  H143     1.0000 0.33340  0.76260  0.39340  Biso   1.000  H
  H144     1.0000 0.16660  0.26260  0.60660  Biso   1.000  H
