data_image0
_cell_length_a       6.603
_cell_length_b       8.318
_cell_length_c       18.342
_cell_angle_alpha    90
_cell_angle_beta     90
_cell_angle_gamma    92.28

_symmetry_space_group_name_H-M    "P 1"
_symmetry_int_tables_number       1

loop_
  _symmetry_equiv_pos_as_xyz
  'x, y, z'

loop_
  _atom_site_label
  _atom_site_occupancy
  _atom_site_fract_x
  _atom_site_fract_y
  _atom_site_fract_z
  _atom_site_thermal_displace_type
  _atom_site_B_iso_or_equiv
  _atom_site_type_symbol
  Cu1      1.0000 0.94464  0.21418  0.51698  Biso   1.000  Cu
  Cu2      1.0000 0.05536  0.28582  0.01698  Biso   1.000  Cu
  Cu3      1.0000 0.05536  0.78582  0.48302  Biso   1.000  Cu
  Cu4      1.0000 0.94464  0.71418  0.98302  Biso   1.000  Cu
  O1       1.0000 0.15420  0.30290  0.39330  Biso   1.000  O
  O2       1.0000 0.84580  0.19710  0.89330  Biso   1.000  O
  O3       1.0000 0.84580  0.69710  0.60670  Biso   1.000  O
  O4       1.0000 0.15420  0.80290  0.10670  Biso   1.000  O
  O5       1.0000 0.29980  0.09250  0.35530  Biso   1.000  O
  O6       1.0000 0.70020  0.40750  0.85530  Biso   1.000  O
  O7       1.0000 0.70020  0.90750  0.64470  Biso   1.000  O
  O8       1.0000 0.29980  0.59250  0.14470  Biso   1.000  O
  O9       1.0000 0.07950  0.07530  0.44170  Biso   1.000  O
  O10      1.0000 0.92050  0.42470  0.94170  Biso   1.000  O
  O11      1.0000 0.92050  0.92470  0.55830  Biso   1.000  O
  O12      1.0000 0.07950  0.57530  0.05830  Biso   1.000  O
  N1       1.0000 0.46590  0.39590  0.64300  Biso   1.000  N
  N2       1.0000 0.53410  0.10410  0.14300  Biso   1.000  N
  N3       1.0000 0.53410  0.60410  0.35700  Biso   1.000  N
  N4       1.0000 0.46590  0.89590  0.85700  Biso   1.000  N
  N5       1.0000 0.16780  0.29110  0.57640  Biso   1.000  N
  N6       1.0000 0.83220  0.20890  0.07640  Biso   1.000  N
  N7       1.0000 0.83220  0.70890  0.42360  Biso   1.000  N
  N8       1.0000 0.16780  0.79110  0.92360  Biso   1.000  N
  N9       1.0000 0.18020  0.15810  0.39540  Biso   1.000  N
  N10      1.0000 0.81980  0.34190  0.89540  Biso   1.000  N
  N11      1.0000 0.81980  0.84190  0.60460  Biso   1.000  N
  N12      1.0000 0.18020  0.65810  0.10460  Biso   1.000  N
  C1       1.0000 0.64650  0.22700  0.49460  Biso   1.000  C
  C2       1.0000 0.35350  0.27300  0.99460  Biso   1.000  C
  C3       1.0000 0.35350  0.77300  0.50540  Biso   1.000  C
  C4       1.0000 0.64650  0.72700  0.00540  Biso   1.000  C
  C5       1.0000 0.69980  0.34060  0.54480  Biso   1.000  C
  C6       1.0000 0.30020  0.15940  0.04480  Biso   1.000  C
  C7       1.0000 0.30020  0.65940  0.45520  Biso   1.000  C
  C8       1.0000 0.69980  0.84060  0.95520  Biso   1.000  C
  C9       1.0000 0.66080  0.32480  0.62360  Biso   1.000  C
  C10      1.0000 0.33920  0.17520  0.12360  Biso   1.000  C
  C11      1.0000 0.33920  0.67520  0.37640  Biso   1.000  C
  C12      1.0000 0.66080  0.82480  0.87640  Biso   1.000  C
  C13      1.0000 0.45190  0.50080  0.70600  Biso   1.000  C
  C14      1.0000 0.54810  0.99920  0.20600  Biso   1.000  C
  C15      1.0000 0.54810  0.49920  0.29400  Biso   1.000  C
  C16      1.0000 0.45190  0.00080  0.79400  Biso   1.000  C
  C17      1.0000 0.25420  0.56820  0.71500  Biso   1.000  C
  C18      1.0000 0.74580  0.93180  0.21500  Biso   1.000  C
  C19      1.0000 0.74580  0.43180  0.28500  Biso   1.000  C
  C20      1.0000 0.25420  0.06820  0.78500  Biso   1.000  C
  C21      1.0000 0.13020  0.55710  0.76660  Biso   1.000  C
  C22      1.0000 0.86980  0.94290  0.26660  Biso   1.000  C
  C23      1.0000 0.86980  0.44290  0.23340  Biso   1.000  C
  C24      1.0000 0.13020  0.05710  0.73340  Biso   1.000  C
  C25      1.0000 0.30350  0.33990  0.60880  Biso   1.000  C
  C26      1.0000 0.69650  0.16010  0.10880  Biso   1.000  C
  C27      1.0000 0.69650  0.66010  0.39120  Biso   1.000  C
  C28      1.0000 0.30350  0.83990  0.89120  Biso   1.000  C
  H1       1.0000 0.59700  0.12300  0.51100  Biso   1.000  H
  H2       1.0000 0.40300  0.37700  0.01100  Biso   1.000  H
  H3       1.0000 0.40300  0.87700  0.48900  Biso   1.000  H
  H4       1.0000 0.59700  0.62300  0.98900  Biso   1.000  H
  H5       1.0000 0.64300  0.25200  0.44500  Biso   1.000  H
  H6       1.0000 0.35700  0.24800  0.94500  Biso   1.000  H
  H7       1.0000 0.35700  0.74800  0.55500  Biso   1.000  H
  H8       1.0000 0.64300  0.75200  0.05500  Biso   1.000  H
  H9       1.0000 0.72400  0.44900  0.53000  Biso   1.000  H
  H10      1.0000 0.27600  0.05100  0.03000  Biso   1.000  H
  H11      1.0000 0.27600  0.55100  0.47000  Biso   1.000  H
  H12      1.0000 0.72400  0.94900  0.97000  Biso   1.000  H
  H13      1.0000 0.66000  0.22000  0.63700  Biso   1.000  H
  H14      1.0000 0.34000  0.28000  0.13700  Biso   1.000  H
  H15      1.0000 0.34000  0.78000  0.36300  Biso   1.000  H
  H16      1.0000 0.66000  0.72000  0.86300  Biso   1.000  H
  H17      1.0000 0.76300  0.36900  0.65200  Biso   1.000  H
  H18      1.0000 0.23700  0.13100  0.15200  Biso   1.000  H
  H19      1.0000 0.23700  0.63100  0.34800  Biso   1.000  H
  H20      1.0000 0.76300  0.86900  0.84800  Biso   1.000  H
  H21      1.0000 0.56700  0.57400  0.71100  Biso   1.000  H
  H22      1.0000 0.43300  0.92600  0.21100  Biso   1.000  H
  H23      1.0000 0.43300  0.42600  0.28900  Biso   1.000  H
  H24      1.0000 0.56700  0.07400  0.78900  Biso   1.000  H
  H25      1.0000 0.46200  0.42800  0.74400  Biso   1.000  H
  H26      1.0000 0.53800  0.07200  0.24400  Biso   1.000  H
  H27      1.0000 0.53800  0.57200  0.25600  Biso   1.000  H
  H28      1.0000 0.46200  0.92800  0.75600  Biso   1.000  H
  H29      1.0000 0.18200  0.66600  0.67900  Biso   1.000  H
  H30      1.0000 0.81800  0.83400  0.17900  Biso   1.000  H
  H31      1.0000 0.81800  0.33400  0.32100  Biso   1.000  H
  H32      1.0000 0.18200  0.16600  0.82100  Biso   1.000  H
  H33      1.0000 0.21300  0.49200  0.79100  Biso   1.000  H
  H34      1.0000 0.78700  0.00800  0.29100  Biso   1.000  H
  H35      1.0000 0.78700  0.50800  0.20900  Biso   1.000  H
  H36      1.0000 0.21300  0.99200  0.70900  Biso   1.000  H
  H37      1.0000 0.02600  0.61600  0.77700  Biso   1.000  H
  H38      1.0000 0.97400  0.88400  0.27700  Biso   1.000  H
  H39      1.0000 0.97400  0.38400  0.22300  Biso   1.000  H
  H40      1.0000 0.02600  0.11600  0.72300  Biso   1.000  H
