data_image0
_cell_length_a       9.519
_cell_length_b       12.9224
_cell_length_c       13.1428
_cell_angle_alpha    98.724
_cell_angle_beta     97.927
_cell_angle_gamma    104.12

_symmetry_space_group_name_H-M    "P 1"
_symmetry_int_tables_number       1

loop_
  _symmetry_equiv_pos_as_xyz
  'x, y, z'

loop_
  _atom_site_label
  _atom_site_occupancy
  _atom_site_fract_x
  _atom_site_fract_y
  _atom_site_fract_z
  _atom_site_thermal_displace_type
  _atom_site_B_iso_or_equiv
  _atom_site_type_symbol
  Cu1      1.0000 0.17826  0.56911  0.55816  Biso   1.000  Cu
  Cu2      1.0000 0.82174  0.43089  0.44184  Biso   1.000  Cu
  Cu3      1.0000 0.66955  0.08948  0.02919  Biso   1.000  Cu
  Cu4      1.0000 0.33045  0.91052  0.97081  Biso   1.000  Cu
  V1       1.0000 0.49164  0.20672  0.78519  Biso   1.000  V
  V2       1.0000 0.50836  0.79328  0.21481  Biso   1.000  V
  V3       1.0000 0.01474  0.32586  0.67782  Biso   1.000  V
  V4       1.0000 0.98526  0.67414  0.32218  Biso   1.000  V
  P1       1.0000 0.18799  0.13659  0.62465  Biso   1.000  P
  P2       1.0000 0.81201  0.86341  0.37535  Biso   1.000  P
  P3       1.0000 0.24385  0.34490  0.85208  Biso   1.000  P
  P4       1.0000 0.75615  0.65510  0.14792  Biso   1.000  P
  P5       1.0000 0.69280  0.13212  0.61166  Biso   1.000  P
  P6       1.0000 0.30720  0.86788  0.38834  Biso   1.000  P
  P7       1.0000 0.82515  0.36384  0.87179  Biso   1.000  P
  P8       1.0000 0.17485  0.63616  0.12821  Biso   1.000  P
  O1       1.0000 0.35640  0.15820  0.64770  Biso   1.000  O
  O2       1.0000 0.64360  0.84180  0.35230  Biso   1.000  O
  O3       1.0000 0.37380  0.30520  0.82830  Biso   1.000  O
  O4       1.0000 0.62620  0.69480  0.17170  Biso   1.000  O
  O5       1.0000 0.63140  0.14850  0.70920  Biso   1.000  O
  O6       1.0000 0.36860  0.85150  0.29080  Biso   1.000  O
  O7       1.0000 0.65760  0.33120  0.85060  Biso   1.000  O
  O8       1.0000 0.34240  0.66880  0.14940  Biso   1.000  O
  O9       1.0000 0.46400  0.12110  0.85970  Biso   1.000  O
  O10      1.0000 0.53600  0.87890  0.14030  Biso   1.000  O
  O11      1.0000 0.13940  0.23850  0.61570  Biso   1.000  O
  O12      1.0000 0.86060  0.76150  0.38430  Biso   1.000  O
  O13      1.0000 0.19780  0.41660  0.77920  Biso   1.000  O
  O14      1.0000 0.80220  0.58340  0.22080  Biso   1.000  O
  O15      1.0000 0.89080  0.37490  0.77420  Biso   1.000  O
  O16      1.0000 0.10920  0.62510  0.22580  Biso   1.000  O
  O17      1.0000 0.84850  0.19500  0.61590  Biso   1.000  O
  O18      1.0000 0.15150  0.80500  0.38410  Biso   1.000  O
  O19      1.0000 0.00610  0.40410  0.59460  Biso   1.000  O
  O20      1.0000 0.99390  0.59590  0.40540  Biso   1.000  O
  O21      1.0000 0.11920  0.08290  0.71240  Biso   1.000  O
  O22      1.0000 0.88080  0.91710  0.28760  Biso   1.000  O
  H1       1.0000 0.14710  0.12590  0.76850  Biso   1.000  H
  H2       1.0000 0.85290  0.87410  0.23150  Biso   1.000  H
  O23      1.0000 0.13080  0.04920  0.52290  Biso   1.000  O
  O24      1.0000 0.86920  0.95080  0.47710  Biso   1.000  O
  O25      1.0000 0.28920  0.40880  0.96760  Biso   1.000  O
  O26      1.0000 0.71080  0.59120  0.03240  Biso   1.000  O
  H3       1.0000 0.22110  0.43190  0.98440  Biso   1.000  H
  H4       1.0000 0.77890  0.56810  0.01560  Biso   1.000  H
  O27      1.0000 0.10620  0.24800  0.84080  Biso   1.000  O
  O28      1.0000 0.89380  0.75200  0.15920  Biso   1.000  O
  H5       1.0000 0.03630  0.27090  0.85390  Biso   1.000  H
  H6       1.0000 0.96370  0.72910  0.14610  Biso   1.000  H
  O29      1.0000 0.59610  0.16010  0.51930  Biso   1.000  O
  O30      1.0000 0.40390  0.83990  0.48070  Biso   1.000  O
  H7       1.0000 0.51240  0.11960  0.50860  Biso   1.000  H
  H8       1.0000 0.48760  0.88040  0.49140  Biso   1.000  H
  O31      1.0000 0.68380  0.00840  0.58210  Biso   1.000  O
  O32      1.0000 0.31620  0.99160  0.41790  Biso   1.000  O
  H9       1.0000 0.59760  0.97250  0.57280  Biso   1.000  H
  H10      1.0000 0.40240  0.02750  0.42720  Biso   1.000  H
  O33      1.0000 0.87450  0.47190  0.95160  Biso   1.000  O
  O34      1.0000 0.12550  0.52810  0.04840  Biso   1.000  O
  O35      1.0000 0.88110  0.27610  0.92390  Biso   1.000  O
  O36      1.0000 0.11890  0.72390  0.07610  Biso   1.000  O
  H11      1.0000 0.97130  0.29550  0.93930  Biso   1.000  H
  H12      1.0000 0.02870  0.70450  0.06070  Biso   1.000  H
  N1       1.0000 0.10990  0.66150  0.65540  Biso   1.000  N
  N2       1.0000 0.89010  0.33850  0.34460  Biso   1.000  N
  N3       1.0000 0.75740  0.99450  0.95350  Biso   1.000  N
  N4       1.0000 0.24260  0.00550  0.04650  Biso   1.000  N
  N5       1.0000 0.27590  0.49520  0.46630  Biso   1.000  N
  N6       1.0000 0.72410  0.50480  0.53370  Biso   1.000  N
  N7       1.0000 0.59770  0.18400  0.12000  Biso   1.000  N
  N8       1.0000 0.40230  0.81600  0.88000  Biso   1.000  N
  C1       1.0000 0.06560  0.63580  0.74370  Biso   1.000  C
  C2       1.0000 0.93440  0.36420  0.25630  Biso   1.000  C
  H13      1.0000 0.08000  0.57260  0.76370  Biso   1.000  H
  H14      1.0000 0.92000  0.42740  0.23630  Biso   1.000  H
  C3       1.0000 0.00030  0.69820  0.80560  Biso   1.000  C
  C4       1.0000 0.99970  0.30180  0.19440  Biso   1.000  C
  H15      1.0000 0.97160  0.67650  0.86560  Biso   1.000  H
  H16      1.0000 0.02840  0.32350  0.13440  Biso   1.000  H
  C5       1.0000 0.97670  0.79360  0.77910  Biso   1.000  C
  C6       1.0000 0.02330  0.20640  0.22090  Biso   1.000  C
  C7       1.0000 0.02530  0.82160  0.68870  Biso   1.000  C
  C8       1.0000 0.97470  0.17840  0.31130  Biso   1.000  C
  H17      1.0000 0.01370  0.88510  0.66780  Biso   1.000  H
  H18      1.0000 0.98630  0.11490  0.33220  Biso   1.000  H
  C9       1.0000 0.09000  0.75560  0.63120  Biso   1.000  C
  C10      1.0000 0.91000  0.24440  0.36880  Biso   1.000  C
  H19      1.0000 0.12210  0.77660  0.57190  Biso   1.000  H
  H20      1.0000 0.87790  0.22340  0.42810  Biso   1.000  H
  C11      1.0000 0.79520  0.91160  0.98910  Biso   1.000  C
  C12      1.0000 0.20480  0.08840  0.01090  Biso   1.000  C
  H21      1.0000 0.77270  0.89820  0.05330  Biso   1.000  H
  H22      1.0000 0.22730  0.10180  0.94670  Biso   1.000  H
  C13      1.0000 0.86510  0.84550  0.93650  Biso   1.000  C
  C14      1.0000 0.13490  0.15450  0.06350  Biso   1.000  C
  H23      1.0000 0.88880  0.78910  0.96530  Biso   1.000  H
  H24      1.0000 0.11120  0.21090  0.03470  Biso   1.000  H
  C15      1.0000 0.90060  0.86260  0.83990  Biso   1.000  C
  C16      1.0000 0.09940  0.13740  0.16010  Biso   1.000  C
  C17      1.0000 0.85810  0.94790  0.80300  Biso   1.000  C
  C18      1.0000 0.14190  0.05210  0.19700  Biso   1.000  C
  H25      1.0000 0.87680  0.96210  0.73820  Biso   1.000  H
  H26      1.0000 0.12320  0.03790  0.26180  Biso   1.000  H
  C19      1.0000 0.79010  0.01080  0.85980  Biso   1.000  C
  C20      1.0000 0.20990  0.98920  0.14020  Biso   1.000  C
  H27      1.0000 0.76490  0.06770  0.83280  Biso   1.000  H
  H28      1.0000 0.23510  0.93230  0.16720  Biso   1.000  H
  C21      1.0000 0.30160  0.40240  0.48250  Biso   1.000  C
  C22      1.0000 0.69840  0.59760  0.51750  Biso   1.000  C
  H29      1.0000 0.27520  0.37650  0.54140  Biso   1.000  H
  H30      1.0000 0.72480  0.62350  0.45860  Biso   1.000  H
  C23      1.0000 0.36530  0.34230  0.41680  Biso   1.000  C
  C24      1.0000 0.63470  0.65770  0.58320  Biso   1.000  C
  H31      1.0000 0.37820  0.27670  0.43150  Biso   1.000  H
  H32      1.0000 0.62180  0.72330  0.56850  Biso   1.000  H
  C25      1.0000 0.41080  0.37740  0.32940  Biso   1.000  C
  C26      1.0000 0.58920  0.62260  0.67060  Biso   1.000  C
  C27      1.0000 0.38560  0.47510  0.31330  Biso   1.000  C
  C28      1.0000 0.61440  0.52490  0.68670  Biso   1.000  C
  H33      1.0000 0.41320  0.50360  0.25590  Biso   1.000  H
  H34      1.0000 0.58680  0.49640  0.74410  Biso   1.000  H
  C29      1.0000 0.32010  0.53010  0.38180  Biso   1.000  C
  C30      1.0000 0.67990  0.46990  0.61820  Biso   1.000  C
  H35      1.0000 0.30530  0.59580  0.36880  Biso   1.000  H
  H36      1.0000 0.69470  0.40420  0.63120  Biso   1.000  H
  C31      1.0000 0.56180  0.15420  0.20860  Biso   1.000  C
  C32      1.0000 0.43820  0.84580  0.79140  Biso   1.000  C
  H37      1.0000 0.57620  0.08910  0.22380  Biso   1.000  H
  H38      1.0000 0.42380  0.91090  0.77620  Biso   1.000  H
  C33      1.0000 0.50490  0.21580  0.27730  Biso   1.000  C
  C34      1.0000 0.49510  0.78420  0.72270  Biso   1.000  C
  H39      1.0000 0.48180  0.19210  0.33790  Biso   1.000  H
  H40      1.0000 0.51820  0.80790  0.66210  Biso   1.000  H
  C35      1.0000 0.48090  0.31380  0.25760  Biso   1.000  C
  C36      1.0000 0.51910  0.68620  0.74240  Biso   1.000  C
  C37      1.0000 0.51830  0.34310  0.16600  Biso   1.000  C
  C38      1.0000 0.48170  0.65690  0.83400  Biso   1.000  C
  H41      1.0000 0.50440  0.40770  0.14900  Biso   1.000  H
  H42      1.0000 0.49560  0.59230  0.85100  Biso   1.000  H
  C39      1.0000 0.57520  0.27930  0.10010  Biso   1.000  C
  C40      1.0000 0.42480  0.72070  0.89990  Biso   1.000  C
  H43      1.0000 0.59950  0.30180  0.03930  Biso   1.000  H
  H44      1.0000 0.40050  0.69820  0.96070  Biso   1.000  H
