data_image0
_cell_length_a       4.8153
_cell_length_b       13.7892
_cell_length_c       14.0641
_cell_angle_alpha    90
_cell_angle_beta     90
_cell_angle_gamma    90

_symmetry_space_group_name_H-M    "P 1"
_symmetry_int_tables_number       1

loop_
  _symmetry_equiv_pos_as_xyz
  'x, y, z'

loop_
  _atom_site_label
  _atom_site_occupancy
  _atom_site_fract_x
  _atom_site_fract_y
  _atom_site_fract_z
  _atom_site_thermal_displace_type
  _atom_site_B_iso_or_equiv
  _atom_site_type_symbol
  Cu1      1.0000 0.12084  0.78966  0.56905  Biso   1.000  Cu
  Cu2      1.0000 0.37916  0.21034  0.06905  Biso   1.000  Cu
  Cu3      1.0000 0.87916  0.28966  0.93095  Biso   1.000  Cu
  Cu4      1.0000 0.62084  0.71034  0.43095  Biso   1.000  Cu
  Cl1      1.0000 0.22457  0.64388  0.51133  Biso   1.000  Cl
  Cl2      1.0000 0.27543  0.35612  0.01133  Biso   1.000  Cl
  Cl3      1.0000 0.77543  0.14388  0.98867  Biso   1.000  Cl
  Cl4      1.0000 0.72457  0.85612  0.48867  Biso   1.000  Cl
  O1       1.0000 0.20790  0.67708  0.86960  Biso   1.000  O
  O2       1.0000 0.29210  0.32292  0.36960  Biso   1.000  O
  O3       1.0000 0.79210  0.17708  0.63040  Biso   1.000  O
  O4       1.0000 0.70790  0.82292  0.13040  Biso   1.000  O
  N1       1.0000 0.19510  0.87301  0.68114  Biso   1.000  N
  N2       1.0000 0.30490  0.12699  0.18114  Biso   1.000  N
  N3       1.0000 0.80490  0.37301  0.81886  Biso   1.000  N
  N4       1.0000 0.69510  0.62699  0.31886  Biso   1.000  N
  N5       1.0000 0.64110  0.71662  0.82397  Biso   1.000  N
  N6       1.0000 0.85890  0.28338  0.32397  Biso   1.000  N
  N7       1.0000 0.35890  0.21662  0.67603  Biso   1.000  N
  N8       1.0000 0.14110  0.78338  0.17603  Biso   1.000  N
  H1       1.0000 0.81890  0.71880  0.83830  Biso   1.000  H
  H2       1.0000 0.68110  0.28120  0.33830  Biso   1.000  H
  H3       1.0000 0.18110  0.21880  0.66170  Biso   1.000  H
  H4       1.0000 0.31890  0.78120  0.16170  Biso   1.000  H
  C1       1.0000 0.05050  0.95597  0.69076  Biso   1.000  C
  C2       1.0000 0.44950  0.04403  0.19076  Biso   1.000  C
  C3       1.0000 0.94950  0.45597  0.80924  Biso   1.000  C
  C4       1.0000 0.55050  0.54403  0.30924  Biso   1.000  C
  H5       1.0000 0.91540  0.97160  0.64400  Biso   1.000  H
  H6       1.0000 0.58460  0.02840  0.14400  Biso   1.000  H
  H7       1.0000 0.08460  0.47160  0.85600  Biso   1.000  H
  H8       1.0000 0.41540  0.52840  0.35600  Biso   1.000  H
  C5       1.0000 0.08970  0.01961  0.76581  Biso   1.000  C
  C6       1.0000 0.41030  0.98039  0.26581  Biso   1.000  C
  C7       1.0000 0.91030  0.51961  0.73419  Biso   1.000  C
  C8       1.0000 0.58970  0.48039  0.23419  Biso   1.000  C
  H9       1.0000 0.97910  0.07640  0.77150  Biso   1.000  H
  H10      1.0000 0.52090  0.92360  0.27150  Biso   1.000  H
  H11      1.0000 0.02090  0.57640  0.72850  Biso   1.000  H
  H12      1.0000 0.47910  0.42360  0.22850  Biso   1.000  H
  C9       1.0000 0.29240  0.99900  0.83198  Biso   1.000  C
  C10      1.0000 0.20760  0.00100  0.33198  Biso   1.000  C
  C11      1.0000 0.70760  0.49900  0.66802  Biso   1.000  C
  C12      1.0000 0.79240  0.50100  0.16802  Biso   1.000  C
  H13      1.0000 0.32660  0.04210  0.88340  Biso   1.000  H
  H14      1.0000 0.17340  0.95790  0.38340  Biso   1.000  H
  H15      1.0000 0.67340  0.54210  0.61660  Biso   1.000  H
  H16      1.0000 0.82660  0.45790  0.11660  Biso   1.000  H
  C13      1.0000 0.44530  0.91448  0.82239  Biso   1.000  C
  C14      1.0000 0.05470  0.08552  0.32239  Biso   1.000  C
  C15      1.0000 0.55470  0.41448  0.67761  Biso   1.000  C
  C16      1.0000 0.94530  0.58552  0.17761  Biso   1.000  C
  H17      1.0000 0.58730  0.89940  0.86690  Biso   1.000  H
  H18      1.0000 0.91270  0.10060  0.36690  Biso   1.000  H
  H19      1.0000 0.41270  0.39940  0.63310  Biso   1.000  H
  H20      1.0000 0.08730  0.60060  0.13310  Biso   1.000  H
  C17      1.0000 0.38950  0.85199  0.74729  Biso   1.000  C
  C18      1.0000 0.11050  0.14801  0.24729  Biso   1.000  C
  C19      1.0000 0.61050  0.35199  0.75271  Biso   1.000  C
  C20      1.0000 0.88950  0.64801  0.25271  Biso   1.000  C
  C21      1.0000 0.54290  0.75756  0.73484  Biso   1.000  C
  C22      1.0000 0.95710  0.24244  0.23484  Biso   1.000  C
  C23      1.0000 0.45710  0.25756  0.76516  Biso   1.000  C
  C24      1.0000 0.04290  0.74244  0.26516  Biso   1.000  C
  H21      1.0000 0.41830  0.71020  0.70360  Biso   1.000  H
  H22      1.0000 0.08170  0.28980  0.20360  Biso   1.000  H
  H23      1.0000 0.58170  0.21020  0.79640  Biso   1.000  H
  H24      1.0000 0.91830  0.78980  0.29640  Biso   1.000  H
  H25      1.0000 0.70380  0.76830  0.69230  Biso   1.000  H
  H26      1.0000 0.79620  0.23170  0.19230  Biso   1.000  H
  H27      1.0000 0.29620  0.26830  0.80770  Biso   1.000  H
  H28      1.0000 0.20380  0.73170  0.30770  Biso   1.000  H
  C25      1.0000 0.45990  0.67544  0.88434  Biso   1.000  C
  C26      1.0000 0.04010  0.32456  0.38434  Biso   1.000  C
  C27      1.0000 0.54010  0.17544  0.61566  Biso   1.000  C
  C28      1.0000 0.95990  0.82456  0.11566  Biso   1.000  C
  C29      1.0000 0.58060  0.62787  0.97115  Biso   1.000  C
  C30      1.0000 0.91940  0.37213  0.47115  Biso   1.000  C
  C31      1.0000 0.41940  0.12787  0.52885  Biso   1.000  C
  C32      1.0000 0.08060  0.87213  0.02885  Biso   1.000  C
  H29      1.0000 0.49790  0.56350  0.97930  Biso   1.000  H
  H30      1.0000 0.00210  0.43650  0.47930  Biso   1.000  H
  H31      1.0000 0.50210  0.06350  0.52070  Biso   1.000  H
  H32      1.0000 0.99790  0.93650  0.02070  Biso   1.000  H
  H33      1.0000 0.54050  0.66770  0.02720  Biso   1.000  H
  H34      1.0000 0.95950  0.33230  0.52720  Biso   1.000  H
  H35      1.0000 0.45950  0.16770  0.47280  Biso   1.000  H
  H36      1.0000 0.04050  0.83230  0.97280  Biso   1.000  H
  H37      1.0000 0.78210  0.62150  0.96350  Biso   1.000  H
  H38      1.0000 0.71790  0.37850  0.46350  Biso   1.000  H
  H39      1.0000 0.21790  0.12150  0.53650  Biso   1.000  H
  H40      1.0000 0.28210  0.87850  0.03650  Biso   1.000  H
