data_image0
_cell_length_a       26.036
_cell_length_b       10.4137
_cell_length_c       18.3769
_cell_angle_alpha    90
_cell_angle_beta     111.058
_cell_angle_gamma    90

_symmetry_space_group_name_H-M    "P 1"
_symmetry_int_tables_number       1

loop_
  _symmetry_equiv_pos_as_xyz
  'x, y, z'

loop_
  _atom_site_label
  _atom_site_occupancy
  _atom_site_fract_x
  _atom_site_fract_y
  _atom_site_fract_z
  _atom_site_thermal_displace_type
  _atom_site_B_iso_or_equiv
  _atom_site_type_symbol
  C1       1.0000 0.06110  0.54600  0.71100  Biso   1.000  C
  C2       1.0000 0.93890  0.54600  0.78900  Biso   1.000  C
  C3       1.0000 0.56110  0.04600  0.71100  Biso   1.000  C
  C4       1.0000 0.43890  0.04600  0.78900  Biso   1.000  C
  C5       1.0000 0.93890  0.45400  0.28900  Biso   1.000  C
  C6       1.0000 0.06110  0.45400  0.21100  Biso   1.000  C
  C7       1.0000 0.43890  0.95400  0.28900  Biso   1.000  C
  C8       1.0000 0.56110  0.95400  0.21100  Biso   1.000  C
  H1       1.0000 0.03590  0.61240  0.69340  Biso   1.000  H
  H2       1.0000 0.96410  0.61240  0.80660  Biso   1.000  H
  H3       1.0000 0.53590  0.11240  0.69340  Biso   1.000  H
  H4       1.0000 0.46410  0.11240  0.80660  Biso   1.000  H
  H5       1.0000 0.96410  0.38760  0.30660  Biso   1.000  H
  H6       1.0000 0.03590  0.38760  0.19340  Biso   1.000  H
  H7       1.0000 0.46410  0.88760  0.30660  Biso   1.000  H
  H8       1.0000 0.53590  0.88760  0.19340  Biso   1.000  H
  C9       1.0000 0.10560  0.55800  0.78180  Biso   1.000  C
  C10      1.0000 0.89440  0.55800  0.71820  Biso   1.000  C
  C11      1.0000 0.60560  0.05800  0.78180  Biso   1.000  C
  C12      1.0000 0.39440  0.05800  0.71820  Biso   1.000  C
  C13      1.0000 0.89440  0.44200  0.21820  Biso   1.000  C
  C14      1.0000 0.10560  0.44200  0.28180  Biso   1.000  C
  C15      1.0000 0.39440  0.94200  0.21820  Biso   1.000  C
  C16      1.0000 0.60560  0.94200  0.28180  Biso   1.000  C
  H9       1.0000 0.11250  0.63550  0.80920  Biso   1.000  H
  H10      1.0000 0.88750  0.63550  0.69080  Biso   1.000  H
  H11      1.0000 0.61250  0.13550  0.80920  Biso   1.000  H
  H12      1.0000 0.38750  0.13550  0.69080  Biso   1.000  H
  H13      1.0000 0.88750  0.36450  0.19080  Biso   1.000  H
  H14      1.0000 0.11250  0.36450  0.30920  Biso   1.000  H
  H15      1.0000 0.38750  0.86450  0.19080  Biso   1.000  H
  H16      1.0000 0.61250  0.86450  0.30920  Biso   1.000  H
  C17      1.0000 0.14060  0.44680  0.81110  Biso   1.000  C
  C18      1.0000 0.85940  0.44680  0.68890  Biso   1.000  C
  C19      1.0000 0.64060  0.94680  0.81110  Biso   1.000  C
  C20      1.0000 0.35940  0.94680  0.68890  Biso   1.000  C
  C21      1.0000 0.85940  0.55320  0.18890  Biso   1.000  C
  C22      1.0000 0.14060  0.55320  0.31110  Biso   1.000  C
  C23      1.0000 0.35940  0.05320  0.18890  Biso   1.000  C
  C24      1.0000 0.64060  0.05320  0.31110  Biso   1.000  C
  C25      1.0000 0.13720  0.35660  0.75930  Biso   1.000  C
  C26      1.0000 0.86280  0.35660  0.74070  Biso   1.000  C
  C27      1.0000 0.63720  0.85660  0.75930  Biso   1.000  C
  C28      1.0000 0.36280  0.85660  0.74070  Biso   1.000  C
  C29      1.0000 0.86280  0.64340  0.24070  Biso   1.000  C
  C30      1.0000 0.13720  0.64340  0.25930  Biso   1.000  C
  C31      1.0000 0.36280  0.14340  0.24070  Biso   1.000  C
  C32      1.0000 0.63720  0.14340  0.25930  Biso   1.000  C
  H17      1.0000 0.16500  0.29540  0.77040  Biso   1.000  H
  H18      1.0000 0.83500  0.29540  0.72960  Biso   1.000  H
  H19      1.0000 0.66500  0.79540  0.77040  Biso   1.000  H
  H20      1.0000 0.33500  0.79540  0.72960  Biso   1.000  H
  H21      1.0000 0.83500  0.70460  0.22960  Biso   1.000  H
  H22      1.0000 0.16500  0.70460  0.27040  Biso   1.000  H
  H23      1.0000 0.33500  0.20460  0.22960  Biso   1.000  H
  H24      1.0000 0.66500  0.20460  0.27040  Biso   1.000  H
  C33      1.0000 0.09400  0.35030  0.68930  Biso   1.000  C
  C34      1.0000 0.90600  0.35030  0.81070  Biso   1.000  C
  C35      1.0000 0.59400  0.85030  0.68930  Biso   1.000  C
  C36      1.0000 0.40600  0.85030  0.81070  Biso   1.000  C
  C37      1.0000 0.90600  0.64970  0.31070  Biso   1.000  C
  C38      1.0000 0.09400  0.64970  0.18930  Biso   1.000  C
  C39      1.0000 0.40600  0.14970  0.31070  Biso   1.000  C
  C40      1.0000 0.59400  0.14970  0.18930  Biso   1.000  C
  H25      1.0000 0.09320  0.28210  0.65630  Biso   1.000  H
  H26      1.0000 0.90680  0.28210  0.84370  Biso   1.000  H
  H27      1.0000 0.59320  0.78210  0.65630  Biso   1.000  H
  H28      1.0000 0.40680  0.78210  0.84370  Biso   1.000  H
  H29      1.0000 0.90680  0.71790  0.34370  Biso   1.000  H
  H30      1.0000 0.09320  0.71790  0.15630  Biso   1.000  H
  H31      1.0000 0.40680  0.21790  0.34370  Biso   1.000  H
  H32      1.0000 0.59320  0.21790  0.15630  Biso   1.000  H
  C41      1.0000 0.18830  0.45990  0.88790  Biso   1.000  C
  C42      1.0000 0.81170  0.45990  0.61210  Biso   1.000  C
  C43      1.0000 0.68830  0.95990  0.88790  Biso   1.000  C
  C44      1.0000 0.31170  0.95990  0.61210  Biso   1.000  C
  C45      1.0000 0.81170  0.54010  0.11210  Biso   1.000  C
  C46      1.0000 0.18830  0.54010  0.38790  Biso   1.000  C
  C47      1.0000 0.31170  0.04010  0.11210  Biso   1.000  C
  C48      1.0000 0.68830  0.04010  0.38790  Biso   1.000  C
  C49      1.0000 0.18530  0.55220  0.94120  Biso   1.000  C
  C50      1.0000 0.81470  0.55220  0.55880  Biso   1.000  C
  C51      1.0000 0.68530  0.05220  0.94120  Biso   1.000  C
  C52      1.0000 0.31470  0.05220  0.55880  Biso   1.000  C
  C53      1.0000 0.81470  0.44780  0.05880  Biso   1.000  C
  C54      1.0000 0.18530  0.44780  0.44120  Biso   1.000  C
  C55      1.0000 0.31470  0.94780  0.05880  Biso   1.000  C
  C56      1.0000 0.68530  0.94780  0.44120  Biso   1.000  C
  H33      1.0000 0.15370  0.60160  0.93020  Biso   1.000  H
  H34      1.0000 0.84630  0.60160  0.56980  Biso   1.000  H
  H35      1.0000 0.65370  0.10160  0.93020  Biso   1.000  H
  H36      1.0000 0.34630  0.10160  0.56980  Biso   1.000  H
  H37      1.0000 0.84630  0.39840  0.06980  Biso   1.000  H
  H38      1.0000 0.15370  0.39840  0.43020  Biso   1.000  H
  H39      1.0000 0.34630  0.89840  0.06980  Biso   1.000  H
  H40      1.0000 0.65370  0.89840  0.43020  Biso   1.000  H
  C57      1.0000 0.22920  0.57100  0.01050  Biso   1.000  C
  C58      1.0000 0.77080  0.57100  0.48950  Biso   1.000  C
  C59      1.0000 0.72920  0.07100  0.01050  Biso   1.000  C
  C60      1.0000 0.27080  0.07100  0.48950  Biso   1.000  C
  C61      1.0000 0.77080  0.42900  0.98950  Biso   1.000  C
  C62      1.0000 0.22920  0.42900  0.51050  Biso   1.000  C
  C63      1.0000 0.27080  0.92900  0.98950  Biso   1.000  C
  C64      1.0000 0.72920  0.92900  0.51050  Biso   1.000  C
  C65      1.0000 0.27570  0.49380  0.02670  Biso   1.000  C
  C66      1.0000 0.72430  0.49380  0.47330  Biso   1.000  C
  C67      1.0000 0.77570  0.99380  0.02670  Biso   1.000  C
  C68      1.0000 0.22430  0.99380  0.47330  Biso   1.000  C
  C69      1.0000 0.72430  0.50620  0.97330  Biso   1.000  C
  C70      1.0000 0.27570  0.50620  0.52670  Biso   1.000  C
  C71      1.0000 0.22430  0.00620  0.97330  Biso   1.000  C
  C72      1.0000 0.77570  0.00620  0.52670  Biso   1.000  C
  H41      1.0000 0.30470  0.50420  0.07390  Biso   1.000  H
  H42      1.0000 0.69530  0.50420  0.42610  Biso   1.000  H
  H43      1.0000 0.80470  0.00420  0.07390  Biso   1.000  H
  H44      1.0000 0.19530  0.00420  0.42610  Biso   1.000  H
  H45      1.0000 0.69530  0.49580  0.92610  Biso   1.000  H
  H46      1.0000 0.30470  0.49580  0.57390  Biso   1.000  H
  H47      1.0000 0.19530  0.99580  0.92610  Biso   1.000  H
  H48      1.0000 0.80470  0.99580  0.57390  Biso   1.000  H
  C73      1.0000 0.27970  0.40210  0.97470  Biso   1.000  C
  C74      1.0000 0.72030  0.40210  0.52530  Biso   1.000  C
  C75      1.0000 0.77970  0.90210  0.97470  Biso   1.000  C
  C76      1.0000 0.22030  0.90210  0.52530  Biso   1.000  C
  C77      1.0000 0.72030  0.59790  0.02530  Biso   1.000  C
  C78      1.0000 0.27970  0.59790  0.47470  Biso   1.000  C
  C79      1.0000 0.22030  0.09790  0.02530  Biso   1.000  C
  C80      1.0000 0.77970  0.09790  0.47470  Biso   1.000  C
  C81      1.0000 0.23500  0.38660  0.90510  Biso   1.000  C
  C82      1.0000 0.76500  0.38660  0.59490  Biso   1.000  C
  C83      1.0000 0.73500  0.88660  0.90510  Biso   1.000  C
  C84      1.0000 0.26500  0.88660  0.59490  Biso   1.000  C
  C85      1.0000 0.76500  0.61340  0.09490  Biso   1.000  C
  C86      1.0000 0.23500  0.61340  0.40510  Biso   1.000  C
  C87      1.0000 0.26500  0.11340  0.09490  Biso   1.000  C
  C88      1.0000 0.73500  0.11340  0.40510  Biso   1.000  C
  H49      1.0000 0.23680  0.32500  0.86940  Biso   1.000  H
  H50      1.0000 0.76320  0.32500  0.63060  Biso   1.000  H
  H51      1.0000 0.73680  0.82500  0.86940  Biso   1.000  H
  H52      1.0000 0.26320  0.82500  0.63060  Biso   1.000  H
  H53      1.0000 0.76320  0.67500  0.13060  Biso   1.000  H
  H54      1.0000 0.23680  0.67500  0.36940  Biso   1.000  H
  H55      1.0000 0.26320  0.17500  0.13060  Biso   1.000  H
  H56      1.0000 0.73680  0.17500  0.36940  Biso   1.000  H
  C89      1.0000 0.33030  0.32310  0.99330  Biso   1.000  C
  C90      1.0000 0.66970  0.32310  0.50670  Biso   1.000  C
  C91      1.0000 0.83030  0.82310  0.99330  Biso   1.000  C
  C92      1.0000 0.16970  0.82310  0.50670  Biso   1.000  C
  C93      1.0000 0.66970  0.67690  0.00670  Biso   1.000  C
  C94      1.0000 0.33030  0.67690  0.49330  Biso   1.000  C
  C95      1.0000 0.16970  0.17690  0.00670  Biso   1.000  C
  C96      1.0000 0.83030  0.17690  0.49330  Biso   1.000  C
  C97      1.0000 0.33300  0.21770  0.95280  Biso   1.000  C
  C98      1.0000 0.66700  0.21770  0.54720  Biso   1.000  C
  C99      1.0000 0.83300  0.71770  0.95280  Biso   1.000  C
  C100     1.0000 0.16700  0.71770  0.54720  Biso   1.000  C
  C101     1.0000 0.66700  0.78230  0.04720  Biso   1.000  C
  C102     1.0000 0.33300  0.78230  0.45280  Biso   1.000  C
  C103     1.0000 0.16700  0.28230  0.04720  Biso   1.000  C
  C104     1.0000 0.83300  0.28230  0.45280  Biso   1.000  C
  H57      1.0000 0.30260  0.19310  0.91000  Biso   1.000  H
  H58      1.0000 0.69740  0.19310  0.59000  Biso   1.000  H
  H59      1.0000 0.80260  0.69310  0.91000  Biso   1.000  H
  H60      1.0000 0.19740  0.69310  0.59000  Biso   1.000  H
  H61      1.0000 0.69740  0.80690  0.09000  Biso   1.000  H
  H62      1.0000 0.30260  0.80690  0.41000  Biso   1.000  H
  H63      1.0000 0.19740  0.30690  0.09000  Biso   1.000  H
  H64      1.0000 0.80260  0.30690  0.41000  Biso   1.000  H
  C105     1.0000 0.38040  0.14580  0.97420  Biso   1.000  C
  C106     1.0000 0.61960  0.14580  0.52580  Biso   1.000  C
  C107     1.0000 0.88040  0.64580  0.97420  Biso   1.000  C
  C108     1.0000 0.11960  0.64580  0.52580  Biso   1.000  C
  C109     1.0000 0.61960  0.85420  0.02580  Biso   1.000  C
  C110     1.0000 0.38040  0.85420  0.47420  Biso   1.000  C
  C111     1.0000 0.11960  0.35420  0.02580  Biso   1.000  C
  C112     1.0000 0.88040  0.35420  0.47420  Biso   1.000  C
  H65      1.0000 0.38000  0.07370  0.94410  Biso   1.000  H
  H66      1.0000 0.62000  0.07370  0.55590  Biso   1.000  H
  H67      1.0000 0.88000  0.57370  0.94410  Biso   1.000  H
  H68      1.0000 0.12000  0.57370  0.55590  Biso   1.000  H
  H69      1.0000 0.62000  0.92630  0.05590  Biso   1.000  H
  H70      1.0000 0.38000  0.92630  0.44410  Biso   1.000  H
  H71      1.0000 0.12000  0.42630  0.05590  Biso   1.000  H
  H72      1.0000 0.88000  0.42630  0.44410  Biso   1.000  H
  C113     1.0000 0.42220  0.26900  0.07560  Biso   1.000  C
  C114     1.0000 0.57780  0.26900  0.42440  Biso   1.000  C
  C115     1.0000 0.92220  0.76900  0.07560  Biso   1.000  C
  C116     1.0000 0.07780  0.76900  0.42440  Biso   1.000  C
  C117     1.0000 0.57780  0.73100  0.92440  Biso   1.000  C
  C118     1.0000 0.42220  0.73100  0.57560  Biso   1.000  C
  C119     1.0000 0.07780  0.23100  0.92440  Biso   1.000  C
  C120     1.0000 0.92220  0.23100  0.57560  Biso   1.000  C
  H73      1.0000 0.44920  0.28090  0.12450  Biso   1.000  H
  H74      1.0000 0.55080  0.28090  0.37550  Biso   1.000  H
  H75      1.0000 0.94920  0.78090  0.12450  Biso   1.000  H
  H76      1.0000 0.05080  0.78090  0.37550  Biso   1.000  H
  H77      1.0000 0.55080  0.71910  0.87550  Biso   1.000  H
  H78      1.0000 0.44920  0.71910  0.62450  Biso   1.000  H
  H79      1.0000 0.05080  0.21910  0.87550  Biso   1.000  H
  H80      1.0000 0.94920  0.21910  0.62450  Biso   1.000  H
  C121     1.0000 0.37800  0.35790  0.04870  Biso   1.000  C
  C122     1.0000 0.62200  0.35790  0.45130  Biso   1.000  C
  C123     1.0000 0.87800  0.85790  0.04870  Biso   1.000  C
  C124     1.0000 0.12200  0.85790  0.45130  Biso   1.000  C
  C125     1.0000 0.62200  0.64210  0.95130  Biso   1.000  C
  C126     1.0000 0.37800  0.64210  0.54870  Biso   1.000  C
  C127     1.0000 0.12200  0.14210  0.95130  Biso   1.000  C
  C128     1.0000 0.87800  0.14210  0.54870  Biso   1.000  C
  H81      1.0000 0.38210  0.44030  0.06950  Biso   1.000  H
  H82      1.0000 0.61790  0.44030  0.43050  Biso   1.000  H
  H83      1.0000 0.88210  0.94030  0.06950  Biso   1.000  H
  H84      1.0000 0.11790  0.94030  0.43050  Biso   1.000  H
  H85      1.0000 0.61790  0.55970  0.93050  Biso   1.000  H
  H86      1.0000 0.38210  0.55970  0.56950  Biso   1.000  H
  H87      1.0000 0.11790  0.05970  0.93050  Biso   1.000  H
  H88      1.0000 0.88210  0.05970  0.56950  Biso   1.000  H
  C129     1.0000 0.22730  0.66810  0.06790  Biso   1.000  C
  C130     1.0000 0.77270  0.66810  0.43210  Biso   1.000  C
  C131     1.0000 0.72730  0.16810  0.06790  Biso   1.000  C
  C132     1.0000 0.27270  0.16810  0.43210  Biso   1.000  C
  C133     1.0000 0.77270  0.33190  0.93210  Biso   1.000  C
  C134     1.0000 0.22730  0.33190  0.56790  Biso   1.000  C
  C135     1.0000 0.27270  0.83190  0.93210  Biso   1.000  C
  C136     1.0000 0.72730  0.83190  0.56790  Biso   1.000  C
  C137     1.0000 0.19600  0.81810  0.12420  Biso   1.000  C
  C138     1.0000 0.80400  0.81810  0.37580  Biso   1.000  C
  C139     1.0000 0.69600  0.31810  0.12420  Biso   1.000  C
  C140     1.0000 0.30400  0.31810  0.37580  Biso   1.000  C
  C141     1.0000 0.80400  0.18190  0.87580  Biso   1.000  C
  C142     1.0000 0.19600  0.18190  0.62420  Biso   1.000  C
  C143     1.0000 0.30400  0.68190  0.87580  Biso   1.000  C
  C144     1.0000 0.69600  0.68190  0.62420  Biso   1.000  C
  C145     1.0000 0.16660  0.91490  0.14620  Biso   1.000  C
  C146     1.0000 0.83340  0.91490  0.35380  Biso   1.000  C
  C147     1.0000 0.66660  0.41490  0.14620  Biso   1.000  C
  C148     1.0000 0.33340  0.41490  0.35380  Biso   1.000  C
  C149     1.0000 0.83340  0.08510  0.85380  Biso   1.000  C
  C150     1.0000 0.16660  0.08510  0.64620  Biso   1.000  C
  C151     1.0000 0.33340  0.58510  0.85380  Biso   1.000  C
  C152     1.0000 0.66660  0.58510  0.64620  Biso   1.000  C
  H89      1.0000 0.13090  0.93760  0.11510  Biso   1.000  H
  H90      1.0000 0.86910  0.93760  0.38490  Biso   1.000  H
  H91      1.0000 0.63090  0.43760  0.11510  Biso   1.000  H
  H92      1.0000 0.36910  0.43760  0.38490  Biso   1.000  H
  H93      1.0000 0.86910  0.06240  0.88490  Biso   1.000  H
  H94      1.0000 0.13090  0.06240  0.61510  Biso   1.000  H
  H95      1.0000 0.36910  0.56240  0.88490  Biso   1.000  H
  H96      1.0000 0.63090  0.56240  0.61510  Biso   1.000  H
  C153     1.0000 0.19390  0.97330  0.21630  Biso   1.000  C
  C154     1.0000 0.80610  0.97330  0.28370  Biso   1.000  C
  C155     1.0000 0.69390  0.47330  0.21630  Biso   1.000  C
  C156     1.0000 0.30610  0.47330  0.28370  Biso   1.000  C
  C157     1.0000 0.80610  0.02670  0.78370  Biso   1.000  C
  C158     1.0000 0.19390  0.02670  0.71630  Biso   1.000  C
  C159     1.0000 0.30610  0.52670  0.78370  Biso   1.000  C
  C160     1.0000 0.69390  0.52670  0.71630  Biso   1.000  C
  H97      1.0000 0.17580  0.03650  0.23370  Biso   1.000  H
  H98      1.0000 0.82420  0.03650  0.26630  Biso   1.000  H
  H99      1.0000 0.67580  0.53650  0.23370  Biso   1.000  H
  H100     1.0000 0.32420  0.53650  0.26630  Biso   1.000  H
  H101     1.0000 0.82420  0.96350  0.76630  Biso   1.000  H
  H102     1.0000 0.17580  0.96350  0.73370  Biso   1.000  H
  H103     1.0000 0.32420  0.46350  0.76630  Biso   1.000  H
  H104     1.0000 0.67580  0.46350  0.73370  Biso   1.000  H
  C161     1.0000 0.24840  0.94160  0.26320  Biso   1.000  C
  C162     1.0000 0.75160  0.94160  0.23680  Biso   1.000  C
  C163     1.0000 0.74840  0.44160  0.26320  Biso   1.000  C
  C164     1.0000 0.25160  0.44160  0.23680  Biso   1.000  C
  C165     1.0000 0.75160  0.05840  0.73680  Biso   1.000  C
  C166     1.0000 0.24840  0.05840  0.76320  Biso   1.000  C
  C167     1.0000 0.25160  0.55840  0.73680  Biso   1.000  C
  C168     1.0000 0.74840  0.55840  0.76320  Biso   1.000  C
  H105     1.0000 0.26530  0.98370  0.31040  Biso   1.000  H
  H106     1.0000 0.73470  0.98370  0.18960  Biso   1.000  H
  H107     1.0000 0.76530  0.48370  0.31040  Biso   1.000  H
  H108     1.0000 0.23470  0.48370  0.18960  Biso   1.000  H
  H109     1.0000 0.73470  0.01630  0.68960  Biso   1.000  H
  H110     1.0000 0.26530  0.01630  0.81040  Biso   1.000  H
  H111     1.0000 0.23470  0.51630  0.68960  Biso   1.000  H
  H112     1.0000 0.76530  0.51630  0.81040  Biso   1.000  H
  C169     1.0000 0.27680  0.84910  0.23990  Biso   1.000  C
  C170     1.0000 0.72320  0.84910  0.26010  Biso   1.000  C
  C171     1.0000 0.77680  0.34910  0.23990  Biso   1.000  C
  C172     1.0000 0.22320  0.34910  0.26010  Biso   1.000  C
  C173     1.0000 0.72320  0.15090  0.76010  Biso   1.000  C
  C174     1.0000 0.27680  0.15090  0.73990  Biso   1.000  C
  C175     1.0000 0.22320  0.65090  0.76010  Biso   1.000  C
  C176     1.0000 0.77680  0.65090  0.73990  Biso   1.000  C
  H113     1.0000 0.31280  0.82800  0.27060  Biso   1.000  H
  H114     1.0000 0.68720  0.82800  0.22940  Biso   1.000  H
  H115     1.0000 0.81280  0.32800  0.27060  Biso   1.000  H
  H116     1.0000 0.18720  0.32800  0.22940  Biso   1.000  H
  H117     1.0000 0.68720  0.17200  0.72940  Biso   1.000  H
  H118     1.0000 0.31280  0.17200  0.77060  Biso   1.000  H
  H119     1.0000 0.18720  0.67200  0.72940  Biso   1.000  H
  H120     1.0000 0.81280  0.67200  0.77060  Biso   1.000  H
  C177     1.0000 0.25000  0.78760  0.16890  Biso   1.000  C
  C178     1.0000 0.75000  0.78760  0.33110  Biso   1.000  C
  C179     1.0000 0.75000  0.28760  0.16890  Biso   1.000  C
  C180     1.0000 0.25000  0.28760  0.33110  Biso   1.000  C
  C181     1.0000 0.75000  0.21240  0.83110  Biso   1.000  C
  C182     1.0000 0.25000  0.21240  0.66890  Biso   1.000  C
  C183     1.0000 0.25000  0.71240  0.83110  Biso   1.000  C
  C184     1.0000 0.75000  0.71240  0.66890  Biso   1.000  C
  Cu1      1.0000 0.49508  0.06518  0.05995  Biso   1.000  Cu
  Cu2      1.0000 0.50492  0.06518  0.44005  Biso   1.000  Cu
  Cu3      1.0000 0.99508  0.56518  0.05995  Biso   1.000  Cu
  Cu4      1.0000 0.00492  0.56518  0.44005  Biso   1.000  Cu
  Cu5      1.0000 0.50492  0.93482  0.94005  Biso   1.000  Cu
  Cu6      1.0000 0.49508  0.93482  0.55995  Biso   1.000  Cu
  Cu7      1.0000 0.00492  0.43482  0.94005  Biso   1.000  Cu
  Cu8      1.0000 0.99508  0.43482  0.55995  Biso   1.000  Cu
  I1       1.0000 0.46116  0.81912  0.03638  Biso   1.000  I
  I2       1.0000 0.53884  0.81912  0.46362  Biso   1.000  I
  I3       1.0000 0.96116  0.31912  0.03638  Biso   1.000  I
  I4       1.0000 0.03884  0.31912  0.46362  Biso   1.000  I
  I5       1.0000 0.53884  0.18088  0.96362  Biso   1.000  I
  I6       1.0000 0.46116  0.18088  0.53638  Biso   1.000  I
  I7       1.0000 0.03884  0.68088  0.96362  Biso   1.000  I
  I8       1.0000 0.96116  0.68088  0.53638  Biso   1.000  I
  N1       1.0000 0.05440  0.43220  0.66620  Biso   1.000  N
  N2       1.0000 0.94560  0.43220  0.83380  Biso   1.000  N
  N3       1.0000 0.55440  0.93220  0.66620  Biso   1.000  N
  N4       1.0000 0.44560  0.93220  0.83380  Biso   1.000  N
  N5       1.0000 0.94560  0.56780  0.33380  Biso   1.000  N
  N6       1.0000 0.05440  0.56780  0.16620  Biso   1.000  N
  N7       1.0000 0.44560  0.06780  0.33380  Biso   1.000  N
  N8       1.0000 0.55440  0.06780  0.16620  Biso   1.000  N
  N9       1.0000 0.42600  0.16930  0.03300  Biso   1.000  N
  N10      1.0000 0.57400  0.16930  0.46700  Biso   1.000  N
  N11      1.0000 0.92600  0.66930  0.03300  Biso   1.000  N
  N12      1.0000 0.07400  0.66930  0.46700  Biso   1.000  N
  N13      1.0000 0.57400  0.83070  0.96700  Biso   1.000  N
  N14      1.0000 0.42600  0.83070  0.53300  Biso   1.000  N
  N15      1.0000 0.07400  0.33070  0.96700  Biso   1.000  N
  N16      1.0000 0.92600  0.33070  0.53300  Biso   1.000  N
  N17      1.0000 0.26890  0.69280  0.13250  Biso   1.000  N
  N18      1.0000 0.73110  0.69280  0.36750  Biso   1.000  N
  N19      1.0000 0.76890  0.19280  0.13250  Biso   1.000  N
  N20      1.0000 0.23110  0.19280  0.36750  Biso   1.000  N
  N21      1.0000 0.73110  0.30720  0.86750  Biso   1.000  N
  N22      1.0000 0.26890  0.30720  0.63250  Biso   1.000  N
  N23      1.0000 0.23110  0.80720  0.86750  Biso   1.000  N
  N24      1.0000 0.76890  0.80720  0.63250  Biso   1.000  N
  N25      1.0000 0.18240  0.74190  0.06050  Biso   1.000  N
  N26      1.0000 0.81760  0.74190  0.43950  Biso   1.000  N
  N27      1.0000 0.68240  0.24190  0.06050  Biso   1.000  N
  N28      1.0000 0.31760  0.24190  0.43950  Biso   1.000  N
  N29      1.0000 0.81760  0.25810  0.93950  Biso   1.000  N
  N30      1.0000 0.18240  0.25810  0.56050  Biso   1.000  N
  N31      1.0000 0.31760  0.75810  0.93950  Biso   1.000  N
  N32      1.0000 0.68240  0.75810  0.56050  Biso   1.000  N
  H121     1.0000 0.15470  0.71940  0.02590  Biso   1.000  H
  H122     1.0000 0.84530  0.71940  0.47410  Biso   1.000  H
  H123     1.0000 0.65470  0.21940  0.02590  Biso   1.000  H
  H124     1.0000 0.34530  0.21940  0.47410  Biso   1.000  H
  H125     1.0000 0.84530  0.28060  0.97410  Biso   1.000  H
  H126     1.0000 0.15470  0.28060  0.52590  Biso   1.000  H
  H127     1.0000 0.34530  0.78060  0.97410  Biso   1.000  H
  H128     1.0000 0.65470  0.78060  0.52590  Biso   1.000  H
  C185     1.0000 0.62010  0.65700  0.36600  Biso   1.000  C
  C186     1.0000 0.37990  0.65700  0.13400  Biso   1.000  C
  C187     1.0000 0.12010  0.15700  0.36600  Biso   1.000  C
  C188     1.0000 0.87990  0.15700  0.13400  Biso   1.000  C
  C189     1.0000 0.37990  0.34300  0.63400  Biso   1.000  C
  C190     1.0000 0.62010  0.34300  0.86600  Biso   1.000  C
  C191     1.0000 0.87990  0.84300  0.63400  Biso   1.000  C
  C192     1.0000 0.12010  0.84300  0.86600  Biso   1.000  C
  H129     1.0000 0.63580  0.68030  0.41840  Biso   1.000  H
  H130     1.0000 0.36420  0.68030  0.08160  Biso   1.000  H
  H131     1.0000 0.13580  0.18030  0.41840  Biso   1.000  H
  H132     1.0000 0.86420  0.18030  0.08160  Biso   1.000  H
  H133     1.0000 0.36420  0.31970  0.58160  Biso   1.000  H
  H134     1.0000 0.63580  0.31970  0.91840  Biso   1.000  H
  H135     1.0000 0.86420  0.81970  0.58160  Biso   1.000  H
  H136     1.0000 0.13580  0.81970  0.91840  Biso   1.000  H
  C193     1.0000 0.60240  0.63000  0.29740  Biso   1.000  C
  C194     1.0000 0.39760  0.63000  0.20260  Biso   1.000  C
  C195     1.0000 0.10240  0.13000  0.29740  Biso   1.000  C
  C196     1.0000 0.89760  0.13000  0.20260  Biso   1.000  C
  C197     1.0000 0.39760  0.37000  0.70260  Biso   1.000  C
  C198     1.0000 0.60240  0.37000  0.79740  Biso   1.000  C
  C199     1.0000 0.89760  0.87000  0.70260  Biso   1.000  C
  C200     1.0000 0.10240  0.87000  0.79740  Biso   1.000  C
  H137     1.0000 0.59010  0.60190  0.24590  Biso   1.000  H
  H138     1.0000 0.40990  0.60190  0.25410  Biso   1.000  H
  H139     1.0000 0.09010  0.10190  0.24590  Biso   1.000  H
  H140     1.0000 0.90990  0.10190  0.25410  Biso   1.000  H
  H141     1.0000 0.40990  0.39810  0.75410  Biso   1.000  H
  H142     1.0000 0.59010  0.39810  0.74590  Biso   1.000  H
  H143     1.0000 0.90990  0.89810  0.75410  Biso   1.000  H
  H144     1.0000 0.09010  0.89810  0.74590  Biso   1.000  H
  C201     1.0000 0.05000  0.48000  0.73000  Biso   1.000  C
  C202     1.0000 0.95000  0.48000  0.77000  Biso   1.000  C
  C203     1.0000 0.55000  0.98000  0.73000  Biso   1.000  C
  C204     1.0000 0.45000  0.98000  0.77000  Biso   1.000  C
  C205     1.0000 0.95000  0.52000  0.27000  Biso   1.000  C
  C206     1.0000 0.05000  0.52000  0.23000  Biso   1.000  C
  C207     1.0000 0.45000  0.02000  0.27000  Biso   1.000  C
  C208     1.0000 0.55000  0.02000  0.23000  Biso   1.000  C
  H145     1.0000 0.01550  0.50770  0.72680  Biso   1.000  H
  H146     1.0000 0.98450  0.50770  0.77320  Biso   1.000  H
  H147     1.0000 0.51550  0.00770  0.72680  Biso   1.000  H
  H148     1.0000 0.48450  0.00770  0.77320  Biso   1.000  H
  H149     1.0000 0.98450  0.49230  0.27320  Biso   1.000  H
  H150     1.0000 0.01550  0.49230  0.22680  Biso   1.000  H
  H151     1.0000 0.48450  0.99230  0.27320  Biso   1.000  H
  H152     1.0000 0.51550  0.99230  0.22680  Biso   1.000  H
  C209     1.0000 0.09190  0.49100  0.79940  Biso   1.000  C
  C210     1.0000 0.90810  0.49100  0.70060  Biso   1.000  C
  C211     1.0000 0.59190  0.99100  0.79940  Biso   1.000  C
  C212     1.0000 0.40810  0.99100  0.70060  Biso   1.000  C
  C213     1.0000 0.90810  0.50900  0.20060  Biso   1.000  C
  C214     1.0000 0.09190  0.50900  0.29940  Biso   1.000  C
  C215     1.0000 0.40810  0.00900  0.20060  Biso   1.000  C
  C216     1.0000 0.59190  0.00900  0.29940  Biso   1.000  C
  H153     1.0000 0.08540  0.53280  0.84000  Biso   1.000  H
  H154     1.0000 0.91460  0.53280  0.66000  Biso   1.000  H
  H155     1.0000 0.58540  0.03280  0.84000  Biso   1.000  H
  H156     1.0000 0.41460  0.03280  0.66000  Biso   1.000  H
  H157     1.0000 0.91460  0.46720  0.16000  Biso   1.000  H
  H158     1.0000 0.08540  0.46720  0.34000  Biso   1.000  H
  H159     1.0000 0.41460  0.96720  0.16000  Biso   1.000  H
  H160     1.0000 0.58540  0.96720  0.34000  Biso   1.000  H
  C217     1.0000 0.52530  0.57100  0.26500  Biso   1.000  C
  C218     1.0000 0.47470  0.57100  0.23500  Biso   1.000  C
  C219     1.0000 0.02530  0.07100  0.26500  Biso   1.000  C
  C220     1.0000 0.97470  0.07100  0.23500  Biso   1.000  C
  C221     1.0000 0.47470  0.42900  0.73500  Biso   1.000  C
  C222     1.0000 0.52530  0.42900  0.76500  Biso   1.000  C
  C223     1.0000 0.97470  0.92900  0.73500  Biso   1.000  C
  C224     1.0000 0.02530  0.92900  0.76500  Biso   1.000  C
  H161     1.0000 0.56350  0.57070  0.28750  Biso   1.000  H
  H162     1.0000 0.43650  0.57070  0.21250  Biso   1.000  H
  H163     1.0000 0.06350  0.07070  0.28750  Biso   1.000  H
  H164     1.0000 0.93650  0.07070  0.21250  Biso   1.000  H
  H165     1.0000 0.43650  0.42930  0.71250  Biso   1.000  H
  H166     1.0000 0.56350  0.42930  0.78750  Biso   1.000  H
  H167     1.0000 0.93650  0.92930  0.71250  Biso   1.000  H
  H168     1.0000 0.06350  0.92930  0.78750  Biso   1.000  H
