data_image0
_cell_length_a       3.89
_cell_length_b       11.811
_cell_length_c       19.83
_cell_angle_alpha    90
_cell_angle_beta     91.62
_cell_angle_gamma    90

_symmetry_space_group_name_H-M    "P 1"
_symmetry_int_tables_number       1

loop_
  _symmetry_equiv_pos_as_xyz
  'x, y, z'

loop_
  _atom_site_label
  _atom_site_occupancy
  _atom_site_fract_x
  _atom_site_fract_y
  _atom_site_fract_z
  _atom_site_thermal_displace_type
  _atom_site_B_iso_or_equiv
  _atom_site_type_symbol
  Cu1      1.0000 0.14470  0.04990  0.45010  Biso   1.000  Cu
  Cu2      1.0000 0.35530  0.54990  0.04990  Biso   1.000  Cu
  Cu3      1.0000 0.85530  0.95010  0.54990  Biso   1.000  Cu
  Cu4      1.0000 0.64470  0.45010  0.95010  Biso   1.000  Cu
  S1       1.0000 0.13760  0.94230  0.35570  Biso   1.000  S
  S2       1.0000 0.36240  0.44230  0.14430  Biso   1.000  S
  S3       1.0000 0.86240  0.05770  0.64430  Biso   1.000  S
  S4       1.0000 0.63760  0.55770  0.85570  Biso   1.000  S
  S5       1.0000 0.65340  0.14550  0.46750  Biso   1.000  S
  S6       1.0000 0.84660  0.64550  0.03250  Biso   1.000  S
  S7       1.0000 0.34660  0.85450  0.53250  Biso   1.000  S
  S8       1.0000 0.15340  0.35450  0.96750  Biso   1.000  S
  C1       1.0000 0.31470  0.82480  0.38990  Biso   1.000  C
  C2       1.0000 0.18530  0.32480  0.11010  Biso   1.000  C
  C3       1.0000 0.68530  0.17520  0.61010  Biso   1.000  C
  C4       1.0000 0.81470  0.67520  0.88990  Biso   1.000  C
  C5       1.0000 0.60120  0.20650  0.54440  Biso   1.000  C
  C6       1.0000 0.89880  0.70650  0.95560  Biso   1.000  C
  C7       1.0000 0.39880  0.79350  0.45560  Biso   1.000  C
  C8       1.0000 0.10120  0.29350  0.04440  Biso   1.000  C
  C9       1.0000 0.43360  0.31130  0.56530  Biso   1.000  C
  C10      1.0000 0.06640  0.81130  0.93470  Biso   1.000  C
  C11      1.0000 0.56640  0.68870  0.43470  Biso   1.000  C
  C12      1.0000 0.93360  0.18870  0.06530  Biso   1.000  C
  C13      1.0000 0.47060  0.72150  0.36280  Biso   1.000  C
  C14      1.0000 0.02940  0.22150  0.13720  Biso   1.000  C
  C15      1.0000 0.52940  0.27850  0.63720  Biso   1.000  C
  C16      1.0000 0.97060  0.77850  0.86280  Biso   1.000  C
  O1       1.0000 0.27490  0.38760  0.53860  Biso   1.000  O
  O2       1.0000 0.22510  0.88760  0.96140  Biso   1.000  O
  O3       1.0000 0.72510  0.61240  0.46140  Biso   1.000  O
  O4       1.0000 0.77490  0.11240  0.03860  Biso   1.000  O
  O5       1.0000 0.51790  0.68110  0.30760  Biso   1.000  O
  O6       1.0000 0.98210  0.18110  0.19240  Biso   1.000  O
  O7       1.0000 0.48210  0.31890  0.69240  Biso   1.000  O
  O8       1.0000 0.01790  0.81890  0.80760  Biso   1.000  O
  C17      1.0000 0.51640  0.11400  0.83970  Biso   1.000  C
  C18      1.0000 0.98360  0.61400  0.66030  Biso   1.000  C
  C19      1.0000 0.48360  0.88600  0.16030  Biso   1.000  C
  C20      1.0000 0.01640  0.38600  0.33970  Biso   1.000  C
  N1       1.0000 0.36020  0.05250  0.79300  Biso   1.000  N
  N2       1.0000 0.13980  0.55250  0.70700  Biso   1.000  N
  N3       1.0000 0.63980  0.94750  0.20700  Biso   1.000  N
  N4       1.0000 0.86020  0.44750  0.29300  Biso   1.000  N
  N5       1.0000 0.54790  0.07550  0.90130  Biso   1.000  N
  N6       1.0000 0.95210  0.57550  0.59870  Biso   1.000  N
  N7       1.0000 0.45210  0.92450  0.09870  Biso   1.000  N
  N8       1.0000 0.04790  0.42450  0.40130  Biso   1.000  N
  N9       1.0000 0.64100  0.21450  0.82420  Biso   1.000  N
  N10      1.0000 0.85900  0.71450  0.67580  Biso   1.000  N
  N11      1.0000 0.35900  0.78550  0.17580  Biso   1.000  N
  N12      1.0000 0.14100  0.28550  0.32420  Biso   1.000  N
  H1       1.0000 0.33690  0.07660  0.75270  Biso   1.000  H
  H2       1.0000 0.16310  0.57660  0.74730  Biso   1.000  H
  H3       1.0000 0.66310  0.92340  0.24730  Biso   1.000  H
  H4       1.0000 0.83690  0.42340  0.25270  Biso   1.000  H
  H5       1.0000 0.27980  0.98810  0.80350  Biso   1.000  H
  H6       1.0000 0.22020  0.48810  0.69650  Biso   1.000  H
  H7       1.0000 0.72020  0.01190  0.19650  Biso   1.000  H
  H8       1.0000 0.77980  0.51190  0.30350  Biso   1.000  H
  H9       1.0000 0.46680  0.01100  0.91130  Biso   1.000  H
  H10      1.0000 0.03320  0.51100  0.58870  Biso   1.000  H
  H11      1.0000 0.53320  0.98900  0.08870  Biso   1.000  H
  H12      1.0000 0.96680  0.48900  0.41130  Biso   1.000  H
  H13      1.0000 0.65110  0.11510  0.93140  Biso   1.000  H
  H14      1.0000 0.84890  0.61510  0.56860  Biso   1.000  H
  H15      1.0000 0.34890  0.88490  0.06860  Biso   1.000  H
  H16      1.0000 0.15110  0.38490  0.43140  Biso   1.000  H
  H17      1.0000 0.61870  0.23920  0.78410  Biso   1.000  H
  H18      1.0000 0.88130  0.73920  0.71590  Biso   1.000  H
  H19      1.0000 0.38130  0.76080  0.21590  Biso   1.000  H
  H20      1.0000 0.11870  0.26080  0.28410  Biso   1.000  H
  H21      1.0000 0.74440  0.25420  0.85430  Biso   1.000  H
  H22      1.0000 0.75560  0.75420  0.64570  Biso   1.000  H
  H23      1.0000 0.25560  0.74580  0.14570  Biso   1.000  H
  H24      1.0000 0.24440  0.24580  0.35430  Biso   1.000  H
