data_image0
_cell_length_a       9.445
_cell_length_b       11.272
_cell_length_c       16.646
_cell_angle_alpha    90
_cell_angle_beta     96.041
_cell_angle_gamma    90

_symmetry_space_group_name_H-M    "P 1"
_symmetry_int_tables_number       1

loop_
  _symmetry_equiv_pos_as_xyz
  'x, y, z'

loop_
  _atom_site_label
  _atom_site_occupancy
  _atom_site_fract_x
  _atom_site_fract_y
  _atom_site_fract_z
  _atom_site_thermal_displace_type
  _atom_site_B_iso_or_equiv
  _atom_site_type_symbol
  Cu1      1.0000 0.81737  0.20982  0.18672  Biso   1.000  Cu
  Cu2      1.0000 0.68263  0.70982  0.31328  Biso   1.000  Cu
  Cu3      1.0000 0.18263  0.79018  0.81328  Biso   1.000  Cu
  Cu4      1.0000 0.31737  0.29018  0.68672  Biso   1.000  Cu
  N1       1.0000 0.75300  0.71390  0.84246  Biso   1.000  N
  N2       1.0000 0.74700  0.21390  0.65754  Biso   1.000  N
  N3       1.0000 0.24700  0.28610  0.15754  Biso   1.000  N
  N4       1.0000 0.25300  0.78610  0.34246  Biso   1.000  N
  N5       1.0000 0.96150  0.79500  0.82360  Biso   1.000  N
  N6       1.0000 0.53850  0.29500  0.67640  Biso   1.000  N
  N7       1.0000 0.03850  0.20500  0.17640  Biso   1.000  N
  N8       1.0000 0.46150  0.70500  0.32360  Biso   1.000  N
  N9       1.0000 0.19450  0.62670  0.75757  Biso   1.000  N
  N10      1.0000 0.30550  0.12670  0.74243  Biso   1.000  N
  N11      1.0000 0.80550  0.37330  0.24243  Biso   1.000  N
  N12      1.0000 0.69450  0.87330  0.25757  Biso   1.000  N
  N13      1.0000 0.22950  0.44020  0.72364  Biso   1.000  N
  N14      1.0000 0.27050  0.94020  0.77636  Biso   1.000  N
  N15      1.0000 0.77050  0.55980  0.27636  Biso   1.000  N
  N16      1.0000 0.72950  0.05980  0.22364  Biso   1.000  N
  N17      1.0000 0.63510  0.33660  0.95906  Biso   1.000  N
  N18      1.0000 0.86490  0.83660  0.54094  Biso   1.000  N
  N19      1.0000 0.36490  0.66340  0.04094  Biso   1.000  N
  N20      1.0000 0.13510  0.16340  0.45906  Biso   1.000  N
  N21      1.0000 0.72080  0.24010  0.06929  Biso   1.000  N
  N22      1.0000 0.77920  0.74010  0.43071  Biso   1.000  N
  N23      1.0000 0.27920  0.75990  0.93071  Biso   1.000  N
  N24      1.0000 0.22080  0.25990  0.56929  Biso   1.000  N
  C1       1.0000 0.46530  0.43500  0.86076  Biso   1.000  C
  C2       1.0000 0.03470  0.93500  0.63924  Biso   1.000  C
  C3       1.0000 0.53470  0.56500  0.13924  Biso   1.000  C
  C4       1.0000 0.96530  0.06500  0.36076  Biso   1.000  C
  H1       1.0000 0.40423  0.37053  0.86211  Biso   1.000  H
  H2       1.0000 0.09577  0.87053  0.63789  Biso   1.000  H
  H3       1.0000 0.59577  0.62947  0.13789  Biso   1.000  H
  H4       1.0000 0.90423  0.12947  0.36211  Biso   1.000  H
  C5       1.0000 0.58580  0.22130  0.95070  Biso   1.000  C
  C6       1.0000 0.91420  0.72130  0.54930  Biso   1.000  C
  C7       1.0000 0.41420  0.77870  0.04930  Biso   1.000  C
  C8       1.0000 0.08580  0.27870  0.45070  Biso   1.000  C
  H5       1.0000 0.52775  0.18968  0.90731  Biso   1.000  H
  H6       1.0000 0.97225  0.68968  0.59269  Biso   1.000  H
  H7       1.0000 0.47225  0.81032  0.09269  Biso   1.000  H
  H8       1.0000 0.02775  0.31032  0.40731  Biso   1.000  H
  C9       1.0000 0.51710  0.62940  0.81000  Biso   1.000  C
  C10      1.0000 0.98290  0.12940  0.69000  Biso   1.000  C
  C11      1.0000 0.48290  0.37060  0.19000  Biso   1.000  C
  C12      1.0000 0.01710  0.87060  0.31000  Biso   1.000  C
  H9       1.0000 0.48906  0.69640  0.77986  Biso   1.000  H
  H10      1.0000 0.01094  0.19640  0.72014  Biso   1.000  H
  H11      1.0000 0.51094  0.30360  0.22014  Biso   1.000  H
  H12      1.0000 0.98906  0.80360  0.27986  Biso   1.000  H
  N25      1.0000 0.07910  0.58660  0.70927  Biso   1.000  N
  N26      1.0000 0.42090  0.08660  0.79073  Biso   1.000  N
  N27      1.0000 0.92090  0.41340  0.29073  Biso   1.000  N
  N28      1.0000 0.57910  0.91340  0.20927  Biso   1.000  N
  N29      1.0000 0.10040  0.47640  0.68942  Biso   1.000  N
  N30      1.0000 0.39960  0.97640  0.81058  Biso   1.000  N
  N31      1.0000 0.89960  0.52360  0.31058  Biso   1.000  N
  N32      1.0000 0.60040  0.02360  0.18942  Biso   1.000  N
  C13      1.0000 0.42480  0.53330  0.81325  Biso   1.000  C
  C14      1.0000 0.07520  0.03330  0.68675  Biso   1.000  C
  C15      1.0000 0.57520  0.46670  0.18675  Biso   1.000  C
  C16      1.0000 0.92480  0.96670  0.31325  Biso   1.000  C
  C17      1.0000 0.28390  0.53390  0.76492  Biso   1.000  C
  C18      1.0000 0.21610  0.03390  0.73508  Biso   1.000  C
  C19      1.0000 0.71610  0.46610  0.23508  Biso   1.000  C
  C20      1.0000 0.78390  0.96610  0.26492  Biso   1.000  C
  C21      1.0000 0.72610  0.83070  0.82020  Biso   1.000  C
  C22      1.0000 0.77390  0.33070  0.67980  Biso   1.000  C
  C23      1.0000 0.27390  0.16930  0.17980  Biso   1.000  C
  C24      1.0000 0.22610  0.66930  0.32020  Biso   1.000  C
  H13      1.0000 0.63818  0.86862  0.81401  Biso   1.000  H
  H14      1.0000 0.86182  0.36862  0.68599  Biso   1.000  H
  H15      1.0000 0.36182  0.13138  0.18599  Biso   1.000  H
  H16      1.0000 0.13818  0.63138  0.31401  Biso   1.000  H
  C25      1.0000 0.59770  0.43370  0.90630  Biso   1.000  C
  C26      1.0000 0.90230  0.93370  0.59370  Biso   1.000  C
  C27      1.0000 0.40230  0.56630  0.09370  Biso   1.000  C
  C28      1.0000 0.09770  0.06630  0.40630  Biso   1.000  C
  C29      1.0000 0.89720  0.69750  0.84350  Biso   1.000  C
  C30      1.0000 0.60280  0.19750  0.65650  Biso   1.000  C
  C31      1.0000 0.10280  0.30250  0.15650  Biso   1.000  C
  C32      1.0000 0.39720  0.80250  0.34350  Biso   1.000  C
  H17      1.0000 0.94368  0.62631  0.85662  Biso   1.000  H
  H18      1.0000 0.55632  0.12631  0.64338  Biso   1.000  H
  H19      1.0000 0.05632  0.37369  0.14338  Biso   1.000  H
  H20      1.0000 0.44368  0.87369  0.35662  Biso   1.000  H
  C33      1.0000 0.65200  0.62330  0.85270  Biso   1.000  C
  C34      1.0000 0.84800  0.12330  0.64730  Biso   1.000  C
  C35      1.0000 0.34800  0.37670  0.14730  Biso   1.000  C
  C36      1.0000 0.15200  0.87670  0.35270  Biso   1.000  C
  C37      1.0000 0.69280  0.52750  0.90210  Biso   1.000  C
  C38      1.0000 0.80720  0.02750  0.59790  Biso   1.000  C
  C39      1.0000 0.30720  0.47250  0.09790  Biso   1.000  C
  C40      1.0000 0.19280  0.97250  0.40210  Biso   1.000  C
  H21      1.0000 0.78184  0.52593  0.93182  Biso   1.000  H
  H22      1.0000 0.71816  0.02593  0.56818  Biso   1.000  H
  H23      1.0000 0.21816  0.47407  0.06818  Biso   1.000  H
  H24      1.0000 0.28184  0.97407  0.43182  Biso   1.000  H
  C41      1.0000 0.71570  0.34230  0.03200  Biso   1.000  C
  C42      1.0000 0.78430  0.84230  0.46800  Biso   1.000  C
  C43      1.0000 0.28430  0.65770  0.96800  Biso   1.000  C
  C44      1.0000 0.21570  0.15770  0.53200  Biso   1.000  C
  H25      1.0000 0.76149  0.41054  0.05257  Biso   1.000  H
  H26      1.0000 0.73851  0.91054  0.44743  Biso   1.000  H
  H27      1.0000 0.23851  0.58946  0.94743  Biso   1.000  H
  H28      1.0000 0.26149  0.08946  0.55257  Biso   1.000  H
  C45      1.0000 0.85400  0.87830  0.80930  Biso   1.000  C
  C46      1.0000 0.64600  0.37830  0.69070  Biso   1.000  C
  C47      1.0000 0.14600  0.12170  0.19070  Biso   1.000  C
  C48      1.0000 0.35400  0.62170  0.30930  Biso   1.000  C
  H29      1.0000 0.86796  0.95649  0.79430  Biso   1.000  H
  H30      1.0000 0.63204  0.45649  0.70570  Biso   1.000  H
  H31      1.0000 0.13204  0.04351  0.20570  Biso   1.000  H
  H32      1.0000 0.36796  0.54351  0.29430  Biso   1.000  H
  C49      1.0000 0.63930  0.16390  0.01850  Biso   1.000  C
  C50      1.0000 0.86070  0.66390  0.48150  Biso   1.000  C
  C51      1.0000 0.36070  0.83610  0.98150  Biso   1.000  C
  C52      1.0000 0.13930  0.33610  0.51850  Biso   1.000  C
  H33      1.0000 0.62341  0.08437  0.02942  Biso   1.000  H
  H34      1.0000 0.87659  0.58437  0.47058  Biso   1.000  H
  H35      1.0000 0.37659  0.91563  0.97058  Biso   1.000  H
  H36      1.0000 0.12341  0.41563  0.52942  Biso   1.000  H
  N33      1.0000 0.93860  0.76860  0.07800  Biso   1.000  N
  N34      1.0000 0.56140  0.26860  0.42200  Biso   1.000  N
  N35      1.0000 0.06140  0.23140  0.92200  Biso   1.000  N
  N36      1.0000 0.43860  0.73140  0.57800  Biso   1.000  N
  O1       1.0000 0.92030  0.56890  0.08690  Biso   1.000  O
  O2       1.0000 0.57970  0.06890  0.41310  Biso   1.000  O
  O3       1.0000 0.07970  0.43110  0.91310  Biso   1.000  O
  O4       1.0000 0.42030  0.93110  0.58690  Biso   1.000  O
  C53      1.0000 0.98280  0.65840  0.09600  Biso   1.000  C
  C54      1.0000 0.51720  0.15840  0.40400  Biso   1.000  C
  C55      1.0000 0.01720  0.34160  0.90400  Biso   1.000  C
  C56      1.0000 0.48280  0.84160  0.59600  Biso   1.000  C
  H37      1.0000 0.07649  0.65183  0.11908  Biso   1.000  H
  H38      1.0000 0.42351  0.15183  0.38092  Biso   1.000  H
  H39      1.0000 0.92351  0.34817  0.88092  Biso   1.000  H
  H40      1.0000 0.57649  0.84817  0.61908  Biso   1.000  H
  C57      1.0000 0.79820  0.79420  0.04720  Biso   1.000  C
  C58      1.0000 0.70180  0.29420  0.45280  Biso   1.000  C
  C59      1.0000 0.20180  0.20580  0.95280  Biso   1.000  C
  C60      1.0000 0.29820  0.70580  0.54720  Biso   1.000  C
  H41      1.0000 0.78814  0.87805  0.03830  Biso   1.000  H
  H42      1.0000 0.71186  0.37805  0.46170  Biso   1.000  H
  H43      1.0000 0.21186  0.12195  0.96170  Biso   1.000  H
  H44      1.0000 0.28814  0.62195  0.53830  Biso   1.000  H
  H45      1.0000 0.77575  0.75301  0.99694  Biso   1.000  H
  H46      1.0000 0.72425  0.25301  0.50306  Biso   1.000  H
  H47      1.0000 0.22425  0.24699  0.00306  Biso   1.000  H
  H48      1.0000 0.27575  0.74699  0.49694  Biso   1.000  H
  H49      1.0000 0.73439  0.76901  0.08507  Biso   1.000  H
  H50      1.0000 0.76561  0.26901  0.41493  Biso   1.000  H
  H51      1.0000 0.26561  0.23099  0.91493  Biso   1.000  H
  H52      1.0000 0.23439  0.73099  0.58507  Biso   1.000  H
  C61      1.0000 0.04140  0.86010  0.08730  Biso   1.000  C
  C62      1.0000 0.45860  0.36010  0.41270  Biso   1.000  C
  C63      1.0000 0.95860  0.13990  0.91270  Biso   1.000  C
  C64      1.0000 0.54140  0.63990  0.58730  Biso   1.000  C
  H53      1.0000 0.99687  0.93463  0.07261  Biso   1.000  H
  H54      1.0000 0.50313  0.43463  0.42739  Biso   1.000  H
  H55      1.0000 0.00313  0.06537  0.92739  Biso   1.000  H
  H56      1.0000 0.49687  0.56537  0.57261  Biso   1.000  H
  H57      1.0000 0.08217  0.86317  0.14259  Biso   1.000  H
  H58      1.0000 0.41783  0.36317  0.35741  Biso   1.000  H
  H59      1.0000 0.91783  0.13683  0.85741  Biso   1.000  H
  H60      1.0000 0.58217  0.63683  0.64259  Biso   1.000  H
  H61      1.0000 0.11491  0.84449  0.05307  Biso   1.000  H
  H62      1.0000 0.38509  0.34449  0.44693  Biso   1.000  H
  H63      1.0000 0.88509  0.15551  0.94693  Biso   1.000  H
  H64      1.0000 0.61491  0.65551  0.55307  Biso   1.000  H
