data_image0
_cell_length_a       10.934
_cell_length_b       31.788
_cell_length_c       10.119
_cell_angle_alpha    90
_cell_angle_beta     98.757
_cell_angle_gamma    90

_symmetry_space_group_name_H-M    "P 1"
_symmetry_int_tables_number       1

loop_
  _symmetry_equiv_pos_as_xyz
  'x, y, z'

loop_
  _atom_site_label
  _atom_site_occupancy
  _atom_site_fract_x
  _atom_site_fract_y
  _atom_site_fract_z
  _atom_site_thermal_displace_type
  _atom_site_B_iso_or_equiv
  _atom_site_type_symbol
  Cu1      1.0000 0.22768  0.12379  0.09549  Biso   1.000  Cu
  Cu2      1.0000 0.77232  0.12379  0.40451  Biso   1.000  Cu
  Cu3      1.0000 0.72768  0.62379  0.09549  Biso   1.000  Cu
  Cu4      1.0000 0.27232  0.62379  0.40451  Biso   1.000  Cu
  Cu5      1.0000 0.77232  0.87621  0.90451  Biso   1.000  Cu
  Cu6      1.0000 0.22768  0.87621  0.59549  Biso   1.000  Cu
  Cu7      1.0000 0.27232  0.37621  0.90451  Biso   1.000  Cu
  Cu8      1.0000 0.72768  0.37621  0.59549  Biso   1.000  Cu
  N1       1.0000 0.41840  0.38070  0.80240  Biso   1.000  N
  N2       1.0000 0.58160  0.38070  0.69760  Biso   1.000  N
  N3       1.0000 0.91840  0.88070  0.80240  Biso   1.000  N
  N4       1.0000 0.08160  0.88070  0.69760  Biso   1.000  N
  N5       1.0000 0.58160  0.61930  0.19760  Biso   1.000  N
  N6       1.0000 0.41840  0.61930  0.30240  Biso   1.000  N
  N7       1.0000 0.08160  0.11930  0.19760  Biso   1.000  N
  N8       1.0000 0.91840  0.11930  0.30240  Biso   1.000  N
  C1       1.0000 0.50000  0.11185  0.25000  Biso   1.000  C
  C2       1.0000 0.00000  0.61185  0.25000  Biso   1.000  C
  C3       1.0000 0.50000  0.88815  0.75000  Biso   1.000  C
  C4       1.0000 0.00000  0.38815  0.75000  Biso   1.000  C
  N9       1.0000 0.68210  0.97790  0.13930  Biso   1.000  N
  N10      1.0000 0.31790  0.97790  0.36070  Biso   1.000  N
  N11      1.0000 0.18210  0.47790  0.13930  Biso   1.000  N
  N12      1.0000 0.81790  0.47790  0.36070  Biso   1.000  N
  N13      1.0000 0.31790  0.02210  0.86070  Biso   1.000  N
  N14      1.0000 0.68210  0.02210  0.63930  Biso   1.000  N
  N15      1.0000 0.81790  0.52210  0.86070  Biso   1.000  N
  N16      1.0000 0.18210  0.52210  0.63930  Biso   1.000  N
  C5       1.0000 0.50000  0.35673  0.75000  Biso   1.000  C
  C6       1.0000 0.00000  0.85673  0.75000  Biso   1.000  C
  C7       1.0000 0.50000  0.64327  0.25000  Biso   1.000  C
  C8       1.0000 0.00000  0.14327  0.25000  Biso   1.000  C
  N17      1.0000 0.45120  0.42082  0.77940  Biso   1.000  N
  N18      1.0000 0.54880  0.42082  0.72060  Biso   1.000  N
  N19      1.0000 0.95120  0.92082  0.77940  Biso   1.000  N
  N20      1.0000 0.04880  0.92082  0.72060  Biso   1.000  N
  N21      1.0000 0.54880  0.57918  0.22060  Biso   1.000  N
  N22      1.0000 0.45120  0.57918  0.27940  Biso   1.000  N
  N23      1.0000 0.04880  0.07918  0.22060  Biso   1.000  N
  N24      1.0000 0.95120  0.07918  0.27940  Biso   1.000  N
  N25      1.0000 0.30960  0.22132  0.84250  Biso   1.000  N
  N26      1.0000 0.69040  0.22132  0.65750  Biso   1.000  N
  N27      1.0000 0.80960  0.72132  0.84250  Biso   1.000  N
  N28      1.0000 0.19040  0.72132  0.65750  Biso   1.000  N
  N29      1.0000 0.69040  0.77868  0.15750  Biso   1.000  N
  N30      1.0000 0.30960  0.77868  0.34250  Biso   1.000  N
  N31      1.0000 0.19040  0.27868  0.15750  Biso   1.000  N
  N32      1.0000 0.80960  0.27868  0.34250  Biso   1.000  N
  C9       1.0000 0.50000  0.97780  0.25000  Biso   1.000  C
  C10      1.0000 0.00000  0.47780  0.25000  Biso   1.000  C
  C11      1.0000 0.50000  0.02220  0.75000  Biso   1.000  C
  C12      1.0000 0.00000  0.52220  0.75000  Biso   1.000  C
  H1       1.0000 0.50000  0.94858  0.25000  Biso   1.000  H
  H2       1.0000 0.00000  0.44858  0.25000  Biso   1.000  H
  H3       1.0000 0.50000  0.05142  0.75000  Biso   1.000  H
  H4       1.0000 0.00000  0.55142  0.75000  Biso   1.000  H
  N33      1.0000 0.76100  0.93059  0.01480  Biso   1.000  N
  N34      1.0000 0.23900  0.93059  0.48520  Biso   1.000  N
  N35      1.0000 0.26100  0.43059  0.01480  Biso   1.000  N
  N36      1.0000 0.73900  0.43059  0.48520  Biso   1.000  N
  N37      1.0000 0.23900  0.06941  0.98520  Biso   1.000  N
  N38      1.0000 0.76100  0.06941  0.51480  Biso   1.000  N
  N39      1.0000 0.73900  0.56941  0.98520  Biso   1.000  N
  N40      1.0000 0.26100  0.56941  0.51480  Biso   1.000  N
  C13      1.0000 0.59350  0.04384  0.20030  Biso   1.000  C
  C14      1.0000 0.40650  0.04384  0.29970  Biso   1.000  C
  C15      1.0000 0.09350  0.54384  0.20030  Biso   1.000  C
  C16      1.0000 0.90650  0.54384  0.29970  Biso   1.000  C
  C17      1.0000 0.40650  0.95616  0.79970  Biso   1.000  C
  C18      1.0000 0.59350  0.95616  0.70030  Biso   1.000  C
  C19      1.0000 0.90650  0.45616  0.79970  Biso   1.000  C
  C20      1.0000 0.09350  0.45616  0.70030  Biso   1.000  C
  H5       1.0000 0.65646  0.05833  0.16774  Biso   1.000  H
  H6       1.0000 0.34354  0.05833  0.33226  Biso   1.000  H
  H7       1.0000 0.15646  0.55833  0.16774  Biso   1.000  H
  H8       1.0000 0.84354  0.55833  0.33226  Biso   1.000  H
  H9       1.0000 0.34354  0.94167  0.83226  Biso   1.000  H
  H10      1.0000 0.65646  0.94167  0.66774  Biso   1.000  H
  H11      1.0000 0.84354  0.44167  0.83226  Biso   1.000  H
  H12      1.0000 0.15646  0.44167  0.66774  Biso   1.000  H
  C21      1.0000 0.50000  0.22260  0.75000  Biso   1.000  C
  C22      1.0000 0.00000  0.72260  0.75000  Biso   1.000  C
  C23      1.0000 0.50000  0.77740  0.25000  Biso   1.000  C
  C24      1.0000 0.00000  0.27740  0.25000  Biso   1.000  C
  H13      1.0000 0.50000  0.19337  0.75000  Biso   1.000  H
  H14      1.0000 0.00000  0.69337  0.75000  Biso   1.000  H
  H15      1.0000 0.50000  0.80663  0.25000  Biso   1.000  H
  H16      1.0000 0.00000  0.30663  0.25000  Biso   1.000  H
  C25      1.0000 0.50000  0.06572  0.25000  Biso   1.000  C
  C26      1.0000 0.00000  0.56572  0.25000  Biso   1.000  C
  C27      1.0000 0.50000  0.93428  0.75000  Biso   1.000  C
  C28      1.0000 0.00000  0.43428  0.75000  Biso   1.000  C
  C29      1.0000 0.40240  0.28756  0.79020  Biso   1.000  C
  C30      1.0000 0.59760  0.28756  0.70980  Biso   1.000  C
  C31      1.0000 0.90240  0.78756  0.79020  Biso   1.000  C
  C32      1.0000 0.09760  0.78756  0.70980  Biso   1.000  C
  C33      1.0000 0.59760  0.71244  0.20980  Biso   1.000  C
  C34      1.0000 0.40240  0.71244  0.29020  Biso   1.000  C
  C35      1.0000 0.09760  0.21244  0.20980  Biso   1.000  C
  C36      1.0000 0.90240  0.21244  0.29020  Biso   1.000  C
  H17      1.0000 0.33521  0.30184  0.81507  Biso   1.000  H
  H18      1.0000 0.66479  0.30184  0.68493  Biso   1.000  H
  H19      1.0000 0.83521  0.80184  0.81507  Biso   1.000  H
  H20      1.0000 0.16479  0.80184  0.68493  Biso   1.000  H
  H21      1.0000 0.66479  0.69816  0.18493  Biso   1.000  H
  H22      1.0000 0.33521  0.69816  0.31507  Biso   1.000  H
  H23      1.0000 0.16479  0.19816  0.18493  Biso   1.000  H
  H24      1.0000 0.83521  0.19816  0.31507  Biso   1.000  H
  C37      1.0000 0.50000  0.31040  0.75000  Biso   1.000  C
  C38      1.0000 0.00000  0.81040  0.75000  Biso   1.000  C
  C39      1.0000 0.50000  0.68960  0.25000  Biso   1.000  C
  C40      1.0000 0.00000  0.18960  0.25000  Biso   1.000  C
  N41      1.0000 0.22080  0.17209  0.95130  Biso   1.000  N
  N42      1.0000 0.77920  0.17209  0.54870  Biso   1.000  N
  N43      1.0000 0.72080  0.67209  0.95130  Biso   1.000  N
  N44      1.0000 0.27920  0.67209  0.54870  Biso   1.000  N
  N45      1.0000 0.77920  0.82791  0.04870  Biso   1.000  N
  N46      1.0000 0.22080  0.82791  0.45130  Biso   1.000  N
  N47      1.0000 0.27920  0.32791  0.04870  Biso   1.000  N
  N48      1.0000 0.72080  0.32791  0.45130  Biso   1.000  N
  N49      1.0000 0.40140  0.13532  0.20750  Biso   1.000  N
  N50      1.0000 0.59860  0.13532  0.29250  Biso   1.000  N
  N51      1.0000 0.90140  0.63532  0.20750  Biso   1.000  N
  N52      1.0000 0.09860  0.63532  0.29250  Biso   1.000  N
  N53      1.0000 0.59860  0.86468  0.79250  Biso   1.000  N
  N54      1.0000 0.40140  0.86468  0.70750  Biso   1.000  N
  N55      1.0000 0.09860  0.36468  0.79250  Biso   1.000  N
  N56      1.0000 0.90140  0.36468  0.70750  Biso   1.000  N
  C41      1.0000 0.66320  0.94171  0.06790  Biso   1.000  C
  C42      1.0000 0.33680  0.94171  0.43210  Biso   1.000  C
  C43      1.0000 0.16320  0.44171  0.06790  Biso   1.000  C
  C44      1.0000 0.83680  0.44171  0.43210  Biso   1.000  C
  C45      1.0000 0.33680  0.05829  0.93210  Biso   1.000  C
  C46      1.0000 0.66320  0.05829  0.56790  Biso   1.000  C
  C47      1.0000 0.83680  0.55829  0.93210  Biso   1.000  C
  C48      1.0000 0.16320  0.55829  0.56790  Biso   1.000  C
  H25      1.0000 0.58966  0.92652  0.05771  Biso   1.000  H
  H26      1.0000 0.41034  0.92652  0.44229  Biso   1.000  H
  H27      1.0000 0.08966  0.42652  0.05771  Biso   1.000  H
  H28      1.0000 0.91034  0.42652  0.44229  Biso   1.000  H
  H29      1.0000 0.41034  0.07348  0.94229  Biso   1.000  H
  H30      1.0000 0.58966  0.07348  0.55771  Biso   1.000  H
  H31      1.0000 0.91034  0.57348  0.94229  Biso   1.000  H
  H32      1.0000 0.08966  0.57348  0.55771  Biso   1.000  H
  C49      1.0000 0.59170  0.00024  0.19990  Biso   1.000  C
  C50      1.0000 0.40830  0.00024  0.30010  Biso   1.000  C
  C51      1.0000 0.09170  0.50024  0.19990  Biso   1.000  C
  C52      1.0000 0.90830  0.50024  0.30010  Biso   1.000  C
  C53      1.0000 0.40830  0.99976  0.80010  Biso   1.000  C
  C54      1.0000 0.59170  0.99976  0.69990  Biso   1.000  C
  C55      1.0000 0.90830  0.49976  0.80010  Biso   1.000  C
  C56      1.0000 0.09170  0.49976  0.69990  Biso   1.000  C
  N57      1.0000 0.44080  0.17538  0.22540  Biso   1.000  N
  N58      1.0000 0.55920  0.17538  0.27460  Biso   1.000  N
  N59      1.0000 0.94080  0.67538  0.22540  Biso   1.000  N
  N60      1.0000 0.05920  0.67538  0.27460  Biso   1.000  N
  N61      1.0000 0.55920  0.82462  0.77460  Biso   1.000  N
  N62      1.0000 0.44080  0.82462  0.72540  Biso   1.000  N
  N63      1.0000 0.05920  0.32462  0.77460  Biso   1.000  N
  N64      1.0000 0.94080  0.32462  0.72540  Biso   1.000  N
  C57      1.0000 0.40450  0.24440  0.79320  Biso   1.000  C
  C58      1.0000 0.59550  0.24440  0.70680  Biso   1.000  C
  C59      1.0000 0.90450  0.74440  0.79320  Biso   1.000  C
  C60      1.0000 0.09550  0.74440  0.70680  Biso   1.000  C
  C61      1.0000 0.59550  0.75560  0.20680  Biso   1.000  C
  C62      1.0000 0.40450  0.75560  0.29320  Biso   1.000  C
  C63      1.0000 0.09550  0.25560  0.20680  Biso   1.000  C
  C64      1.0000 0.90450  0.25560  0.29320  Biso   1.000  C
  C65      1.0000 0.32490  0.18461  0.91350  Biso   1.000  C
  C66      1.0000 0.67510  0.18461  0.58650  Biso   1.000  C
  C67      1.0000 0.82490  0.68461  0.91350  Biso   1.000  C
  C68      1.0000 0.17510  0.68461  0.58650  Biso   1.000  C
  C69      1.0000 0.67510  0.81539  0.08650  Biso   1.000  C
  C70      1.0000 0.32490  0.81539  0.41350  Biso   1.000  C
  C71      1.0000 0.17510  0.31539  0.08650  Biso   1.000  C
  C72      1.0000 0.82490  0.31539  0.41350  Biso   1.000  C
  H33      1.0000 0.39965  0.17026  0.93270  Biso   1.000  H
  H34      1.0000 0.60035  0.17026  0.56730  Biso   1.000  H
  H35      1.0000 0.89965  0.67026  0.93270  Biso   1.000  H
  H36      1.0000 0.10035  0.67026  0.56730  Biso   1.000  H
  H37      1.0000 0.60035  0.82974  0.06730  Biso   1.000  H
  H38      1.0000 0.39965  0.82974  0.43270  Biso   1.000  H
  H39      1.0000 0.10035  0.32974  0.06730  Biso   1.000  H
  H40      1.0000 0.89965  0.32974  0.43270  Biso   1.000  H
  C73      1.0000 0.18760  0.23264  0.83730  Biso   1.000  C
  C74      1.0000 0.81240  0.23264  0.66270  Biso   1.000  C
  C75      1.0000 0.68760  0.73264  0.83730  Biso   1.000  C
  C76      1.0000 0.31240  0.73264  0.66270  Biso   1.000  C
  C77      1.0000 0.81240  0.76736  0.16270  Biso   1.000  C
  C78      1.0000 0.18760  0.76736  0.33730  Biso   1.000  C
  C79      1.0000 0.31240  0.26736  0.16270  Biso   1.000  C
  C80      1.0000 0.68760  0.26736  0.33730  Biso   1.000  C
  H41      1.0000 0.14910  0.25642  0.79669  Biso   1.000  H
  H42      1.0000 0.85090  0.25642  0.70331  Biso   1.000  H
  H43      1.0000 0.64910  0.75642  0.79669  Biso   1.000  H
  H44      1.0000 0.35090  0.75642  0.70331  Biso   1.000  H
  H45      1.0000 0.85090  0.74358  0.20331  Biso   1.000  H
  H46      1.0000 0.14910  0.74358  0.29669  Biso   1.000  H
  H47      1.0000 0.35090  0.24358  0.20331  Biso   1.000  H
  H48      1.0000 0.64910  0.24358  0.29669  Biso   1.000  H
  C81      1.0000 0.80120  0.99131  0.12960  Biso   1.000  C
  C82      1.0000 0.19880  0.99131  0.37040  Biso   1.000  C
  C83      1.0000 0.30120  0.49131  0.12960  Biso   1.000  C
  C84      1.0000 0.69880  0.49131  0.37040  Biso   1.000  C
  C85      1.0000 0.19880  0.00869  0.87040  Biso   1.000  C
  C86      1.0000 0.80120  0.00869  0.62960  Biso   1.000  C
  C87      1.0000 0.69880  0.50869  0.87040  Biso   1.000  C
  C88      1.0000 0.30120  0.50869  0.62960  Biso   1.000  C
  H49      1.0000 0.84080  0.01532  0.16723  Biso   1.000  H
  H50      1.0000 0.15920  0.01532  0.33277  Biso   1.000  H
  H51      1.0000 0.34080  0.51532  0.16723  Biso   1.000  H
  H52      1.0000 0.65920  0.51532  0.33277  Biso   1.000  H
  H53      1.0000 0.15920  0.98468  0.83277  Biso   1.000  H
  H54      1.0000 0.84080  0.98468  0.66723  Biso   1.000  H
  H55      1.0000 0.65920  0.48468  0.83277  Biso   1.000  H
  H56      1.0000 0.34080  0.48468  0.66723  Biso   1.000  H
  C89      1.0000 0.13520  0.20226  0.90310  Biso   1.000  C
  C90      1.0000 0.86480  0.20226  0.59690  Biso   1.000  C
  C91      1.0000 0.63520  0.70226  0.90310  Biso   1.000  C
  C92      1.0000 0.36480  0.70226  0.59690  Biso   1.000  C
  C93      1.0000 0.86480  0.79774  0.09690  Biso   1.000  C
  C94      1.0000 0.13520  0.79774  0.40310  Biso   1.000  C
  C95      1.0000 0.36480  0.29774  0.09690  Biso   1.000  C
  C96      1.0000 0.63520  0.29774  0.40310  Biso   1.000  C
  H57      1.0000 0.05233  0.20177  0.91437  Biso   1.000  H
  H58      1.0000 0.94767  0.20177  0.58563  Biso   1.000  H
  H59      1.0000 0.55233  0.70177  0.91437  Biso   1.000  H
  H60      1.0000 0.44767  0.70177  0.58563  Biso   1.000  H
  H61      1.0000 0.94767  0.79823  0.08563  Biso   1.000  H
  H62      1.0000 0.05233  0.79823  0.41437  Biso   1.000  H
  H63      1.0000 0.44767  0.29823  0.08563  Biso   1.000  H
  H64      1.0000 0.55233  0.29823  0.41437  Biso   1.000  H
  C97      1.0000 0.84780  0.96174  0.05310  Biso   1.000  C
  C98      1.0000 0.15220  0.96174  0.44690  Biso   1.000  C
  C99      1.0000 0.34780  0.46174  0.05310  Biso   1.000  C
  C100     1.0000 0.65220  0.46174  0.44690  Biso   1.000  C
  C101     1.0000 0.15220  0.03826  0.94690  Biso   1.000  C
  C102     1.0000 0.84780  0.03826  0.55310  Biso   1.000  C
  C103     1.0000 0.65220  0.53826  0.94690  Biso   1.000  C
  C104     1.0000 0.34780  0.53826  0.55310  Biso   1.000  C
  H65      1.0000 0.92688  0.96242  0.02981  Biso   1.000  H
  H66      1.0000 0.07312  0.96242  0.47019  Biso   1.000  H
  H67      1.0000 0.42688  0.46242  0.02981  Biso   1.000  H
  H68      1.0000 0.57312  0.46242  0.47019  Biso   1.000  H
  H69      1.0000 0.07312  0.03758  0.97019  Biso   1.000  H
  H70      1.0000 0.92688  0.03758  0.52981  Biso   1.000  H
  H71      1.0000 0.57312  0.53758  0.97019  Biso   1.000  H
  H72      1.0000 0.42688  0.53758  0.52981  Biso   1.000  H
  N65      1.0000 0.23110  0.12890  0.58430  Biso   1.000  N
  N66      1.0000 0.76890  0.12890  0.91570  Biso   1.000  N
  N67      1.0000 0.73110  0.62890  0.58430  Biso   1.000  N
  N68      1.0000 0.26890  0.62890  0.91570  Biso   1.000  N
  N69      1.0000 0.76890  0.87110  0.41570  Biso   1.000  N
  N70      1.0000 0.23110  0.87110  0.08430  Biso   1.000  N
  N71      1.0000 0.26890  0.37110  0.41570  Biso   1.000  N
  N72      1.0000 0.73110  0.37110  0.08430  Biso   1.000  N
  O1       1.0000 0.43440  0.11877  0.57770  Biso   1.000  O
  O2       1.0000 0.56560  0.11877  0.92230  Biso   1.000  O
  O3       1.0000 0.93440  0.61877  0.57770  Biso   1.000  O
  O4       1.0000 0.06560  0.61877  0.92230  Biso   1.000  O
  O5       1.0000 0.56560  0.88123  0.42230  Biso   1.000  O
  O6       1.0000 0.43440  0.88123  0.07770  Biso   1.000  O
  O7       1.0000 0.06560  0.38123  0.42230  Biso   1.000  O
  O8       1.0000 0.93440  0.38123  0.07770  Biso   1.000  O
  C105     1.0000 0.33250  0.11010  0.60120  Biso   1.000  C
  C106     1.0000 0.66750  0.11010  0.89880  Biso   1.000  C
  C107     1.0000 0.83250  0.61010  0.60120  Biso   1.000  C
  C108     1.0000 0.16750  0.61010  0.89880  Biso   1.000  C
  C109     1.0000 0.66750  0.88990  0.39880  Biso   1.000  C
  C110     1.0000 0.33250  0.88990  0.10120  Biso   1.000  C
  C111     1.0000 0.16750  0.38990  0.39880  Biso   1.000  C
  C112     1.0000 0.83250  0.38990  0.10120  Biso   1.000  C
  H73      1.0000 0.32869  0.08369  0.64017  Biso   1.000  H
  H74      1.0000 0.67131  0.08369  0.85983  Biso   1.000  H
  H75      1.0000 0.82869  0.58369  0.64017  Biso   1.000  H
  H76      1.0000 0.17131  0.58369  0.85983  Biso   1.000  H
  H77      1.0000 0.67131  0.91631  0.35983  Biso   1.000  H
  H78      1.0000 0.32869  0.91631  0.14017  Biso   1.000  H
  H79      1.0000 0.17131  0.41631  0.35983  Biso   1.000  H
  H80      1.0000 0.82869  0.41631  0.14017  Biso   1.000  H
  C113     1.0000 0.11850  0.11820  0.62660  Biso   1.000  C
  C114     1.0000 0.88150  0.11820  0.87340  Biso   1.000  C
  C115     1.0000 0.61850  0.61820  0.62660  Biso   1.000  C
  C116     1.0000 0.38150  0.61820  0.87340  Biso   1.000  C
  C117     1.0000 0.88150  0.88180  0.37340  Biso   1.000  C
  C118     1.0000 0.11850  0.88180  0.12660  Biso   1.000  C
  C119     1.0000 0.38150  0.38180  0.37340  Biso   1.000  C
  C120     1.0000 0.61850  0.38180  0.12660  Biso   1.000  C
  H81      1.0000 0.05777  0.13934  0.59733  Biso   1.000  H
  H82      1.0000 0.94223  0.13934  0.90267  Biso   1.000  H
  H83      1.0000 0.55777  0.63934  0.59733  Biso   1.000  H
  H84      1.0000 0.44223  0.63934  0.90267  Biso   1.000  H
  H85      1.0000 0.94223  0.86066  0.40267  Biso   1.000  H
  H86      1.0000 0.05777  0.86066  0.09733  Biso   1.000  H
  H87      1.0000 0.44223  0.36066  0.40267  Biso   1.000  H
  H88      1.0000 0.55777  0.36066  0.09733  Biso   1.000  H
  H89      1.0000 0.09061  0.09150  0.58900  Biso   1.000  H
  H90      1.0000 0.90939  0.09150  0.91100  Biso   1.000  H
  H91      1.0000 0.59061  0.59150  0.58900  Biso   1.000  H
  H92      1.0000 0.40939  0.59150  0.91100  Biso   1.000  H
  H93      1.0000 0.90939  0.90850  0.41100  Biso   1.000  H
  H94      1.0000 0.09061  0.90850  0.08900  Biso   1.000  H
  H95      1.0000 0.40939  0.40850  0.41100  Biso   1.000  H
  H96      1.0000 0.59061  0.40850  0.08900  Biso   1.000  H
  H97      1.0000 0.13029  0.11638  0.72240  Biso   1.000  H
  H98      1.0000 0.86971  0.11638  0.77760  Biso   1.000  H
  H99      1.0000 0.63029  0.61638  0.72240  Biso   1.000  H
  H100     1.0000 0.36971  0.61638  0.77760  Biso   1.000  H
  H101     1.0000 0.86971  0.88362  0.27760  Biso   1.000  H
  H102     1.0000 0.13029  0.88362  0.22240  Biso   1.000  H
  H103     1.0000 0.36971  0.38362  0.27760  Biso   1.000  H
  H104     1.0000 0.63029  0.38362  0.22240  Biso   1.000  H
  C121     1.0000 0.23800  0.17090  0.52210  Biso   1.000  C
  C122     1.0000 0.76200  0.17090  0.97790  Biso   1.000  C
  C123     1.0000 0.73800  0.67090  0.52210  Biso   1.000  C
  C124     1.0000 0.26200  0.67090  0.97790  Biso   1.000  C
  C125     1.0000 0.76200  0.82910  0.47790  Biso   1.000  C
  C126     1.0000 0.23800  0.82910  0.02210  Biso   1.000  C
  C127     1.0000 0.26200  0.32910  0.47790  Biso   1.000  C
  C128     1.0000 0.73800  0.32910  0.02210  Biso   1.000  C
  H105     1.0000 0.15796  0.18399  0.51131  Biso   1.000  H
  H106     1.0000 0.84204  0.18399  0.98869  Biso   1.000  H
  H107     1.0000 0.65796  0.68399  0.51131  Biso   1.000  H
  H108     1.0000 0.34204  0.68399  0.98869  Biso   1.000  H
  H109     1.0000 0.84204  0.81601  0.48869  Biso   1.000  H
  H110     1.0000 0.15796  0.81601  0.01131  Biso   1.000  H
  H111     1.0000 0.34204  0.31601  0.48869  Biso   1.000  H
  H112     1.0000 0.65796  0.31601  0.01131  Biso   1.000  H
  H113     1.0000 0.29642  0.18812  0.57844  Biso   1.000  H
  H114     1.0000 0.70358  0.18812  0.92156  Biso   1.000  H
  H115     1.0000 0.79642  0.68812  0.57844  Biso   1.000  H
  H116     1.0000 0.20358  0.68812  0.92156  Biso   1.000  H
  H117     1.0000 0.70358  0.81188  0.42156  Biso   1.000  H
  H118     1.0000 0.29642  0.81188  0.07844  Biso   1.000  H
  H119     1.0000 0.20358  0.31188  0.42156  Biso   1.000  H
  H120     1.0000 0.79642  0.31188  0.07844  Biso   1.000  H
  H121     1.0000 0.26412  0.16783  0.43620  Biso   1.000  H
  H122     1.0000 0.73588  0.16783  0.06380  Biso   1.000  H
  H123     1.0000 0.76412  0.66783  0.43620  Biso   1.000  H
  H124     1.0000 0.23588  0.66783  0.06380  Biso   1.000  H
  H125     1.0000 0.73588  0.83217  0.56380  Biso   1.000  H
  H126     1.0000 0.26412  0.83217  0.93620  Biso   1.000  H
  H127     1.0000 0.23588  0.33217  0.56380  Biso   1.000  H
  H128     1.0000 0.76412  0.33217  0.93620  Biso   1.000  H
