data_image0
_cell_length_a       25.939
_cell_length_b       27.516
_cell_length_c       6.947
_cell_angle_alpha    90
_cell_angle_beta     90
_cell_angle_gamma    90

_symmetry_space_group_name_H-M    "P 1"
_symmetry_int_tables_number       1

loop_
  _symmetry_equiv_pos_as_xyz
  'x, y, z'

loop_
  _atom_site_label
  _atom_site_occupancy
  _atom_site_fract_x
  _atom_site_fract_y
  _atom_site_fract_z
  _atom_site_thermal_displace_type
  _atom_site_B_iso_or_equiv
  _atom_site_type_symbol
  Cu1      1.0000 0.92880  0.28740  0.91050  Biso   1.000  Cu
  Cu2      1.0000 0.07120  0.71260  0.91050  Biso   1.000  Cu
  Cu3      1.0000 0.32120  0.53740  0.16050  Biso   1.000  Cu
  Cu4      1.0000 0.67880  0.46260  0.16050  Biso   1.000  Cu
  Cu5      1.0000 0.92880  0.78740  0.41050  Biso   1.000  Cu
  Cu6      1.0000 0.07120  0.21260  0.41050  Biso   1.000  Cu
  Cu7      1.0000 0.32120  0.03740  0.66050  Biso   1.000  Cu
  Cu8      1.0000 0.67880  0.96260  0.66050  Biso   1.000  Cu
  Cu9      1.0000 0.42880  0.28740  0.41050  Biso   1.000  Cu
  Cu10     1.0000 0.57120  0.71260  0.41050  Biso   1.000  Cu
  Cu11     1.0000 0.82120  0.53740  0.66050  Biso   1.000  Cu
  Cu12     1.0000 0.17880  0.46260  0.66050  Biso   1.000  Cu
  Cu13     1.0000 0.42880  0.78740  0.91050  Biso   1.000  Cu
  Cu14     1.0000 0.57120  0.21260  0.91050  Biso   1.000  Cu
  Cu15     1.0000 0.82120  0.03740  0.16050  Biso   1.000  Cu
  Cu16     1.0000 0.17880  0.96260  0.16050  Biso   1.000  Cu
  Cu17     1.0000 0.92380  0.27760  0.42050  Biso   1.000  Cu
  Cu18     1.0000 0.07620  0.72240  0.42050  Biso   1.000  Cu
  Cu19     1.0000 0.32620  0.52760  0.67050  Biso   1.000  Cu
  Cu20     1.0000 0.67380  0.47240  0.67050  Biso   1.000  Cu
  Cu21     1.0000 0.92380  0.77760  0.92050  Biso   1.000  Cu
  Cu22     1.0000 0.07620  0.22240  0.92050  Biso   1.000  Cu
  Cu23     1.0000 0.32620  0.02760  0.17050  Biso   1.000  Cu
  Cu24     1.0000 0.67380  0.97240  0.17050  Biso   1.000  Cu
  Cu25     1.0000 0.42380  0.27760  0.92050  Biso   1.000  Cu
  Cu26     1.0000 0.57620  0.72240  0.92050  Biso   1.000  Cu
  Cu27     1.0000 0.82620  0.52760  0.17050  Biso   1.000  Cu
  Cu28     1.0000 0.17380  0.47240  0.17050  Biso   1.000  Cu
  Cu29     1.0000 0.42380  0.77760  0.42050  Biso   1.000  Cu
  Cu30     1.0000 0.57620  0.22240  0.42050  Biso   1.000  Cu
  Cu31     1.0000 0.82620  0.02760  0.67050  Biso   1.000  Cu
  Cu32     1.0000 0.17380  0.97240  0.67050  Biso   1.000  Cu
  Br1      1.0000 0.86720  0.26390  0.15360  Biso   1.000  Br
  Br2      1.0000 0.13280  0.73610  0.15360  Biso   1.000  Br
  Br3      1.0000 0.38280  0.51390  0.40360  Biso   1.000  Br
  Br4      1.0000 0.61720  0.48610  0.40360  Biso   1.000  Br
  Br5      1.0000 0.86720  0.76390  0.65360  Biso   1.000  Br
  Br6      1.0000 0.13280  0.23610  0.65360  Biso   1.000  Br
  Br7      1.0000 0.38280  0.01390  0.90360  Biso   1.000  Br
  Br8      1.0000 0.61720  0.98610  0.90360  Biso   1.000  Br
  Br9      1.0000 0.36720  0.26390  0.65360  Biso   1.000  Br
  Br10     1.0000 0.63280  0.73610  0.65360  Biso   1.000  Br
  Br11     1.0000 0.88280  0.51390  0.90360  Biso   1.000  Br
  Br12     1.0000 0.11720  0.48610  0.90360  Biso   1.000  Br
  Br13     1.0000 0.36720  0.76390  0.15360  Biso   1.000  Br
  Br14     1.0000 0.63280  0.23610  0.15360  Biso   1.000  Br
  Br15     1.0000 0.88280  0.01390  0.40360  Biso   1.000  Br
  Br16     1.0000 0.11720  0.98610  0.40360  Biso   1.000  Br
  Br17     1.0000 0.89890  0.33830  0.65470  Biso   1.000  Br
  Br18     1.0000 0.10110  0.66170  0.65470  Biso   1.000  Br
  Br19     1.0000 0.35110  0.58830  0.90470  Biso   1.000  Br
  Br20     1.0000 0.64890  0.41170  0.90470  Biso   1.000  Br
  Br21     1.0000 0.89890  0.83830  0.15470  Biso   1.000  Br
  Br22     1.0000 0.10110  0.16170  0.15470  Biso   1.000  Br
  Br23     1.0000 0.35110  0.08830  0.40470  Biso   1.000  Br
  Br24     1.0000 0.64890  0.91170  0.40470  Biso   1.000  Br
  Br25     1.0000 0.39890  0.33830  0.15470  Biso   1.000  Br
  Br26     1.0000 0.60110  0.66170  0.15470  Biso   1.000  Br
  Br27     1.0000 0.85110  0.58830  0.40470  Biso   1.000  Br
  Br28     1.0000 0.14890  0.41170  0.40470  Biso   1.000  Br
  Br29     1.0000 0.39890  0.83830  0.65470  Biso   1.000  Br
  Br30     1.0000 0.60110  0.16170  0.65470  Biso   1.000  Br
  Br31     1.0000 0.85110  0.08830  0.90470  Biso   1.000  Br
  Br32     1.0000 0.14890  0.91170  0.90470  Biso   1.000  Br
  S1       1.0000 0.01100  0.27260  0.36930  Biso   1.000  S
  S2       1.0000 0.98900  0.72740  0.36930  Biso   1.000  S
  S3       1.0000 0.23900  0.52260  0.61930  Biso   1.000  S
  S4       1.0000 0.76100  0.47740  0.61930  Biso   1.000  S
  S5       1.0000 0.01100  0.77260  0.86930  Biso   1.000  S
  S6       1.0000 0.98900  0.22740  0.86930  Biso   1.000  S
  S7       1.0000 0.23900  0.02260  0.11930  Biso   1.000  S
  S8       1.0000 0.76100  0.97740  0.11930  Biso   1.000  S
  S9       1.0000 0.51100  0.27260  0.86930  Biso   1.000  S
  S10      1.0000 0.48900  0.72740  0.86930  Biso   1.000  S
  S11      1.0000 0.73900  0.52260  0.11930  Biso   1.000  S
  S12      1.0000 0.26100  0.47740  0.11930  Biso   1.000  S
  S13      1.0000 0.51100  0.77260  0.36930  Biso   1.000  S
  S14      1.0000 0.48900  0.22740  0.36930  Biso   1.000  S
  S15      1.0000 0.73900  0.02260  0.61930  Biso   1.000  S
  S16      1.0000 0.26100  0.97740  0.61930  Biso   1.000  S
  S17      1.0000 0.98370  0.34860  0.10070  Biso   1.000  S
  S18      1.0000 0.01630  0.65140  0.10070  Biso   1.000  S
  S19      1.0000 0.26630  0.59860  0.35070  Biso   1.000  S
  S20      1.0000 0.73370  0.40140  0.35070  Biso   1.000  S
  S21      1.0000 0.98370  0.84860  0.60070  Biso   1.000  S
  S22      1.0000 0.01630  0.15140  0.60070  Biso   1.000  S
  S23      1.0000 0.26630  0.09860  0.85070  Biso   1.000  S
  S24      1.0000 0.73370  0.90140  0.85070  Biso   1.000  S
  S25      1.0000 0.48370  0.34860  0.60070  Biso   1.000  S
  S26      1.0000 0.51630  0.65140  0.60070  Biso   1.000  S
  S27      1.0000 0.76630  0.59860  0.85070  Biso   1.000  S
  S28      1.0000 0.23370  0.40140  0.85070  Biso   1.000  S
  S29      1.0000 0.48370  0.84860  0.10070  Biso   1.000  S
  S30      1.0000 0.51630  0.15140  0.10070  Biso   1.000  S
  S31      1.0000 0.76630  0.09860  0.35070  Biso   1.000  S
  S32      1.0000 0.23370  0.90140  0.35070  Biso   1.000  S
  S33      1.0000 0.09090  0.30100  0.10250  Biso   1.000  S
  S34      1.0000 0.90910  0.69900  0.10250  Biso   1.000  S
  S35      1.0000 0.15910  0.55100  0.35250  Biso   1.000  S
  S36      1.0000 0.84090  0.44900  0.35250  Biso   1.000  S
  S37      1.0000 0.09090  0.80100  0.60250  Biso   1.000  S
  S38      1.0000 0.90910  0.19900  0.60250  Biso   1.000  S
  S39      1.0000 0.15910  0.05100  0.85250  Biso   1.000  S
  S40      1.0000 0.84090  0.94900  0.85250  Biso   1.000  S
  S41      1.0000 0.59090  0.30100  0.60250  Biso   1.000  S
  S42      1.0000 0.40910  0.69900  0.60250  Biso   1.000  S
  S43      1.0000 0.65910  0.55100  0.85250  Biso   1.000  S
  S44      1.0000 0.34090  0.44900  0.85250  Biso   1.000  S
  S45      1.0000 0.59090  0.80100  0.10250  Biso   1.000  S
  S46      1.0000 0.40910  0.19900  0.10250  Biso   1.000  S
  S47      1.0000 0.65910  0.05100  0.35250  Biso   1.000  S
  S48      1.0000 0.34090  0.94900  0.35250  Biso   1.000  S
  C1       1.0000 0.02880  0.30860  0.19290  Biso   1.000  C
  C2       1.0000 0.97120  0.69140  0.19290  Biso   1.000  C
  C3       1.0000 0.22120  0.55860  0.44290  Biso   1.000  C
  C4       1.0000 0.77880  0.44140  0.44290  Biso   1.000  C
  C5       1.0000 0.02880  0.80860  0.69290  Biso   1.000  C
  C6       1.0000 0.97120  0.19140  0.69290  Biso   1.000  C
  C7       1.0000 0.22120  0.05860  0.94290  Biso   1.000  C
  C8       1.0000 0.77880  0.94140  0.94290  Biso   1.000  C
  C9       1.0000 0.52880  0.30860  0.69290  Biso   1.000  C
  C10      1.0000 0.47120  0.69140  0.69290  Biso   1.000  C
  C11      1.0000 0.72120  0.55860  0.94290  Biso   1.000  C
  C12      1.0000 0.27880  0.44140  0.94290  Biso   1.000  C
  C13      1.0000 0.52880  0.80860  0.19290  Biso   1.000  C
  C14      1.0000 0.47120  0.19140  0.19290  Biso   1.000  C
  C15      1.0000 0.72120  0.05860  0.44290  Biso   1.000  C
  C16      1.0000 0.27880  0.94140  0.44290  Biso   1.000  C
  C17      1.0000 0.01580  0.38770  0.92270  Biso   1.000  C
  C18      1.0000 0.98420  0.61230  0.92270  Biso   1.000  C
  C19      1.0000 0.23420  0.63770  0.17270  Biso   1.000  C
  C20      1.0000 0.76580  0.36230  0.17270  Biso   1.000  C
  C21      1.0000 0.01580  0.88770  0.42270  Biso   1.000  C
  C22      1.0000 0.98420  0.11230  0.42270  Biso   1.000  C
  C23      1.0000 0.23420  0.13770  0.67270  Biso   1.000  C
  C24      1.0000 0.76580  0.86230  0.67270  Biso   1.000  C
  C25      1.0000 0.51580  0.38770  0.42270  Biso   1.000  C
  C26      1.0000 0.48420  0.61230  0.42270  Biso   1.000  C
  C27      1.0000 0.73420  0.63770  0.67270  Biso   1.000  C
  C28      1.0000 0.26580  0.36230  0.67270  Biso   1.000  C
  C29      1.0000 0.51580  0.88770  0.92270  Biso   1.000  C
  C30      1.0000 0.48420  0.11230  0.92270  Biso   1.000  C
  C31      1.0000 0.73420  0.13770  0.17270  Biso   1.000  C
  C32      1.0000 0.26580  0.86230  0.17270  Biso   1.000  C
  C33      1.0000 0.05560  0.36110  0.79830  Biso   1.000  C
  C34      1.0000 0.94440  0.63890  0.79830  Biso   1.000  C
  C35      1.0000 0.19440  0.61110  0.04830  Biso   1.000  C
  C36      1.0000 0.80560  0.38890  0.04830  Biso   1.000  C
  C37      1.0000 0.05560  0.86110  0.29830  Biso   1.000  C
  C38      1.0000 0.94440  0.13890  0.29830  Biso   1.000  C
  C39      1.0000 0.19440  0.11110  0.54830  Biso   1.000  C
  C40      1.0000 0.80560  0.88890  0.54830  Biso   1.000  C
  C41      1.0000 0.55560  0.36110  0.29830  Biso   1.000  C
  C42      1.0000 0.44440  0.63890  0.29830  Biso   1.000  C
  C43      1.0000 0.69440  0.61110  0.54830  Biso   1.000  C
  C44      1.0000 0.30560  0.38890  0.54830  Biso   1.000  C
  C45      1.0000 0.55560  0.86110  0.79830  Biso   1.000  C
  C46      1.0000 0.44440  0.13890  0.79830  Biso   1.000  C
  C47      1.0000 0.69440  0.11110  0.04830  Biso   1.000  C
  C48      1.0000 0.30560  0.88890  0.04830  Biso   1.000  C
  C49      1.0000 0.10300  0.34690  0.92430  Biso   1.000  C
  C50      1.0000 0.89700  0.65310  0.92430  Biso   1.000  C
  C51      1.0000 0.14700  0.59690  0.17430  Biso   1.000  C
  C52      1.0000 0.85300  0.40310  0.17430  Biso   1.000  C
  C53      1.0000 0.10300  0.84690  0.42430  Biso   1.000  C
  C54      1.0000 0.89700  0.15310  0.42430  Biso   1.000  C
  C55      1.0000 0.14700  0.09690  0.67430  Biso   1.000  C
  C56      1.0000 0.85300  0.90310  0.67430  Biso   1.000  C
  C57      1.0000 0.60300  0.34690  0.42430  Biso   1.000  C
  C58      1.0000 0.39700  0.65310  0.42430  Biso   1.000  C
  C59      1.0000 0.64700  0.59690  0.67430  Biso   1.000  C
  C60      1.0000 0.35300  0.40310  0.67430  Biso   1.000  C
  C61      1.0000 0.60300  0.84690  0.92430  Biso   1.000  C
  C62      1.0000 0.39700  0.15310  0.92430  Biso   1.000  C
  C63      1.0000 0.64700  0.09690  0.17430  Biso   1.000  C
  C64      1.0000 0.35300  0.90310  0.17430  Biso   1.000  C
  O1       1.0000 0.03280  0.51860  0.40170  Biso   1.000  O
  O2       1.0000 0.96720  0.48140  0.40170  Biso   1.000  O
  O3       1.0000 0.21720  0.76860  0.65170  Biso   1.000  O
  O4       1.0000 0.78280  0.23140  0.65170  Biso   1.000  O
  O5       1.0000 0.03280  0.01860  0.90170  Biso   1.000  O
  O6       1.0000 0.96720  0.98140  0.90170  Biso   1.000  O
  O7       1.0000 0.21720  0.26860  0.15170  Biso   1.000  O
  O8       1.0000 0.78280  0.73140  0.15170  Biso   1.000  O
  O9       1.0000 0.53280  0.51860  0.90170  Biso   1.000  O
  O10      1.0000 0.46720  0.48140  0.90170  Biso   1.000  O
  O11      1.0000 0.71720  0.76860  0.15170  Biso   1.000  O
  O12      1.0000 0.28280  0.23140  0.15170  Biso   1.000  O
  O13      1.0000 0.53280  0.01860  0.40170  Biso   1.000  O
  O14      1.0000 0.46720  0.98140  0.40170  Biso   1.000  O
  O15      1.0000 0.71720  0.26860  0.65170  Biso   1.000  O
  O16      1.0000 0.28280  0.73140  0.65170  Biso   1.000  O
  C65      1.0000 0.00000  0.50000  0.23600  Biso   1.000  C
  C66      1.0000 0.25000  0.75000  0.48600  Biso   1.000  C
  C67      1.0000 0.75000  0.25000  0.48600  Biso   1.000  C
  C68      1.0000 0.00000  0.00000  0.73600  Biso   1.000  C
  C69      1.0000 0.25000  0.25000  0.98600  Biso   1.000  C
  C70      1.0000 0.75000  0.75000  0.98600  Biso   1.000  C
  C71      1.0000 0.50000  0.50000  0.73600  Biso   1.000  C
  C72      1.0000 0.50000  0.00000  0.23600  Biso   1.000  C
  C73      1.0000 0.96560  0.46010  0.29130  Biso   1.000  C
  C74      1.0000 0.03440  0.53990  0.29130  Biso   1.000  C
  C75      1.0000 0.28440  0.71010  0.54130  Biso   1.000  C
  C76      1.0000 0.71560  0.28990  0.54130  Biso   1.000  C
  C77      1.0000 0.96560  0.96010  0.79130  Biso   1.000  C
  C78      1.0000 0.03440  0.03990  0.79130  Biso   1.000  C
  C79      1.0000 0.28440  0.21010  0.04130  Biso   1.000  C
  C80      1.0000 0.71560  0.78990  0.04130  Biso   1.000  C
  C81      1.0000 0.46560  0.46010  0.79130  Biso   1.000  C
  C82      1.0000 0.53440  0.53990  0.79130  Biso   1.000  C
  C83      1.0000 0.78440  0.71010  0.04130  Biso   1.000  C
  C84      1.0000 0.21560  0.28990  0.04130  Biso   1.000  C
  C85      1.0000 0.46560  0.96010  0.29130  Biso   1.000  C
  C86      1.0000 0.53440  0.03990  0.29130  Biso   1.000  C
  C87      1.0000 0.78440  0.21010  0.54130  Biso   1.000  C
  C88      1.0000 0.21560  0.78990  0.54130  Biso   1.000  C
  C89      1.0000 0.98970  0.45390  0.46510  Biso   1.000  C
  C90      1.0000 0.01030  0.54610  0.46510  Biso   1.000  C
  C91      1.0000 0.26030  0.70390  0.71510  Biso   1.000  C
  C92      1.0000 0.73970  0.29610  0.71510  Biso   1.000  C
  C93      1.0000 0.98970  0.95390  0.96510  Biso   1.000  C
  C94      1.0000 0.01030  0.04610  0.96510  Biso   1.000  C
  C95      1.0000 0.26030  0.20390  0.21510  Biso   1.000  C
  C96      1.0000 0.73970  0.79610  0.21510  Biso   1.000  C
  C97      1.0000 0.48970  0.45390  0.96510  Biso   1.000  C
  C98      1.0000 0.51030  0.54610  0.96510  Biso   1.000  C
  C99      1.0000 0.76030  0.70390  0.21510  Biso   1.000  C
  C100     1.0000 0.23970  0.29610  0.21510  Biso   1.000  C
  C101     1.0000 0.48970  0.95390  0.46510  Biso   1.000  C
  C102     1.0000 0.51030  0.04610  0.46510  Biso   1.000  C
  C103     1.0000 0.76030  0.20390  0.71510  Biso   1.000  C
  C104     1.0000 0.23970  0.79610  0.71510  Biso   1.000  C
  C105     1.0000 0.00000  0.50000  0.56140  Biso   1.000  C
  C106     1.0000 0.25000  0.75000  0.81140  Biso   1.000  C
  C107     1.0000 0.75000  0.25000  0.81140  Biso   1.000  C
  C108     1.0000 0.00000  0.00000  0.06140  Biso   1.000  C
  C109     1.0000 0.25000  0.25000  0.31140  Biso   1.000  C
  C110     1.0000 0.75000  0.75000  0.31140  Biso   1.000  C
  C111     1.0000 0.50000  0.50000  0.06140  Biso   1.000  C
  C112     1.0000 0.50000  0.00000  0.56140  Biso   1.000  C
  H1       1.0000 0.03410  0.41300  0.98900  Biso   1.000  H
  H2       1.0000 0.96590  0.58700  0.98900  Biso   1.000  H
  H3       1.0000 0.21590  0.66300  0.23900  Biso   1.000  H
  H4       1.0000 0.78410  0.33700  0.23900  Biso   1.000  H
  H5       1.0000 0.03410  0.91300  0.48900  Biso   1.000  H
  H6       1.0000 0.96590  0.08700  0.48900  Biso   1.000  H
  H7       1.0000 0.21590  0.16300  0.73900  Biso   1.000  H
  H8       1.0000 0.78410  0.83700  0.73900  Biso   1.000  H
  H9       1.0000 0.53410  0.41300  0.48900  Biso   1.000  H
  H10      1.0000 0.46590  0.58700  0.48900  Biso   1.000  H
  H11      1.0000 0.71590  0.66300  0.73900  Biso   1.000  H
  H12      1.0000 0.28410  0.33700  0.73900  Biso   1.000  H
  H13      1.0000 0.53410  0.91300  0.98900  Biso   1.000  H
  H14      1.0000 0.46590  0.08700  0.98900  Biso   1.000  H
  H15      1.0000 0.71590  0.16300  0.23900  Biso   1.000  H
  H16      1.0000 0.28410  0.83700  0.23900  Biso   1.000  H
  H17      1.0000 0.98960  0.40180  0.84280  Biso   1.000  H
  H18      1.0000 0.01040  0.59820  0.84280  Biso   1.000  H
  H19      1.0000 0.26040  0.65180  0.09280  Biso   1.000  H
  H20      1.0000 0.73960  0.34820  0.09280  Biso   1.000  H
  H21      1.0000 0.98960  0.90180  0.34280  Biso   1.000  H
  H22      1.0000 0.01040  0.09820  0.34280  Biso   1.000  H
  H23      1.0000 0.26040  0.15180  0.59280  Biso   1.000  H
  H24      1.0000 0.73960  0.84820  0.59280  Biso   1.000  H
  H25      1.0000 0.48960  0.40180  0.34280  Biso   1.000  H
  H26      1.0000 0.51040  0.59820  0.34280  Biso   1.000  H
  H27      1.0000 0.76040  0.65180  0.59280  Biso   1.000  H
  H28      1.0000 0.23960  0.34820  0.59280  Biso   1.000  H
  H29      1.0000 0.48960  0.90180  0.84280  Biso   1.000  H
  H30      1.0000 0.51040  0.09820  0.84280  Biso   1.000  H
  H31      1.0000 0.76040  0.15180  0.09280  Biso   1.000  H
  H32      1.0000 0.23960  0.84820  0.09280  Biso   1.000  H
  H33      1.0000 0.04090  0.33180  0.74750  Biso   1.000  H
  H34      1.0000 0.95910  0.66820  0.74750  Biso   1.000  H
  H35      1.0000 0.20910  0.58180  0.99750  Biso   1.000  H
  H36      1.0000 0.79090  0.41820  0.99750  Biso   1.000  H
  H37      1.0000 0.04090  0.83180  0.24750  Biso   1.000  H
  H38      1.0000 0.95910  0.16820  0.24750  Biso   1.000  H
  H39      1.0000 0.20910  0.08180  0.49750  Biso   1.000  H
  H40      1.0000 0.79090  0.91820  0.49750  Biso   1.000  H
  H41      1.0000 0.54090  0.33180  0.24750  Biso   1.000  H
  H42      1.0000 0.45910  0.66820  0.24750  Biso   1.000  H
  H43      1.0000 0.70910  0.58180  0.49750  Biso   1.000  H
  H44      1.0000 0.29090  0.41820  0.49750  Biso   1.000  H
  H45      1.0000 0.54090  0.83180  0.74750  Biso   1.000  H
  H46      1.0000 0.45910  0.16820  0.74750  Biso   1.000  H
  H47      1.0000 0.70910  0.08180  0.99750  Biso   1.000  H
  H48      1.0000 0.29090  0.91820  0.99750  Biso   1.000  H
  H49      1.0000 0.06580  0.38190  0.69410  Biso   1.000  H
  H50      1.0000 0.93420  0.61810  0.69410  Biso   1.000  H
  H51      1.0000 0.18420  0.63190  0.94410  Biso   1.000  H
  H52      1.0000 0.81580  0.36810  0.94410  Biso   1.000  H
  H53      1.0000 0.06580  0.88190  0.19410  Biso   1.000  H
  H54      1.0000 0.93420  0.11810  0.19410  Biso   1.000  H
  H55      1.0000 0.18420  0.13190  0.44410  Biso   1.000  H
  H56      1.0000 0.81580  0.86810  0.44410  Biso   1.000  H
  H57      1.0000 0.56580  0.38190  0.19410  Biso   1.000  H
  H58      1.0000 0.43420  0.61810  0.19410  Biso   1.000  H
  H59      1.0000 0.68420  0.63190  0.44410  Biso   1.000  H
  H60      1.0000 0.31580  0.36810  0.44410  Biso   1.000  H
  H61      1.0000 0.56580  0.88190  0.69410  Biso   1.000  H
  H62      1.0000 0.43420  0.11810  0.69410  Biso   1.000  H
  H63      1.0000 0.68420  0.13190  0.94410  Biso   1.000  H
  H64      1.0000 0.31580  0.86810  0.94410  Biso   1.000  H
  H65      1.0000 0.13130  0.33650  0.84530  Biso   1.000  H
  H66      1.0000 0.86870  0.66350  0.84530  Biso   1.000  H
  H67      1.0000 0.11870  0.58650  0.09530  Biso   1.000  H
  H68      1.0000 0.88130  0.41350  0.09530  Biso   1.000  H
  H69      1.0000 0.13130  0.83650  0.34530  Biso   1.000  H
  H70      1.0000 0.86870  0.16350  0.34530  Biso   1.000  H
  H71      1.0000 0.11870  0.08650  0.59530  Biso   1.000  H
  H72      1.0000 0.88130  0.91350  0.59530  Biso   1.000  H
  H73      1.0000 0.63130  0.33650  0.34530  Biso   1.000  H
  H74      1.0000 0.36870  0.66350  0.34530  Biso   1.000  H
  H75      1.0000 0.61870  0.58650  0.59530  Biso   1.000  H
  H76      1.0000 0.38130  0.41350  0.59530  Biso   1.000  H
  H77      1.0000 0.63130  0.83650  0.84530  Biso   1.000  H
  H78      1.0000 0.36870  0.16350  0.84530  Biso   1.000  H
  H79      1.0000 0.61870  0.08650  0.09530  Biso   1.000  H
  H80      1.0000 0.38130  0.91350  0.09530  Biso   1.000  H
  H81      1.0000 0.11240  0.37600  0.99180  Biso   1.000  H
  H82      1.0000 0.88760  0.62400  0.99180  Biso   1.000  H
  H83      1.0000 0.13760  0.62600  0.24180  Biso   1.000  H
  H84      1.0000 0.86240  0.37400  0.24180  Biso   1.000  H
  H85      1.0000 0.11240  0.87600  0.49180  Biso   1.000  H
  H86      1.0000 0.88760  0.12400  0.49180  Biso   1.000  H
  H87      1.0000 0.13760  0.12600  0.74180  Biso   1.000  H
  H88      1.0000 0.86240  0.87400  0.74180  Biso   1.000  H
  H89      1.0000 0.61240  0.37600  0.49180  Biso   1.000  H
  H90      1.0000 0.38760  0.62400  0.49180  Biso   1.000  H
  H91      1.0000 0.63760  0.62600  0.74180  Biso   1.000  H
  H92      1.0000 0.36240  0.37400  0.74180  Biso   1.000  H
  H93      1.0000 0.61240  0.87600  0.99180  Biso   1.000  H
  H94      1.0000 0.38760  0.12400  0.99180  Biso   1.000  H
  H95      1.0000 0.63760  0.12600  0.24180  Biso   1.000  H
  H96      1.0000 0.36240  0.87400  0.24180  Biso   1.000  H
