data_image0
_cell_length_a       22.94
_cell_length_b       11.055
_cell_length_c       3.805
_cell_angle_alpha    90
_cell_angle_beta     90
_cell_angle_gamma    90

_symmetry_space_group_name_H-M    "P 1"
_symmetry_int_tables_number       1

loop_
  _symmetry_equiv_pos_as_xyz
  'x, y, z'

loop_
  _atom_site_label
  _atom_site_occupancy
  _atom_site_fract_x
  _atom_site_fract_y
  _atom_site_fract_z
  _atom_site_thermal_displace_type
  _atom_site_B_iso_or_equiv
  _atom_site_type_symbol
  Cu1      1.0000 0.74935  0.65062  0.50000  Biso   1.000  Cu
  Cu2      1.0000 0.25065  0.34938  0.00000  Biso   1.000  Cu
  Cu3      1.0000 0.75065  0.15062  0.00000  Biso   1.000  Cu
  Cu4      1.0000 0.24935  0.84938  0.50000  Biso   1.000  Cu
  N1       1.0000 0.72737  0.80390  0.34340  Biso   1.000  N
  N2       1.0000 0.27263  0.19610  0.84340  Biso   1.000  N
  N3       1.0000 0.77263  0.30390  0.84340  Biso   1.000  N
  N4       1.0000 0.22737  0.69610  0.34340  Biso   1.000  N
  N5       1.0000 0.72837  0.99750  0.15670  Biso   1.000  N
  N6       1.0000 0.27163  0.00250  0.65670  Biso   1.000  N
  N7       1.0000 0.77163  0.49750  0.65670  Biso   1.000  N
  N8       1.0000 0.22837  0.50250  0.15670  Biso   1.000  N
  N9       1.0000 0.91461  0.00270  0.35310  Biso   1.000  N
  N10      1.0000 0.08539  0.99730  0.85310  Biso   1.000  N
  N11      1.0000 0.58539  0.50270  0.85310  Biso   1.000  N
  N12      1.0000 0.41461  0.49730  0.35310  Biso   1.000  N
  H1       1.0000 0.93450  0.07070  0.43260  Biso   1.000  H
  H2       1.0000 0.06550  0.92930  0.93260  Biso   1.000  H
  H3       1.0000 0.56550  0.57070  0.93260  Biso   1.000  H
  H4       1.0000 0.43450  0.42930  0.43260  Biso   1.000  H
  C1       1.0000 0.67013  0.84230  0.31500  Biso   1.000  C
  C2       1.0000 0.32987  0.15770  0.81500  Biso   1.000  C
  C3       1.0000 0.82987  0.34230  0.81500  Biso   1.000  C
  C4       1.0000 0.17013  0.65770  0.31500  Biso   1.000  C
  C5       1.0000 0.61824  0.78420  0.38380  Biso   1.000  C
  C6       1.0000 0.38176  0.21580  0.88380  Biso   1.000  C
  C7       1.0000 0.88176  0.28420  0.88380  Biso   1.000  C
  C8       1.0000 0.11824  0.71580  0.38380  Biso   1.000  C
  H5       1.0000 0.61770  0.70490  0.46560  Biso   1.000  H
  H6       1.0000 0.38230  0.29510  0.96560  Biso   1.000  H
  H7       1.0000 0.88230  0.20490  0.96560  Biso   1.000  H
  H8       1.0000 0.11770  0.79510  0.46560  Biso   1.000  H
  C9       1.0000 0.56740  0.84630  0.32830  Biso   1.000  C
  C10      1.0000 0.43260  0.15370  0.82830  Biso   1.000  C
  C11      1.0000 0.93260  0.34630  0.82830  Biso   1.000  C
  C12      1.0000 0.06740  0.65370  0.32830  Biso   1.000  C
  H9       1.0000 0.53190  0.80840  0.37250  Biso   1.000  H
  H10      1.0000 0.46810  0.19160  0.87250  Biso   1.000  H
  H11      1.0000 0.96810  0.30840  0.87250  Biso   1.000  H
  H12      1.0000 0.03190  0.69160  0.37250  Biso   1.000  H
  C13      1.0000 0.56770  0.96490  0.20740  Biso   1.000  C
  C14      1.0000 0.43230  0.03510  0.70740  Biso   1.000  C
  C15      1.0000 0.93230  0.46490  0.70740  Biso   1.000  C
  C16      1.0000 0.06770  0.53510  0.20740  Biso   1.000  C
  H13      1.0000 0.53250  0.00500  0.17320  Biso   1.000  H
  H14      1.0000 0.46750  0.99500  0.67320  Biso   1.000  H
  H15      1.0000 0.96750  0.50500  0.67320  Biso   1.000  H
  H16      1.0000 0.03250  0.49500  0.17320  Biso   1.000  H
  C17      1.0000 0.61899  0.02360  0.13780  Biso   1.000  C
  C18      1.0000 0.38101  0.97640  0.63780  Biso   1.000  C
  C19      1.0000 0.88101  0.52360  0.63780  Biso   1.000  C
  C20      1.0000 0.11899  0.47640  0.13780  Biso   1.000  C
  H17      1.0000 0.61910  0.10250  0.05290  Biso   1.000  H
  H18      1.0000 0.38090  0.89750  0.55290  Biso   1.000  H
  H19      1.0000 0.88090  0.60250  0.55290  Biso   1.000  H
  H20      1.0000 0.11910  0.39750  0.05290  Biso   1.000  H
  C21      1.0000 0.67062  0.96260  0.19720  Biso   1.000  C
  C22      1.0000 0.32938  0.03740  0.69720  Biso   1.000  C
  C23      1.0000 0.82938  0.46260  0.69720  Biso   1.000  C
  C24      1.0000 0.17062  0.53740  0.19720  Biso   1.000  C
  C25      1.0000 0.76014  0.90080  0.24840  Biso   1.000  C
  C26      1.0000 0.23986  0.09920  0.74840  Biso   1.000  C
  C27      1.0000 0.73986  0.40080  0.74840  Biso   1.000  C
  C28      1.0000 0.26014  0.59920  0.24840  Biso   1.000  C
  C29      1.0000 0.82406  0.89930  0.24120  Biso   1.000  C
  C30      1.0000 0.17594  0.10070  0.74120  Biso   1.000  C
  C31      1.0000 0.67594  0.39930  0.74120  Biso   1.000  C
  C32      1.0000 0.32406  0.60070  0.24120  Biso   1.000  C
  C33      1.0000 0.85672  0.99700  0.36040  Biso   1.000  C
  C34      1.0000 0.14328  0.00300  0.86040  Biso   1.000  C
  C35      1.0000 0.64328  0.49700  0.86040  Biso   1.000  C
  C36      1.0000 0.35672  0.50300  0.36040  Biso   1.000  C
  H21      1.0000 0.83670  0.06300  0.45180  Biso   1.000  H
  H22      1.0000 0.16330  0.93700  0.95180  Biso   1.000  H
  H23      1.0000 0.66330  0.56300  0.95180  Biso   1.000  H
  H24      1.0000 0.33670  0.43700  0.45180  Biso   1.000  H
  C37      1.0000 0.94270  0.90720  0.22750  Biso   1.000  C
  C38      1.0000 0.05730  0.09280  0.72750  Biso   1.000  C
  C39      1.0000 0.55730  0.40720  0.72750  Biso   1.000  C
  C40      1.0000 0.44270  0.59280  0.22750  Biso   1.000  C
  H25      1.0000 0.98320  0.90920  0.22090  Biso   1.000  H
  H26      1.0000 0.01680  0.09080  0.72090  Biso   1.000  H
  H27      1.0000 0.51680  0.40920  0.72090  Biso   1.000  H
  H28      1.0000 0.48320  0.59080  0.22090  Biso   1.000  H
  C41      1.0000 0.91465  0.80520  0.10620  Biso   1.000  C
  C42      1.0000 0.08535  0.19480  0.60620  Biso   1.000  C
  C43      1.0000 0.58535  0.30520  0.60620  Biso   1.000  C
  C44      1.0000 0.41465  0.69480  0.10620  Biso   1.000  C
  H29      1.0000 0.93600  0.74020  0.01930  Biso   1.000  H
  H30      1.0000 0.06400  0.25980  0.51930  Biso   1.000  H
  H31      1.0000 0.56400  0.24020  0.51930  Biso   1.000  H
  H32      1.0000 0.43600  0.75980  0.01930  Biso   1.000  H
  C45      1.0000 0.85523  0.80080  0.11520  Biso   1.000  C
  C46      1.0000 0.14477  0.19920  0.61520  Biso   1.000  C
  C47      1.0000 0.64477  0.30080  0.61520  Biso   1.000  C
  C48      1.0000 0.35523  0.69920  0.11520  Biso   1.000  C
  H33      1.0000 0.83570  0.73210  0.03730  Biso   1.000  H
  H34      1.0000 0.16430  0.26790  0.53730  Biso   1.000  H
  H35      1.0000 0.66430  0.23210  0.53730  Biso   1.000  H
  H36      1.0000 0.33570  0.76790  0.03730  Biso   1.000  H
