data_image0
_cell_length_a       12.525
_cell_length_b       13.95
_cell_length_c       14.626
_cell_angle_alpha    90
_cell_angle_beta     97.72
_cell_angle_gamma    90

_symmetry_space_group_name_H-M    "P 1"
_symmetry_int_tables_number       1

loop_
  _symmetry_equiv_pos_as_xyz
  'x, y, z'

loop_
  _atom_site_label
  _atom_site_occupancy
  _atom_site_fract_x
  _atom_site_fract_y
  _atom_site_fract_z
  _atom_site_thermal_displace_type
  _atom_site_B_iso_or_equiv
  _atom_site_type_symbol
  Cu1      1.0000 0.70815  0.19154  0.36895  Biso   1.000  Cu
  Cu2      1.0000 0.29185  0.69154  0.13105  Biso   1.000  Cu
  Cu3      1.0000 0.29185  0.80846  0.63105  Biso   1.000  Cu
  Cu4      1.0000 0.70815  0.30846  0.86895  Biso   1.000  Cu
  N1       1.0000 0.40269  0.95445  0.35587  Biso   1.000  N
  N2       1.0000 0.59731  0.45445  0.14413  Biso   1.000  N
  N3       1.0000 0.59731  0.04555  0.64413  Biso   1.000  N
  N4       1.0000 0.40269  0.54555  0.85587  Biso   1.000  N
  C1       1.0000 0.56960  0.89759  0.25992  Biso   1.000  C
  C2       1.0000 0.43040  0.39759  0.24008  Biso   1.000  C
  C3       1.0000 0.43040  0.10241  0.74008  Biso   1.000  C
  C4       1.0000 0.56960  0.60241  0.75992  Biso   1.000  C
  H1       1.0000 0.62570  0.87840  0.22850  Biso   1.000  H
  H2       1.0000 0.37430  0.37840  0.27150  Biso   1.000  H
  H3       1.0000 0.37430  0.12160  0.77150  Biso   1.000  H
  H4       1.0000 0.62570  0.62160  0.72850  Biso   1.000  H
  C5       1.0000 0.48140  0.83892  0.26281  Biso   1.000  C
  C6       1.0000 0.51860  0.33892  0.23719  Biso   1.000  C
  C7       1.0000 0.51860  0.16108  0.73719  Biso   1.000  C
  C8       1.0000 0.48140  0.66108  0.76281  Biso   1.000  C
  H5       1.0000 0.47730  0.77940  0.23390  Biso   1.000  H
  H6       1.0000 0.52270  0.27940  0.26610  Biso   1.000  H
  H7       1.0000 0.52270  0.22060  0.76610  Biso   1.000  H
  H8       1.0000 0.47730  0.72060  0.73390  Biso   1.000  H
  C9       1.0000 0.39900  0.87086  0.30999  Biso   1.000  C
  C10      1.0000 0.60100  0.37086  0.19001  Biso   1.000  C
  C11      1.0000 0.60100  0.12914  0.69001  Biso   1.000  C
  C12      1.0000 0.39900  0.62914  0.80999  Biso   1.000  C
  C13      1.0000 0.48924  0.00992  0.35293  Biso   1.000  C
  C14      1.0000 0.51076  0.50992  0.14707  Biso   1.000  C
  C15      1.0000 0.51076  0.99008  0.64707  Biso   1.000  C
  C16      1.0000 0.48924  0.49008  0.85293  Biso   1.000  C
  C17      1.0000 0.57350  0.98545  0.30444  Biso   1.000  C
  C18      1.0000 0.42650  0.48545  0.19556  Biso   1.000  C
  C19      1.0000 0.42650  0.01455  0.69556  Biso   1.000  C
  C20      1.0000 0.57350  0.51455  0.80444  Biso   1.000  C
  H9       1.0000 0.63110  0.02700  0.30200  Biso   1.000  H
  H10      1.0000 0.36890  0.52700  0.19800  Biso   1.000  H
  H11      1.0000 0.36890  0.97300  0.69800  Biso   1.000  H
  H12      1.0000 0.63110  0.47300  0.80200  Biso   1.000  H
  S1       1.0000 0.21354  0.84000  0.39190  Biso   1.000  S
  S2       1.0000 0.78646  0.34000  0.10810  Biso   1.000  S
  S3       1.0000 0.78646  0.16000  0.60810  Biso   1.000  S
  S4       1.0000 0.21354  0.66000  0.89190  Biso   1.000  S
  N5       1.0000 0.27744  0.73513  0.26615  Biso   1.000  N
  N6       1.0000 0.72256  0.23513  0.23385  Biso   1.000  N
  N7       1.0000 0.72256  0.26487  0.73385  Biso   1.000  N
  N8       1.0000 0.27744  0.76487  0.76615  Biso   1.000  N
  N9       1.0000 0.17898  0.59744  0.15433  Biso   1.000  N
  N10      1.0000 0.82102  0.09744  0.34567  Biso   1.000  N
  N11      1.0000 0.82102  0.40256  0.84567  Biso   1.000  N
  N12      1.0000 0.17898  0.90256  0.65433  Biso   1.000  N
  C21      1.0000 0.30240  0.81261  0.31486  Biso   1.000  C
  C22      1.0000 0.69760  0.31261  0.18514  Biso   1.000  C
  C23      1.0000 0.69760  0.18739  0.68514  Biso   1.000  C
  C24      1.0000 0.30240  0.68739  0.81486  Biso   1.000  C
  C25      1.0000 0.18499  0.69316  0.28980  Biso   1.000  C
  C26      1.0000 0.81501  0.19316  0.21020  Biso   1.000  C
  C27      1.0000 0.81501  0.30684  0.71020  Biso   1.000  C
  C28      1.0000 0.18499  0.80684  0.78980  Biso   1.000  C
  C29      1.0000 0.14000  0.74016  0.35688  Biso   1.000  C
  C30      1.0000 0.86000  0.24016  0.14312  Biso   1.000  C
  C31      1.0000 0.86000  0.25984  0.64312  Biso   1.000  C
  C32      1.0000 0.14000  0.75984  0.85688  Biso   1.000  C
  H13      1.0000 0.07810  0.72070  0.38030  Biso   1.000  H
  H14      1.0000 0.92190  0.22070  0.11970  Biso   1.000  H
  H15      1.0000 0.92190  0.27930  0.61970  Biso   1.000  H
  H16      1.0000 0.07810  0.77930  0.88030  Biso   1.000  H
  C33      1.0000 0.14469  0.60735  0.23785  Biso   1.000  C
  C34      1.0000 0.85531  0.10735  0.26215  Biso   1.000  C
  C35      1.0000 0.85531  0.39265  0.76215  Biso   1.000  C
  C36      1.0000 0.14469  0.89265  0.73785  Biso   1.000  C
  C37      1.0000 0.07840  0.54040  0.27187  Biso   1.000  C
  C38      1.0000 0.92160  0.04040  0.22813  Biso   1.000  C
  C39      1.0000 0.92160  0.45960  0.72813  Biso   1.000  C
  C40      1.0000 0.07840  0.95960  0.77187  Biso   1.000  C
  H17      1.0000 0.05740  0.54840  0.33000  Biso   1.000  H
  H18      1.0000 0.94260  0.04840  0.17000  Biso   1.000  H
  H19      1.0000 0.94260  0.45160  0.67000  Biso   1.000  H
  H20      1.0000 0.05740  0.95160  0.83000  Biso   1.000  H
  C41      1.0000 0.04380  0.46170  0.21859  Biso   1.000  C
  C42      1.0000 0.95620  0.96170  0.28141  Biso   1.000  C
  C43      1.0000 0.95620  0.53830  0.78141  Biso   1.000  C
  C44      1.0000 0.04380  0.03830  0.71859  Biso   1.000  C
  H21      1.0000 0.99990  0.41570  0.24050  Biso   1.000  H
  H22      1.0000 0.00010  0.91570  0.25950  Biso   1.000  H
  H23      1.0000 0.00010  0.58430  0.75950  Biso   1.000  H
  H24      1.0000 0.99990  0.08430  0.74050  Biso   1.000  H
  C45      1.0000 0.07570  0.45270  0.13181  Biso   1.000  C
  C46      1.0000 0.92430  0.95270  0.36819  Biso   1.000  C
  C47      1.0000 0.92430  0.54730  0.86819  Biso   1.000  C
  C48      1.0000 0.07570  0.04730  0.63181  Biso   1.000  C
  H25      1.0000 0.05200  0.40150  0.09370  Biso   1.000  H
  H26      1.0000 0.94800  0.90150  0.40630  Biso   1.000  H
  H27      1.0000 0.94800  0.59850  0.90630  Biso   1.000  H
  H28      1.0000 0.05200  0.09850  0.59370  Biso   1.000  H
  C49      1.0000 0.14320  0.52119  0.10326  Biso   1.000  C
  C50      1.0000 0.85680  0.02119  0.39674  Biso   1.000  C
  C51      1.0000 0.85680  0.47881  0.89674  Biso   1.000  C
  C52      1.0000 0.14320  0.97881  0.60326  Biso   1.000  C
  H29      1.0000 0.16520  0.51420  0.04540  Biso   1.000  H
  H30      1.0000 0.83480  0.01420  0.45460  Biso   1.000  H
  H31      1.0000 0.83480  0.48580  0.95460  Biso   1.000  H
  H32      1.0000 0.16520  0.98580  0.54540  Biso   1.000  H
  S5       1.0000 0.37811  0.12599  0.46088  Biso   1.000  S
  S6       1.0000 0.62189  0.62599  0.03912  Biso   1.000  S
  S7       1.0000 0.62189  0.87401  0.53912  Biso   1.000  S
  S8       1.0000 0.37811  0.37401  0.96088  Biso   1.000  S
  N13      1.0000 0.56301  0.16578  0.41446  Biso   1.000  N
  N14      1.0000 0.43699  0.66578  0.08554  Biso   1.000  N
  N15      1.0000 0.43699  0.83422  0.58554  Biso   1.000  N
  N16      1.0000 0.56301  0.33422  0.91446  Biso   1.000  N
  N17      1.0000 0.69867  0.31538  0.43946  Biso   1.000  N
  N18      1.0000 0.30133  0.81538  0.06054  Biso   1.000  N
  N19      1.0000 0.30133  0.68462  0.56054  Biso   1.000  N
  N20      1.0000 0.69867  0.18462  0.93946  Biso   1.000  N
  C53      1.0000 0.48752  0.09985  0.40534  Biso   1.000  C
  C54      1.0000 0.51248  0.59985  0.09466  Biso   1.000  C
  C55      1.0000 0.51248  0.90015  0.59466  Biso   1.000  C
  C56      1.0000 0.48752  0.40015  0.90534  Biso   1.000  C
  C57      1.0000 0.53530  0.24125  0.46810  Biso   1.000  C
  C58      1.0000 0.46470  0.74125  0.03190  Biso   1.000  C
  C59      1.0000 0.46470  0.75875  0.53190  Biso   1.000  C
  C60      1.0000 0.53530  0.25875  0.96810  Biso   1.000  C
  C61      1.0000 0.43760  0.23154  0.49859  Biso   1.000  C
  C62      1.0000 0.56240  0.73154  0.00141  Biso   1.000  C
  C63      1.0000 0.56240  0.76846  0.50141  Biso   1.000  C
  C64      1.0000 0.43760  0.26846  0.99859  Biso   1.000  C
  H33      1.0000 0.40760  0.27620  0.53490  Biso   1.000  H
  H34      1.0000 0.59240  0.77620  0.96510  Biso   1.000  H
  H35      1.0000 0.59240  0.72380  0.46510  Biso   1.000  H
  H36      1.0000 0.40760  0.22380  0.03490  Biso   1.000  H
  C65      1.0000 0.61050  0.32303  0.48297  Biso   1.000  C
  C66      1.0000 0.38950  0.82303  0.01703  Biso   1.000  C
  C67      1.0000 0.38950  0.67697  0.51703  Biso   1.000  C
  C68      1.0000 0.61050  0.17697  0.98297  Biso   1.000  C
  C69      1.0000 0.59300  0.40191  0.53706  Biso   1.000  C
  C70      1.0000 0.40700  0.90191  0.96294  Biso   1.000  C
  C71      1.0000 0.40700  0.59809  0.46294  Biso   1.000  C
  C72      1.0000 0.59300  0.09809  0.03706  Biso   1.000  C
  H37      1.0000 0.53300  0.40470  0.56820  Biso   1.000  H
  H38      1.0000 0.46700  0.90470  0.93180  Biso   1.000  H
  H39      1.0000 0.46700  0.59530  0.43180  Biso   1.000  H
  H40      1.0000 0.53300  0.09530  0.06820  Biso   1.000  H
  C73      1.0000 0.66700  0.47623  0.54353  Biso   1.000  C
  C74      1.0000 0.33300  0.97623  0.95647  Biso   1.000  C
  C75      1.0000 0.33300  0.52377  0.45647  Biso   1.000  C
  C76      1.0000 0.66700  0.02377  0.04353  Biso   1.000  C
  H41      1.0000 0.65660  0.53030  0.57850  Biso   1.000  H
  H42      1.0000 0.34340  0.03030  0.92150  Biso   1.000  H
  H43      1.0000 0.34340  0.46970  0.42150  Biso   1.000  H
  H44      1.0000 0.65660  0.96970  0.07850  Biso   1.000  H
  C77      1.0000 0.75590  0.46972  0.49804  Biso   1.000  C
  C78      1.0000 0.24410  0.96972  0.00196  Biso   1.000  C
  C79      1.0000 0.24410  0.53028  0.50196  Biso   1.000  C
  C80      1.0000 0.75590  0.03028  0.99804  Biso   1.000  C
  H45      1.0000 0.80590  0.51930  0.50130  Biso   1.000  H
  H46      1.0000 0.19410  0.01930  0.99870  Biso   1.000  H
  H47      1.0000 0.19410  0.48070  0.49870  Biso   1.000  H
  H48      1.0000 0.80590  0.98070  0.00130  Biso   1.000  H
  C81      1.0000 0.76960  0.38795  0.44740  Biso   1.000  C
  C82      1.0000 0.23040  0.88795  0.05260  Biso   1.000  C
  C83      1.0000 0.23040  0.61205  0.55260  Biso   1.000  C
  C84      1.0000 0.76960  0.11205  0.94740  Biso   1.000  C
  H49      1.0000 0.83050  0.38310  0.41760  Biso   1.000  H
  H50      1.0000 0.16950  0.88310  0.08240  Biso   1.000  H
  H51      1.0000 0.16950  0.61690  0.58240  Biso   1.000  H
  H52      1.0000 0.83050  0.11690  0.91760  Biso   1.000  H
  P1       1.0000 0.91781  0.77051  0.06197  Biso   1.000  P
  P2       1.0000 0.08219  0.27051  0.43803  Biso   1.000  P
  P3       1.0000 0.08219  0.22949  0.93803  Biso   1.000  P
  P4       1.0000 0.91781  0.72949  0.56197  Biso   1.000  P
  F1       1.0000 0.02028  0.72763  0.02232  Biso   1.000  F
  F2       1.0000 0.97972  0.22763  0.47768  Biso   1.000  F
  F3       1.0000 0.97972  0.27237  0.97768  Biso   1.000  F
  F4       1.0000 0.02028  0.77237  0.52232  Biso   1.000  F
  F5       1.0000 0.96370  0.75610  0.16920  Biso   1.000  F
  F6       1.0000 0.03630  0.25610  0.33080  Biso   1.000  F
  F7       1.0000 0.03630  0.24390  0.83080  Biso   1.000  F
  F8       1.0000 0.96370  0.74390  0.66920  Biso   1.000  F
  F9       1.0000 0.87060  0.66500  0.05950  Biso   1.000  F
  F10      1.0000 0.12940  0.16500  0.44050  Biso   1.000  F
  F11      1.0000 0.12940  0.33500  0.94050  Biso   1.000  F
  F12      1.0000 0.87060  0.83500  0.55950  Biso   1.000  F
  F13      1.0000 0.87380  0.78760  0.95680  Biso   1.000  F
  F14      1.0000 0.12620  0.28760  0.54320  Biso   1.000  F
  F15      1.0000 0.12620  0.21240  0.04320  Biso   1.000  F
  F16      1.0000 0.87380  0.71240  0.45680  Biso   1.000  F
  F17      1.0000 0.96400  0.87780  0.06940  Biso   1.000  F
  F18      1.0000 0.03600  0.37780  0.43060  Biso   1.000  F
  F19      1.0000 0.03600  0.12220  0.93060  Biso   1.000  F
  F20      1.0000 0.96400  0.62220  0.56940  Biso   1.000  F
  F21      1.0000 0.81523  0.81302  0.10063  Biso   1.000  F
  F22      1.0000 0.18477  0.31302  0.39937  Biso   1.000  F
  F23      1.0000 0.18477  0.18698  0.89937  Biso   1.000  F
  F24      1.0000 0.81523  0.68698  0.60063  Biso   1.000  F
  F25      1.0000 0.00120  0.77960  0.15110  Biso   1.000  F
  F26      1.0000 0.99880  0.27960  0.34890  Biso   1.000  F
  F27      1.0000 0.99880  0.22040  0.84890  Biso   1.000  F
  F28      1.0000 0.00120  0.72040  0.65110  Biso   1.000  F
  F29      1.0000 0.88780  0.66540  0.08960  Biso   1.000  F
  F30      1.0000 0.11220  0.16540  0.41040  Biso   1.000  F
  F31      1.0000 0.11220  0.33460  0.91040  Biso   1.000  F
  F32      1.0000 0.88780  0.83460  0.58960  Biso   1.000  F
  F33      1.0000 0.83450  0.75750  0.97010  Biso   1.000  F
  F34      1.0000 0.16550  0.25750  0.52990  Biso   1.000  F
  F35      1.0000 0.16550  0.24250  0.02990  Biso   1.000  F
  F36      1.0000 0.83450  0.74250  0.47010  Biso   1.000  F
  F37      1.0000 0.95330  0.87210  0.02720  Biso   1.000  F
  F38      1.0000 0.04670  0.37210  0.47280  Biso   1.000  F
  F39      1.0000 0.04670  0.12790  0.97280  Biso   1.000  F
  F40      1.0000 0.95330  0.62790  0.52720  Biso   1.000  F
  C85      1.0000 0.19340  0.10220  0.22380  Biso   1.000  C
  C86      1.0000 0.80660  0.60220  0.27620  Biso   1.000  C
  C87      1.0000 0.80660  0.89780  0.77620  Biso   1.000  C
  C88      1.0000 0.19340  0.39780  0.72380  Biso   1.000  C
  H53      1.0000 0.14680  0.07720  0.17180  Biso   1.000  H
  H54      1.0000 0.85320  0.57720  0.32820  Biso   1.000  H
  H55      1.0000 0.85320  0.92280  0.82820  Biso   1.000  H
  H56      1.0000 0.14680  0.42280  0.67180  Biso   1.000  H
  H57      1.0000 0.16370  0.16060  0.24420  Biso   1.000  H
  H58      1.0000 0.83630  0.66060  0.25580  Biso   1.000  H
  H59      1.0000 0.83630  0.83940  0.75580  Biso   1.000  H
  H60      1.0000 0.16370  0.33940  0.74420  Biso   1.000  H
  H61      1.0000 0.20010  0.05620  0.27300  Biso   1.000  H
  H62      1.0000 0.79990  0.55620  0.22700  Biso   1.000  H
  H63      1.0000 0.79990  0.94380  0.72700  Biso   1.000  H
  H64      1.0000 0.20010  0.44380  0.77300  Biso   1.000  H
  C89      1.0000 0.29980  0.12140  0.19694  Biso   1.000  C
  C90      1.0000 0.70020  0.62140  0.30306  Biso   1.000  C
  C91      1.0000 0.70020  0.87860  0.80306  Biso   1.000  C
  C92      1.0000 0.29980  0.37860  0.69694  Biso   1.000  C
  N21      1.0000 0.38240  0.13309  0.17597  Biso   1.000  N
  N22      1.0000 0.61760  0.63309  0.32403  Biso   1.000  N
  N23      1.0000 0.61760  0.86691  0.82403  Biso   1.000  N
  N24      1.0000 0.38240  0.36691  0.67597  Biso   1.000  N
