data_image0
_cell_length_a       19.122
_cell_length_b       18.499
_cell_length_c       7.2538
_cell_angle_alpha    90
_cell_angle_beta     91.424
_cell_angle_gamma    90

_symmetry_space_group_name_H-M    "P 1"
_symmetry_int_tables_number       1

loop_
  _symmetry_equiv_pos_as_xyz
  'x, y, z'

loop_
  _atom_site_label
  _atom_site_occupancy
  _atom_site_fract_x
  _atom_site_fract_y
  _atom_site_fract_z
  _atom_site_thermal_displace_type
  _atom_site_B_iso_or_equiv
  _atom_site_type_symbol
  I1       1.0000 0.42163  0.50000  0.23186  Biso   1.000  I
  I2       1.0000 0.92163  0.00000  0.23186  Biso   1.000  I
  I3       1.0000 0.57837  0.50000  0.76814  Biso   1.000  I
  I4       1.0000 0.07837  0.00000  0.76814  Biso   1.000  I
  Cu1      1.0000 0.50000  0.42451  0.00000  Biso   1.000  Cu
  Cu2      1.0000 0.00000  0.92451  0.00000  Biso   1.000  Cu
  Cu3      1.0000 0.50000  0.57549  0.00000  Biso   1.000  Cu
  Cu4      1.0000 0.00000  0.07549  0.00000  Biso   1.000  Cu
  S1       1.0000 0.25360  0.05900  0.06810  Biso   1.000  S
  S2       1.0000 0.75360  0.55900  0.06810  Biso   1.000  S
  S3       1.0000 0.74640  0.05900  0.93190  Biso   1.000  S
  S4       1.0000 0.24640  0.55900  0.93190  Biso   1.000  S
  S5       1.0000 0.74640  0.94100  0.93190  Biso   1.000  S
  S6       1.0000 0.24640  0.44100  0.93190  Biso   1.000  S
  S7       1.0000 0.25360  0.94100  0.06810  Biso   1.000  S
  S8       1.0000 0.75360  0.44100  0.06810  Biso   1.000  S
  O1       1.0000 0.31450  0.22680  0.33030  Biso   1.000  O
  O2       1.0000 0.81450  0.72680  0.33030  Biso   1.000  O
  O3       1.0000 0.68550  0.22680  0.66970  Biso   1.000  O
  O4       1.0000 0.18550  0.72680  0.66970  Biso   1.000  O
  O5       1.0000 0.68550  0.77320  0.66970  Biso   1.000  O
  O6       1.0000 0.18550  0.27320  0.66970  Biso   1.000  O
  O7       1.0000 0.31450  0.77320  0.33030  Biso   1.000  O
  O8       1.0000 0.81450  0.27320  0.33030  Biso   1.000  O
  O9       1.0000 0.31080  0.09140  0.16700  Biso   1.000  O
  O10      1.0000 0.81080  0.59140  0.16700  Biso   1.000  O
  O11      1.0000 0.68920  0.09140  0.83300  Biso   1.000  O
  O12      1.0000 0.18920  0.59140  0.83300  Biso   1.000  O
  O13      1.0000 0.68920  0.90860  0.83300  Biso   1.000  O
  O14      1.0000 0.18920  0.40860  0.83300  Biso   1.000  O
  O15      1.0000 0.31080  0.90860  0.16700  Biso   1.000  O
  O16      1.0000 0.81080  0.40860  0.16700  Biso   1.000  O
  N1       1.0000 0.42960  0.36340  0.84860  Biso   1.000  N
  N2       1.0000 0.92960  0.86340  0.84860  Biso   1.000  N
  N3       1.0000 0.57040  0.36340  0.15140  Biso   1.000  N
  N4       1.0000 0.07040  0.86340  0.15140  Biso   1.000  N
  N5       1.0000 0.57040  0.63660  0.15140  Biso   1.000  N
  N6       1.0000 0.07040  0.13660  0.15140  Biso   1.000  N
  N7       1.0000 0.42960  0.63660  0.84860  Biso   1.000  N
  N8       1.0000 0.92960  0.13660  0.84860  Biso   1.000  N
  C1       1.0000 0.33570  0.27720  0.63140  Biso   1.000  C
  C2       1.0000 0.83570  0.77720  0.63140  Biso   1.000  C
  C3       1.0000 0.66430  0.27720  0.36860  Biso   1.000  C
  C4       1.0000 0.16430  0.77720  0.36860  Biso   1.000  C
  C5       1.0000 0.66430  0.72280  0.36860  Biso   1.000  C
  C6       1.0000 0.16430  0.22280  0.36860  Biso   1.000  C
  C7       1.0000 0.33570  0.72280  0.63140  Biso   1.000  C
  C8       1.0000 0.83570  0.22280  0.63140  Biso   1.000  C
  C9       1.0000 0.33430  0.27830  0.82630  Biso   1.000  C
  C10      1.0000 0.83430  0.77830  0.82630  Biso   1.000  C
  C11      1.0000 0.66570  0.27830  0.17370  Biso   1.000  C
  C12      1.0000 0.16570  0.77830  0.17370  Biso   1.000  C
  C13      1.0000 0.66570  0.72170  0.17370  Biso   1.000  C
  C14      1.0000 0.16570  0.22170  0.17370  Biso   1.000  C
  C15      1.0000 0.33430  0.72170  0.82630  Biso   1.000  C
  C16      1.0000 0.83430  0.22170  0.82630  Biso   1.000  C
  C17      1.0000 0.38190  0.32020  0.92520  Biso   1.000  C
  C18      1.0000 0.88190  0.82020  0.92520  Biso   1.000  C
  C19      1.0000 0.61810  0.32020  0.07480  Biso   1.000  C
  C20      1.0000 0.11810  0.82020  0.07480  Biso   1.000  C
  C21      1.0000 0.61810  0.67980  0.07480  Biso   1.000  C
  C22      1.0000 0.11810  0.17980  0.07480  Biso   1.000  C
  C23      1.0000 0.38190  0.67980  0.92520  Biso   1.000  C
  C24      1.0000 0.88190  0.17980  0.92520  Biso   1.000  C
  C25      1.0000 0.42820  0.36580  0.66560  Biso   1.000  C
  C26      1.0000 0.92820  0.86580  0.66560  Biso   1.000  C
  C27      1.0000 0.57180  0.36580  0.33440  Biso   1.000  C
  C28      1.0000 0.07180  0.86580  0.33440  Biso   1.000  C
  C29      1.0000 0.57180  0.63420  0.33440  Biso   1.000  C
  C30      1.0000 0.07180  0.13420  0.33440  Biso   1.000  C
  C31      1.0000 0.42820  0.63420  0.66560  Biso   1.000  C
  C32      1.0000 0.92820  0.13420  0.66560  Biso   1.000  C
  C33      1.0000 0.38250  0.32430  0.55390  Biso   1.000  C
  C34      1.0000 0.88250  0.82430  0.55390  Biso   1.000  C
  C35      1.0000 0.61750  0.32430  0.44610  Biso   1.000  C
  C36      1.0000 0.11750  0.82430  0.44610  Biso   1.000  C
  C37      1.0000 0.61750  0.67570  0.44610  Biso   1.000  C
  C38      1.0000 0.11750  0.17570  0.44610  Biso   1.000  C
  C39      1.0000 0.38250  0.67570  0.55390  Biso   1.000  C
  C40      1.0000 0.88250  0.17570  0.55390  Biso   1.000  C
  C41      1.0000 0.28500  0.23080  0.51050  Biso   1.000  C
  C42      1.0000 0.78500  0.73080  0.51050  Biso   1.000  C
  C43      1.0000 0.71500  0.23080  0.48950  Biso   1.000  C
  C44      1.0000 0.21500  0.73080  0.48950  Biso   1.000  C
  C45      1.0000 0.71500  0.76920  0.48950  Biso   1.000  C
  C46      1.0000 0.21500  0.26920  0.48950  Biso   1.000  C
  C47      1.0000 0.28500  0.76920  0.51050  Biso   1.000  C
  C48      1.0000 0.78500  0.26920  0.51050  Biso   1.000  C
  C49      1.0000 0.27750  0.15680  0.59770  Biso   1.000  C
  C50      1.0000 0.77750  0.65680  0.59770  Biso   1.000  C
  C51      1.0000 0.72250  0.15680  0.40230  Biso   1.000  C
  C52      1.0000 0.22250  0.65680  0.40230  Biso   1.000  C
  C53      1.0000 0.72250  0.84320  0.40230  Biso   1.000  C
  C54      1.0000 0.22250  0.34320  0.40230  Biso   1.000  C
  C55      1.0000 0.27750  0.84320  0.59770  Biso   1.000  C
  C56      1.0000 0.77750  0.34320  0.59770  Biso   1.000  C
  C57      1.0000 0.20600  0.00100  0.21800  Biso   1.000  C
  C58      1.0000 0.70600  0.50100  0.21800  Biso   1.000  C
  C59      1.0000 0.79400  0.00100  0.78200  Biso   1.000  C
  C60      1.0000 0.29400  0.50100  0.78200  Biso   1.000  C
  C61      1.0000 0.79400  0.99900  0.78200  Biso   1.000  C
  C62      1.0000 0.29400  0.49900  0.78200  Biso   1.000  C
  C63      1.0000 0.20600  0.99900  0.21800  Biso   1.000  C
  C64      1.0000 0.70600  0.49900  0.21800  Biso   1.000  C
  C65      1.0000 0.29000  0.98900  0.92900  Biso   1.000  C
  C66      1.0000 0.79000  0.48900  0.92900  Biso   1.000  C
  C67      1.0000 0.71000  0.98900  0.07100  Biso   1.000  C
  C68      1.0000 0.21000  0.48900  0.07100  Biso   1.000  C
  C69      1.0000 0.71000  0.01100  0.07100  Biso   1.000  C
  C70      1.0000 0.21000  0.51100  0.07100  Biso   1.000  C
  C71      1.0000 0.29000  0.01100  0.92900  Biso   1.000  C
  C72      1.0000 0.79000  0.51100  0.92900  Biso   1.000  C
  H1       1.0000 0.30210  0.18900  0.28000  Biso   1.000  H
  H2       1.0000 0.80210  0.68900  0.28000  Biso   1.000  H
  H3       1.0000 0.69790  0.18900  0.72000  Biso   1.000  H
  H4       1.0000 0.19790  0.68900  0.72000  Biso   1.000  H
  H5       1.0000 0.69790  0.81100  0.72000  Biso   1.000  H
  H6       1.0000 0.19790  0.31100  0.72000  Biso   1.000  H
  H7       1.0000 0.30210  0.81100  0.28000  Biso   1.000  H
  H8       1.0000 0.80210  0.31100  0.28000  Biso   1.000  H
  H9       1.0000 0.30140  0.25090  0.88780  Biso   1.000  H
  H10      1.0000 0.80140  0.75090  0.88780  Biso   1.000  H
  H11      1.0000 0.69860  0.25090  0.11220  Biso   1.000  H
  H12      1.0000 0.19860  0.75090  0.11220  Biso   1.000  H
  H13      1.0000 0.69860  0.74910  0.11220  Biso   1.000  H
  H14      1.0000 0.19860  0.24910  0.11220  Biso   1.000  H
  H15      1.0000 0.30140  0.74910  0.88780  Biso   1.000  H
  H16      1.0000 0.80140  0.24910  0.88780  Biso   1.000  H
  H17      1.0000 0.38070  0.31850  0.05320  Biso   1.000  H
  H18      1.0000 0.88070  0.81850  0.05320  Biso   1.000  H
  H19      1.0000 0.61930  0.31850  0.94680  Biso   1.000  H
  H20      1.0000 0.11930  0.81850  0.94680  Biso   1.000  H
  H21      1.0000 0.61930  0.68150  0.94680  Biso   1.000  H
  H22      1.0000 0.11930  0.18150  0.94680  Biso   1.000  H
  H23      1.0000 0.38070  0.68150  0.05320  Biso   1.000  H
  H24      1.0000 0.88070  0.18150  0.05320  Biso   1.000  H
  H25      1.0000 0.45920  0.39670  0.60820  Biso   1.000  H
  H26      1.0000 0.95920  0.89670  0.60820  Biso   1.000  H
  H27      1.0000 0.54080  0.39670  0.39180  Biso   1.000  H
  H28      1.0000 0.04080  0.89670  0.39180  Biso   1.000  H
  H29      1.0000 0.54080  0.60330  0.39180  Biso   1.000  H
  H30      1.0000 0.04080  0.10330  0.39180  Biso   1.000  H
  H31      1.0000 0.45920  0.60330  0.60820  Biso   1.000  H
  H32      1.0000 0.95920  0.10330  0.60820  Biso   1.000  H
  H33      1.0000 0.38390  0.32870  0.42630  Biso   1.000  H
  H34      1.0000 0.88390  0.82870  0.42630  Biso   1.000  H
  H35      1.0000 0.61610  0.32870  0.57370  Biso   1.000  H
  H36      1.0000 0.11610  0.82870  0.57370  Biso   1.000  H
  H37      1.0000 0.61610  0.67130  0.57370  Biso   1.000  H
  H38      1.0000 0.11610  0.17130  0.57370  Biso   1.000  H
  H39      1.0000 0.38390  0.67130  0.42630  Biso   1.000  H
  H40      1.0000 0.88390  0.17130  0.42630  Biso   1.000  H
  H41      1.0000 0.32260  0.13410  0.60810  Biso   1.000  H
  H42      1.0000 0.82260  0.63410  0.60810  Biso   1.000  H
  H43      1.0000 0.67740  0.13410  0.39190  Biso   1.000  H
  H44      1.0000 0.17740  0.63410  0.39190  Biso   1.000  H
  H45      1.0000 0.67740  0.86590  0.39190  Biso   1.000  H
  H46      1.0000 0.17740  0.36590  0.39190  Biso   1.000  H
  H47      1.0000 0.32260  0.86590  0.60810  Biso   1.000  H
  H48      1.0000 0.82260  0.36590  0.60810  Biso   1.000  H
  H49      1.0000 0.24690  0.12750  0.52200  Biso   1.000  H
  H50      1.0000 0.74690  0.62750  0.52200  Biso   1.000  H
  H51      1.0000 0.75310  0.12750  0.47800  Biso   1.000  H
  H52      1.0000 0.25310  0.62750  0.47800  Biso   1.000  H
  H53      1.0000 0.75310  0.87250  0.47800  Biso   1.000  H
  H54      1.0000 0.25310  0.37250  0.47800  Biso   1.000  H
  H55      1.0000 0.24690  0.87250  0.52200  Biso   1.000  H
  H56      1.0000 0.74690  0.37250  0.52200  Biso   1.000  H
  H57      1.0000 0.25830  0.16180  0.71800  Biso   1.000  H
  H58      1.0000 0.75830  0.66180  0.71800  Biso   1.000  H
  H59      1.0000 0.74170  0.16180  0.28200  Biso   1.000  H
  H60      1.0000 0.24170  0.66180  0.28200  Biso   1.000  H
  H61      1.0000 0.74170  0.83820  0.28200  Biso   1.000  H
  H62      1.0000 0.24170  0.33820  0.28200  Biso   1.000  H
  H63      1.0000 0.25830  0.83820  0.71800  Biso   1.000  H
  H64      1.0000 0.75830  0.33820  0.71800  Biso   1.000  H
  H65      1.0000 0.18240  0.03020  0.30750  Biso   1.000  H
  H66      1.0000 0.68240  0.53020  0.30750  Biso   1.000  H
  H67      1.0000 0.81760  0.03020  0.69250  Biso   1.000  H
  H68      1.0000 0.31760  0.53020  0.69250  Biso   1.000  H
  H69      1.0000 0.81760  0.96980  0.69250  Biso   1.000  H
  H70      1.0000 0.31760  0.46980  0.69250  Biso   1.000  H
  H71      1.0000 0.18240  0.96980  0.30750  Biso   1.000  H
  H72      1.0000 0.68240  0.46980  0.30750  Biso   1.000  H
  H73      1.0000 0.23780  0.96880  0.28020  Biso   1.000  H
  H74      1.0000 0.73780  0.46880  0.28020  Biso   1.000  H
  H75      1.0000 0.76220  0.96880  0.71980  Biso   1.000  H
  H76      1.0000 0.26220  0.46880  0.71980  Biso   1.000  H
  H77      1.0000 0.76220  0.03120  0.71980  Biso   1.000  H
  H78      1.0000 0.26220  0.53120  0.71980  Biso   1.000  H
  H79      1.0000 0.23780  0.03120  0.28020  Biso   1.000  H
  H80      1.0000 0.73780  0.53120  0.28020  Biso   1.000  H
  H81      1.0000 0.17210  0.97410  0.14710  Biso   1.000  H
  H82      1.0000 0.67210  0.47410  0.14710  Biso   1.000  H
  H83      1.0000 0.82790  0.97410  0.85290  Biso   1.000  H
  H84      1.0000 0.32790  0.47410  0.85290  Biso   1.000  H
  H85      1.0000 0.82790  0.02590  0.85290  Biso   1.000  H
  H86      1.0000 0.32790  0.52590  0.85290  Biso   1.000  H
  H87      1.0000 0.17210  0.02590  0.14710  Biso   1.000  H
  H88      1.0000 0.67210  0.52590  0.14710  Biso   1.000  H
  H89      1.0000 0.32280  0.01050  0.84580  Biso   1.000  H
  H90      1.0000 0.82280  0.51050  0.84580  Biso   1.000  H
  H91      1.0000 0.67720  0.01050  0.15420  Biso   1.000  H
  H92      1.0000 0.17720  0.51050  0.15420  Biso   1.000  H
  H93      1.0000 0.67720  0.98950  0.15420  Biso   1.000  H
  H94      1.0000 0.17720  0.48950  0.15420  Biso   1.000  H
  H95      1.0000 0.32280  0.98950  0.84580  Biso   1.000  H
  H96      1.0000 0.82280  0.48950  0.84580  Biso   1.000  H
  H97      1.0000 0.25350  0.96570  0.85940  Biso   1.000  H
  H98      1.0000 0.75350  0.46570  0.85940  Biso   1.000  H
  H99      1.0000 0.74650  0.96570  0.14060  Biso   1.000  H
  H100     1.0000 0.24650  0.46570  0.14060  Biso   1.000  H
  H101     1.0000 0.74650  0.03430  0.14060  Biso   1.000  H
  H102     1.0000 0.24650  0.53430  0.14060  Biso   1.000  H
  H103     1.0000 0.25350  0.03430  0.85940  Biso   1.000  H
  H104     1.0000 0.75350  0.53430  0.85940  Biso   1.000  H
  H105     1.0000 0.31400  0.95490  0.00670  Biso   1.000  H
  H106     1.0000 0.81400  0.45490  0.00670  Biso   1.000  H
  H107     1.0000 0.68600  0.95490  0.99330  Biso   1.000  H
  H108     1.0000 0.18600  0.45490  0.99330  Biso   1.000  H
  H109     1.0000 0.68600  0.04510  0.99330  Biso   1.000  H
  H110     1.0000 0.18600  0.54510  0.99330  Biso   1.000  H
  H111     1.0000 0.31400  0.04510  0.00670  Biso   1.000  H
  H112     1.0000 0.81400  0.54510  0.00670  Biso   1.000  H
