data_image0
_cell_length_a       3.872
_cell_length_b       16.647
_cell_length_c       7.377
_cell_angle_alpha    90
_cell_angle_beta     99.074
_cell_angle_gamma    90

_symmetry_space_group_name_H-M    "P 1"
_symmetry_int_tables_number       1

loop_
  _symmetry_equiv_pos_as_xyz
  'x, y, z'

loop_
  _atom_site_label
  _atom_site_occupancy
  _atom_site_fract_x
  _atom_site_fract_y
  _atom_site_fract_z
  _atom_site_thermal_displace_type
  _atom_site_B_iso_or_equiv
  _atom_site_type_symbol
  C1       1.0000 0.44220  0.68240  0.18470  Biso   1.000  C
  C2       1.0000 0.55780  0.18240  0.81530  Biso   1.000  C
  C3       1.0000 0.55780  0.31760  0.81530  Biso   1.000  C
  C4       1.0000 0.44220  0.81760  0.18470  Biso   1.000  C
  C5       1.0000 0.27020  0.75000  0.42530  Biso   1.000  C
  C6       1.0000 0.72980  0.25000  0.57470  Biso   1.000  C
  N1       1.0000 0.32300  0.67817  0.34860  Biso   1.000  N
  N2       1.0000 0.67700  0.17817  0.65140  Biso   1.000  N
  N3       1.0000 0.67700  0.32183  0.65140  Biso   1.000  N
  N4       1.0000 0.32300  0.82183  0.34860  Biso   1.000  N
  N5       1.0000 0.50590  0.75000  0.09930  Biso   1.000  N
  N6       1.0000 0.49410  0.25000  0.90070  Biso   1.000  N
  N7       1.0000 0.50360  0.61310  0.10480  Biso   1.000  N
  N8       1.0000 0.49640  0.11310  0.89520  Biso   1.000  N
  N9       1.0000 0.49640  0.38690  0.89520  Biso   1.000  N
  N10      1.0000 0.50360  0.88690  0.10480  Biso   1.000  N
  N11      1.0000 0.15430  0.75000  0.58530  Biso   1.000  N
  N12      1.0000 0.84570  0.25000  0.41470  Biso   1.000  N
  Cu1      1.0000 0.27545  0.57366  0.47738  Biso   1.000  Cu
  Cu2      1.0000 0.72455  0.07366  0.52262  Biso   1.000  Cu
  Cu3      1.0000 0.72455  0.42634  0.52262  Biso   1.000  Cu
  Cu4      1.0000 0.27545  0.92634  0.47738  Biso   1.000  Cu
  Br1      1.0000 0.14573  0.44466  0.29787  Biso   1.000  Br
  Br2      1.0000 0.85427  0.94466  0.70213  Biso   1.000  Br
  Br3      1.0000 0.85427  0.55534  0.70213  Biso   1.000  Br
  Br4      1.0000 0.14573  0.05534  0.29787  Biso   1.000  Br
  H1       1.0000 0.10900  0.70700  0.63200  Biso   1.000  H
  H2       1.0000 0.89100  0.20700  0.36800  Biso   1.000  H
  H3       1.0000 0.89100  0.29300  0.36800  Biso   1.000  H
  H4       1.0000 0.10900  0.79300  0.63200  Biso   1.000  H
  H5       1.0000 0.54900  0.56900  0.18500  Biso   1.000  H
  H6       1.0000 0.45100  0.06900  0.81500  Biso   1.000  H
  H7       1.0000 0.45100  0.43100  0.81500  Biso   1.000  H
  H8       1.0000 0.54900  0.93100  0.18500  Biso   1.000  H
  H9       1.0000 0.56800  0.61400  0.02500  Biso   1.000  H
  H10      1.0000 0.43200  0.11400  0.97500  Biso   1.000  H
  H11      1.0000 0.43200  0.38600  0.97500  Biso   1.000  H
  H12      1.0000 0.56800  0.88600  0.02500  Biso   1.000  H
