data_image0
_cell_length_a       17.8255
_cell_length_b       3.6689
_cell_length_c       15.9805
_cell_angle_alpha    90
_cell_angle_beta     90
_cell_angle_gamma    90

_symmetry_space_group_name_H-M    "P 1"
_symmetry_int_tables_number       1

loop_
  _symmetry_equiv_pos_as_xyz
  'x, y, z'

loop_
  _atom_site_label
  _atom_site_occupancy
  _atom_site_fract_x
  _atom_site_fract_y
  _atom_site_fract_z
  _atom_site_thermal_displace_type
  _atom_site_B_iso_or_equiv
  _atom_site_type_symbol
  Cu1      1.0000 0.80219  0.15850  0.84979  Biso   1.000  Cu
  Cu2      1.0000 0.19781  0.84150  0.34979  Biso   1.000  Cu
  Cu3      1.0000 0.30219  0.34150  0.84979  Biso   1.000  Cu
  Cu4      1.0000 0.69781  0.65850  0.34979  Biso   1.000  Cu
  Cu5      1.0000 0.99175  0.81661  0.83767  Biso   1.000  Cu
  Cu6      1.0000 0.00825  0.18339  0.33767  Biso   1.000  Cu
  Cu7      1.0000 0.49175  0.68339  0.83767  Biso   1.000  Cu
  Cu8      1.0000 0.50825  0.31661  0.33767  Biso   1.000  Cu
  Cu9      1.0000 0.88565  0.58741  0.65315  Biso   1.000  Cu
  Cu10     1.0000 0.11435  0.41259  0.15315  Biso   1.000  Cu
  Cu11     1.0000 0.38565  0.91259  0.65315  Biso   1.000  Cu
  Cu12     1.0000 0.61435  0.08741  0.15315  Biso   1.000  Cu
  Cl1      1.0000 0.80771  0.10880  0.70626  Biso   1.000  Cl
  Cl2      1.0000 0.19229  0.89120  0.20626  Biso   1.000  Cl
  Cl3      1.0000 0.30771  0.39120  0.70626  Biso   1.000  Cl
  Cl4      1.0000 0.69229  0.60880  0.20626  Biso   1.000  Cl
  Cl5      1.0000 0.87900  0.67310  0.90140  Biso   1.000  Cl
  Cl6      1.0000 0.12100  0.32690  0.40140  Biso   1.000  Cl
  Cl7      1.0000 0.37900  0.82690  0.90140  Biso   1.000  Cl
  Cl8      1.0000 0.62100  0.17310  0.40140  Biso   1.000  Cl
  Cl9      1.0000 0.00100  0.51800  0.71385  Biso   1.000  Cl
  Cl10     1.0000 0.99900  0.48200  0.21385  Biso   1.000  Cl
  Cl11     1.0000 0.50100  0.98200  0.71385  Biso   1.000  Cl
  Cl12     1.0000 0.49900  0.01800  0.21385  Biso   1.000  Cl
  N1       1.0000 0.62501  0.20260  0.02920  Biso   1.000  N
  N2       1.0000 0.37499  0.79740  0.52920  Biso   1.000  N
  N3       1.0000 0.12501  0.29740  0.02920  Biso   1.000  N
  N4       1.0000 0.87499  0.70260  0.52920  Biso   1.000  N
  N5       1.0000 0.65130  0.48740  0.78720  Biso   1.000  N
  N6       1.0000 0.34870  0.51260  0.28720  Biso   1.000  N
  N7       1.0000 0.15130  0.01260  0.78720  Biso   1.000  N
  N8       1.0000 0.84870  0.98740  0.28720  Biso   1.000  N
  H1       1.0000 0.69360  0.45220  0.76250  Biso   1.000  H
  H2       1.0000 0.30640  0.54780  0.26250  Biso   1.000  H
  H3       1.0000 0.19360  0.04780  0.76250  Biso   1.000  H
  H4       1.0000 0.80640  0.95220  0.26250  Biso   1.000  H
  H5       1.0000 0.61470  0.58620  0.76040  Biso   1.000  H
  H6       1.0000 0.38530  0.41380  0.26040  Biso   1.000  H
  H7       1.0000 0.11470  0.91380  0.76040  Biso   1.000  H
  H8       1.0000 0.88530  0.08620  0.26040  Biso   1.000  H
  C1       1.0000 0.68970  0.14590  0.98710  Biso   1.000  C
  C2       1.0000 0.31030  0.85410  0.48710  Biso   1.000  C
  C3       1.0000 0.18970  0.35410  0.98710  Biso   1.000  C
  C4       1.0000 0.81030  0.64590  0.48710  Biso   1.000  C
  N9       1.0000 0.70112  0.23520  0.90640  Biso   1.000  N
  N10      1.0000 0.29888  0.76480  0.40640  Biso   1.000  N
  N11      1.0000 0.20112  0.26480  0.90640  Biso   1.000  N
  N12      1.0000 0.79888  0.73520  0.40640  Biso   1.000  N
  N13      1.0000 0.57444  0.45350  0.90255  Biso   1.000  N
  N14      1.0000 0.42556  0.54650  0.40255  Biso   1.000  N
  N15      1.0000 0.07444  0.04650  0.90255  Biso   1.000  N
  N16      1.0000 0.92556  0.95350  0.40255  Biso   1.000  N
  C5       1.0000 0.64260  0.38980  0.86600  Biso   1.000  C
  C6       1.0000 0.35740  0.61020  0.36600  Biso   1.000  C
  C7       1.0000 0.14260  0.11020  0.86600  Biso   1.000  C
  C8       1.0000 0.85740  0.88980  0.36600  Biso   1.000  C
  N17      1.0000 0.74621  0.99630  0.02870  Biso   1.000  N
  N18      1.0000 0.25379  0.00370  0.52870  Biso   1.000  N
  N19      1.0000 0.24621  0.50370  0.02870  Biso   1.000  N
  N20      1.0000 0.75379  0.49630  0.52870  Biso   1.000  N
  H9       1.0000 0.74090  0.93900  0.08060  Biso   1.000  H
  H10      1.0000 0.25910  0.06100  0.58060  Biso   1.000  H
  H11      1.0000 0.24090  0.56100  0.08060  Biso   1.000  H
  H12      1.0000 0.75910  0.43900  0.58060  Biso   1.000  H
  H13      1.0000 0.78820  0.95650  0.00390  Biso   1.000  H
  H14      1.0000 0.21180  0.04350  0.50390  Biso   1.000  H
  H15      1.0000 0.28820  0.54350  0.00390  Biso   1.000  H
  H16      1.0000 0.71180  0.45650  0.50390  Biso   1.000  H
  N21      1.0000 0.50480  0.42020  0.02260  Biso   1.000  N
  N22      1.0000 0.49520  0.57980  0.52260  Biso   1.000  N
  N23      1.0000 0.00480  0.07980  0.02260  Biso   1.000  N
  N24      1.0000 0.99520  0.92020  0.52260  Biso   1.000  N
  H17      1.0000 0.46830  0.51810  0.99560  Biso   1.000  H
  H18      1.0000 0.53170  0.48190  0.49560  Biso   1.000  H
  H19      1.0000 0.96830  0.98190  0.99560  Biso   1.000  H
  H20      1.0000 0.03170  0.01810  0.49560  Biso   1.000  H
  H21      1.0000 0.49940  0.36310  0.07450  Biso   1.000  H
  H22      1.0000 0.50060  0.63690  0.57450  Biso   1.000  H
  H23      1.0000 0.99940  0.13690  0.07450  Biso   1.000  H
  H24      1.0000 0.00060  0.86310  0.57450  Biso   1.000  H
  C9       1.0000 0.56930  0.35730  0.98450  Biso   1.000  C
  C10      1.0000 0.43070  0.64270  0.48450  Biso   1.000  C
  C11      1.0000 0.06930  0.14270  0.98450  Biso   1.000  C
  C12      1.0000 0.93070  0.85730  0.48450  Biso   1.000  C
