data_image0
_cell_length_a       4.1192
_cell_length_b       26.493
_cell_length_c       6.177
_cell_angle_alpha    90
_cell_angle_beta     97.16
_cell_angle_gamma    90

_symmetry_space_group_name_H-M    "P 1"
_symmetry_int_tables_number       1

loop_
  _symmetry_equiv_pos_as_xyz
  'x, y, z'

loop_
  _atom_site_label
  _atom_site_occupancy
  _atom_site_fract_x
  _atom_site_fract_y
  _atom_site_fract_z
  _atom_site_thermal_displace_type
  _atom_site_B_iso_or_equiv
  _atom_site_type_symbol
  Cu1      1.0000 0.50630  0.25000  0.77400  Biso   1.000  Cu
  Cu2      1.0000 0.49370  0.75000  0.22600  Biso   1.000  Cu
  I1       1.0000 0.04592  0.25000  0.05841  Biso   1.000  I
  I2       1.0000 0.95408  0.75000  0.94159  Biso   1.000  I
  N1       1.0000 0.47040  0.32010  0.64240  Biso   1.000  N
  N2       1.0000 0.47040  0.17990  0.64240  Biso   1.000  N
  N3       1.0000 0.52960  0.67990  0.35760  Biso   1.000  N
  N4       1.0000 0.52960  0.82010  0.35760  Biso   1.000  N
  C1       1.0000 0.34830  0.35710  0.75720  Biso   1.000  C
  C2       1.0000 0.34830  0.14290  0.75720  Biso   1.000  C
  C3       1.0000 0.65170  0.64290  0.24280  Biso   1.000  C
  C4       1.0000 0.65170  0.85710  0.24280  Biso   1.000  C
  H1       1.0000 0.26170  0.34910  0.88500  Biso   1.000  H
  H2       1.0000 0.26170  0.15090  0.88500  Biso   1.000  H
  H3       1.0000 0.73830  0.65090  0.11500  Biso   1.000  H
  H4       1.0000 0.73830  0.84910  0.11500  Biso   1.000  H
  C5       1.0000 0.34910  0.40650  0.68950  Biso   1.000  C
  C6       1.0000 0.34910  0.09350  0.68950  Biso   1.000  C
  C7       1.0000 0.65090  0.59350  0.31050  Biso   1.000  C
  C8       1.0000 0.65090  0.90650  0.31050  Biso   1.000  C
  N5       1.0000 0.47410  0.42130  0.51050  Biso   1.000  N
  N6       1.0000 0.47410  0.07870  0.51050  Biso   1.000  N
  N7       1.0000 0.52590  0.57870  0.48950  Biso   1.000  N
  N8       1.0000 0.52590  0.92130  0.48950  Biso   1.000  N
  C9       1.0000 0.59180  0.38430  0.39710  Biso   1.000  C
  C10      1.0000 0.59180  0.11570  0.39710  Biso   1.000  C
  C11      1.0000 0.40820  0.61570  0.60290  Biso   1.000  C
  C12      1.0000 0.40820  0.88430  0.60290  Biso   1.000  C
  H5       1.0000 0.67860  0.39230  0.26950  Biso   1.000  H
  H6       1.0000 0.67860  0.10770  0.26950  Biso   1.000  H
  H7       1.0000 0.32140  0.60770  0.73050  Biso   1.000  H
  H8       1.0000 0.32140  0.89230  0.73050  Biso   1.000  H
  C13      1.0000 0.59020  0.33380  0.46180  Biso   1.000  C
  C14      1.0000 0.59020  0.16620  0.46180  Biso   1.000  C
  C15      1.0000 0.40980  0.66620  0.53820  Biso   1.000  C
  C16      1.0000 0.40980  0.83380  0.53820  Biso   1.000  C
  H9       1.0000 0.67480  0.30930  0.37670  Biso   1.000  H
  H10      1.0000 0.67480  0.19070  0.37670  Biso   1.000  H
  H11      1.0000 0.32520  0.69070  0.62330  Biso   1.000  H
  H12      1.0000 0.32520  0.80930  0.62330  Biso   1.000  H
  C17      1.0000 0.20000  0.44610  0.82380  Biso   1.000  C
  C18      1.0000 0.20000  0.05390  0.82380  Biso   1.000  C
  C19      1.0000 0.80000  0.55390  0.17620  Biso   1.000  C
  C20      1.0000 0.80000  0.94610  0.17620  Biso   1.000  C
  O1       1.0000 0.06330  0.43230  0.98050  Biso   1.000  O
  O2       1.0000 0.06330  0.06770  0.98050  Biso   1.000  O
  O3       1.0000 0.93670  0.56770  0.01950  Biso   1.000  O
  O4       1.0000 0.93670  0.93230  0.01950  Biso   1.000  O
  N9       1.0000 0.21560  0.49320  0.76020  Biso   1.000  N
  N10      1.0000 0.21560  0.00680  0.76020  Biso   1.000  N
  N11      1.0000 0.78440  0.50680  0.23980  Biso   1.000  N
  N12      1.0000 0.78440  0.99320  0.23980  Biso   1.000  N
  H13      1.0000 0.34800  0.50160  0.67000  Biso   1.000  H
  H14      1.0000 0.34800  0.99840  0.67000  Biso   1.000  H
  H15      1.0000 0.65200  0.49840  0.33000  Biso   1.000  H
  H16      1.0000 0.65200  0.00160  0.33000  Biso   1.000  H
  H17      1.0000 0.17700  0.51850  0.83900  Biso   1.000  H
  H18      1.0000 0.17700  0.98150  0.83900  Biso   1.000  H
  H19      1.0000 0.82300  0.48150  0.16100  Biso   1.000  H
  H20      1.0000 0.82300  0.01850  0.16100  Biso   1.000  H
