data_image0
_cell_length_a       11.05
_cell_length_b       14.715
_cell_length_c       21.21
_cell_angle_alpha    90.418
_cell_angle_beta     92.84
_cell_angle_gamma    111.346

_symmetry_space_group_name_H-M    "P 1"
_symmetry_int_tables_number       1

loop_
  _symmetry_equiv_pos_as_xyz
  'x, y, z'

loop_
  _atom_site_label
  _atom_site_occupancy
  _atom_site_fract_x
  _atom_site_fract_y
  _atom_site_fract_z
  _atom_site_thermal_displace_type
  _atom_site_B_iso_or_equiv
  _atom_site_type_symbol
  Cu1      1.0000 0.19767  0.18699  0.64265  Biso   1.000  Cu
  Cu2      1.0000 0.80233  0.81301  0.35735  Biso   1.000  Cu
  Cu3      1.0000 0.43225  0.35999  0.12116  Biso   1.000  Cu
  Cu4      1.0000 0.56775  0.64001  0.87884  Biso   1.000  Cu
  Mo1      1.0000 0.96471  0.53714  0.62785  Biso   1.000  Mo
  Mo2      1.0000 0.03529  0.46286  0.37215  Biso   1.000  Mo
  Mo3      1.0000 0.21328  0.46548  0.62939  Biso   1.000  Mo
  Mo4      1.0000 0.78672  0.53452  0.37061  Biso   1.000  Mo
  Mo5      1.0000 0.97245  0.37423  0.50922  Biso   1.000  Mo
  Mo6      1.0000 0.02755  0.62577  0.49078  Biso   1.000  Mo
  Mo7      1.0000 0.27611  0.55929  0.48918  Biso   1.000  Mo
  Mo8      1.0000 0.72389  0.44071  0.51082  Biso   1.000  Mo
  C1       1.0000 0.07240  0.04920  0.74200  Biso   1.000  C
  C2       1.0000 0.92760  0.95080  0.25800  Biso   1.000  C
  C3       1.0000 0.02830  0.04870  0.79960  Biso   1.000  C
  C4       1.0000 0.97170  0.95130  0.20040  Biso   1.000  C
  H1       1.0000 0.97800  0.99480  0.82160  Biso   1.000  H
  H2       1.0000 0.02200  0.00520  0.17840  Biso   1.000  H
  C5       1.0000 0.13920  0.19830  0.77310  Biso   1.000  C
  C6       1.0000 0.86080  0.80170  0.22690  Biso   1.000  C
  H3       1.0000 0.17830  0.26600  0.77540  Biso   1.000  H
  H4       1.0000 0.82170  0.73400  0.22460  Biso   1.000  H
  C7       1.0000 0.05050  0.17930  0.88020  Biso   1.000  C
  C8       1.0000 0.94950  0.82070  0.11980  Biso   1.000  C
  H5       1.0000 0.95770  0.15570  0.88600  Biso   1.000  H
  H6       1.0000 0.04230  0.84430  0.11400  Biso   1.000  H
  H7       1.0000 0.08230  0.25000  0.88070  Biso   1.000  H
  H8       1.0000 0.91770  0.75000  0.11930  Biso   1.000  H
  C9       1.0000 0.11800  0.14600  0.93460  Biso   1.000  C
  C10      1.0000 0.88200  0.85400  0.06540  Biso   1.000  C
  H9       1.0000 0.05580  0.11800  0.96650  Biso   1.000  H
  H10      1.0000 0.94420  0.88200  0.03350  Biso   1.000  H
  H11      1.0000 0.14610  0.09510  0.91920  Biso   1.000  H
  H12      1.0000 0.85390  0.90490  0.08080  Biso   1.000  H
  C11      1.0000 0.24840  0.24380  0.02600  Biso   1.000  C
  C12      1.0000 0.75160  0.75620  0.97400  Biso   1.000  C
  H13      1.0000 0.18930  0.21260  0.05580  Biso   1.000  H
  H14      1.0000 0.81070  0.78740  0.94420  Biso   1.000  H
  C13      1.0000 0.33550  0.28440  0.93440  Biso   1.000  C
  C14      1.0000 0.66450  0.71560  0.06560  Biso   1.000  C
  H15      1.0000 0.34910  0.28670  0.89140  Biso   1.000  H
  H16      1.0000 0.65090  0.71330  0.10860  Biso   1.000  H
  C15      1.0000 0.41570  0.33990  0.98220  Biso   1.000  C
  C16      1.0000 0.58430  0.66010  0.01780  Biso   1.000  C
  C17      1.0000 0.31160  0.26720  0.52210  Biso   1.000  C
  C18      1.0000 0.68840  0.73280  0.47790  Biso   1.000  C
  H17      1.0000 0.39350  0.30580  0.53920  Biso   1.000  H
  H18      1.0000 0.60650  0.69420  0.46080  Biso   1.000  H
  C19      1.0000 0.11590  0.16730  0.51240  Biso   1.000  C
  C20      1.0000 0.88410  0.83270  0.48760  Biso   1.000  C
  C21      1.0000 0.15050  0.19790  0.45230  Biso   1.000  C
  C22      1.0000 0.84950  0.80210  0.54770  Biso   1.000  C
  H19      1.0000 0.09970  0.17900  0.41480  Biso   1.000  H
  H20      1.0000 0.90030  0.82100  0.58520  Biso   1.000  H
  C23      1.0000 0.36090  0.31280  0.41150  Biso   1.000  C
  C24      1.0000 0.63910  0.68720  0.58850  Biso   1.000  C
  H21      1.0000 0.41780  0.27840  0.40130  Biso   1.000  H
  H22      1.0000 0.58220  0.72160  0.59870  Biso   1.000  H
  H23      1.0000 0.41450  0.37820  0.42660  Biso   1.000  H
  H24      1.0000 0.58550  0.62180  0.57340  Biso   1.000  H
  C25      1.0000 0.27830  0.31770  0.35320  Biso   1.000  C
  C26      1.0000 0.72170  0.68230  0.64680  Biso   1.000  C
  H25      1.0000 0.22230  0.25220  0.33950  Biso   1.000  H
  H26      1.0000 0.77770  0.74780  0.66050  Biso   1.000  H
  H27      1.0000 0.22330  0.35350  0.36360  Biso   1.000  H
  H28      1.0000 0.77670  0.64650  0.63640  Biso   1.000  H
  C27      1.0000 0.42480  0.46310  0.29580  Biso   1.000  C
  C28      1.0000 0.57520  0.53690  0.70420  Biso   1.000  C
  H29      1.0000 0.43110  0.51260  0.32480  Biso   1.000  H
  H30      1.0000 0.56890  0.48740  0.67520  Biso   1.000  H
  C29      1.0000 0.37360  0.32100  0.24830  Biso   1.000  C
  C30      1.0000 0.62640  0.67900  0.75170  Biso   1.000  C
  H31      1.0000 0.33660  0.25390  0.24060  Biso   1.000  H
  H32      1.0000 0.66340  0.74610  0.75940  Biso   1.000  H
  C31      1.0000 0.47740  0.47250  0.23990  Biso   1.000  C
  C32      1.0000 0.52260  0.52750  0.76010  Biso   1.000  C
  N1       1.0000 0.21760  0.21170  0.55480  Biso   1.000  N
  N2       1.0000 0.78240  0.78830  0.44520  Biso   1.000  N
  N3       1.0000 0.27500  0.26160  0.46020  Biso   1.000  N
  N4       1.0000 0.72500  0.73840  0.53980  Biso   1.000  N
  N5       1.0000 0.99270  0.10190  0.52920  Biso   1.000  N
  N6       1.0000 0.00730  0.89810  0.47080  Biso   1.000  N
  N7       1.0000 0.36040  0.36610  0.30130  Biso   1.000  N
  N8       1.0000 0.63960  0.63390  0.69870  Biso   1.000  N
  N9       1.0000 0.44520  0.38350  0.20870  Biso   1.000  N
  N10      1.0000 0.55480  0.61650  0.79130  Biso   1.000  N
  N11      1.0000 0.55910  0.56040  0.21110  Biso   1.000  N
  N12      1.0000 0.44090  0.43960  0.78890  Biso   1.000  N
  N13      1.0000 0.14250  0.14340  0.72360  Biso   1.000  N
  N14      1.0000 0.85750  0.85660  0.27640  Biso   1.000  N
  N15      1.0000 0.07260  0.14390  0.81920  Biso   1.000  N
  N16      1.0000 0.92740  0.85610  0.18080  Biso   1.000  N
  N17      1.0000 0.05570  0.96650  0.70130  Biso   1.000  N
  N18      1.0000 0.94430  0.03350  0.29870  Biso   1.000  N
  N19      1.0000 0.23090  0.22480  0.96410  Biso   1.000  N
  N20      1.0000 0.76910  0.77520  0.03590  Biso   1.000  N
  N21      1.0000 0.36440  0.31480  0.03860  Biso   1.000  N
  N22      1.0000 0.63560  0.68520  0.96140  Biso   1.000  N
  N23      1.0000 0.53950  0.41500  0.97590  Biso   1.000  N
  N24      1.0000 0.46050  0.58500  0.02410  Biso   1.000  N
  O1       1.0000 0.57320  0.43940  0.92230  Biso   1.000  O
  O2       1.0000 0.42680  0.56060  0.07770  Biso   1.000  O
  O3       1.0000 0.60500  0.45070  0.02420  Biso   1.000  O
  O4       1.0000 0.39500  0.54930  0.97580  Biso   1.000  O
  O5       1.0000 0.98390  0.88600  0.72100  Biso   1.000  O
  O6       1.0000 0.01610  0.11400  0.27900  Biso   1.000  O
  O7       1.0000 0.11210  0.97810  0.65330  Biso   1.000  O
  O8       1.0000 0.88790  0.02190  0.34670  Biso   1.000  O
  O9       1.0000 0.97500  0.08890  0.58620  Biso   1.000  O
  O10      1.0000 0.02500  0.91110  0.41380  Biso   1.000  O
  O11      1.0000 0.90990  0.06310  0.48740  Biso   1.000  O
  O12      1.0000 0.09010  0.93690  0.51260  Biso   1.000  O
  O13      1.0000 0.63080  0.55380  0.17110  Biso   1.000  O
  O14      1.0000 0.36920  0.44620  0.82890  Biso   1.000  O
  O15      1.0000 0.55080  0.63740  0.23020  Biso   1.000  O
  O16      1.0000 0.44920  0.36260  0.76980  Biso   1.000  O
  O17      1.0000 0.06240  0.65010  0.65550  Biso   1.000  O
  O18      1.0000 0.93760  0.34990  0.34450  Biso   1.000  O
  O19      1.0000 0.83260  0.50420  0.67300  Biso   1.000  O
  O20      1.0000 0.16740  0.49580  0.32700  Biso   1.000  O
  O21      1.0000 0.09450  0.53350  0.54880  Biso   1.000  O
  O22      1.0000 0.90550  0.46650  0.45120  Biso   1.000  O
  O23      1.0000 0.14890  0.59850  0.43660  Biso   1.000  O
  O24      1.0000 0.85110  0.40150  0.56340  Biso   1.000  O
  O25      1.0000 0.36110  0.67170  0.52260  Biso   1.000  O
  O26      1.0000 0.63890  0.32830  0.47740  Biso   1.000  O
  O27      1.0000 0.37300  0.54570  0.43340  Biso   1.000  O
  O28      1.0000 0.62700  0.45430  0.56660  Biso   1.000  O
  O29      1.0000 0.10780  0.41820  0.44940  Biso   1.000  O
  O30      1.0000 0.89220  0.58180  0.55060  Biso   1.000  O
  O31      1.0000 0.29820  0.47420  0.55220  Biso   1.000  O
  O32      1.0000 0.70180  0.52580  0.44780  Biso   1.000  O
  O33      1.0000 0.30890  0.57650  0.66180  Biso   1.000  O
  O34      1.0000 0.69110  0.42350  0.33820  Biso   1.000  O
  O35      1.0000 0.25500  0.38250  0.67130  Biso   1.000  O
  O36      1.0000 0.74500  0.61750  0.32870  Biso   1.000  O
  O37      1.0000 0.06310  0.34450  0.56980  Biso   1.000  O
  O38      1.0000 0.93690  0.65550  0.43020  Biso   1.000  O
  O39      1.0000 0.87440  0.26420  0.47820  Biso   1.000  O
  O40      1.0000 0.12560  0.73580  0.52180  Biso   1.000  O
  O41      1.0000 0.05240  0.45890  0.66350  Biso   1.000  O
  O42      1.0000 0.94760  0.54110  0.33650  Biso   1.000  O
  Cu5      1.0000 0.67706  0.09421  0.49974  Biso   1.000  Cu
  Cu6      1.0000 0.32294  0.90579  0.50026  Biso   1.000  Cu
  Cu7      1.0000 0.83075  0.40742  0.00410  Biso   1.000  Cu
  Cu8      1.0000 0.16925  0.59258  0.99590  Biso   1.000  Cu
  C33      1.0000 0.66780  0.17220  0.37620  Biso   1.000  C
  C34      1.0000 0.33220  0.82780  0.62380  Biso   1.000  C
  H33      1.0000 0.69360  0.23540  0.39300  Biso   1.000  H
  H34      1.0000 0.30640  0.76460  0.60700  Biso   1.000  H
  C35      1.0000 0.61100  0.05000  0.30710  Biso   1.000  C
  C36      1.0000 0.38900  0.95000  0.69290  Biso   1.000  C
  H35      1.0000 0.58960  0.01230  0.26990  Biso   1.000  H
  H36      1.0000 0.41040  0.98770  0.73010  Biso   1.000  H
  C37      1.0000 0.61370  0.01920  0.36670  Biso   1.000  C
  C38      1.0000 0.38630  0.98080  0.63330  Biso   1.000  C
  C39      1.0000 0.66070  0.21720  0.26240  Biso   1.000  C
  C40      1.0000 0.33930  0.78280  0.73760  Biso   1.000  C
  H37      1.0000 0.58450  0.19370  0.23330  Biso   1.000  H
  H38      1.0000 0.41550  0.80630  0.76670  Biso   1.000  H
  H39      1.0000 0.66710  0.28000  0.27980  Biso   1.000  H
  H40      1.0000 0.33290  0.72000  0.72020  Biso   1.000  H
  C41      1.0000 0.78100  0.22920  0.22700  Biso   1.000  C
  C42      1.0000 0.21900  0.77080  0.77300  Biso   1.000  C
  H41      1.0000 0.76850  0.16930  0.20360  Biso   1.000  H
  H42      1.0000 0.23150  0.83070  0.79640  Biso   1.000  H
  H43      1.0000 0.85500  0.24200  0.25690  Biso   1.000  H
  H44      1.0000 0.14500  0.75800  0.74310  Biso   1.000  H
  C43      1.0000 0.80570  0.30270  0.11980  Biso   1.000  C
  C44      1.0000 0.19430  0.69730  0.88020  Biso   1.000  C
  H45      1.0000 0.78830  0.24430  0.09750  Biso   1.000  H
  H46      1.0000 0.21170  0.75570  0.90250  Biso   1.000  H
  C45      1.0000 0.83680  0.40560  0.20010  Biso   1.000  C
  C46      1.0000 0.16320  0.59440  0.79990  Biso   1.000  C
  H47      1.0000 0.84500  0.43290  0.24050  Biso   1.000  H
  H48      1.0000 0.15500  0.56710  0.75950  Biso   1.000  H
  C47      1.0000 0.85160  0.45190  0.14380  Biso   1.000  C
  C48      1.0000 0.14840  0.54810  0.85620  Biso   1.000  C
  C49      1.0000 0.71970  0.05080  0.63340  Biso   1.000  C
  C50      1.0000 0.28030  0.94920  0.36660  Biso   1.000  C
  C51      1.0000 0.74700  0.19810  0.62010  Biso   1.000  C
  C52      1.0000 0.25300  0.80190  0.37990  Biso   1.000  C
  H49      1.0000 0.75080  0.25630  0.60190  Biso   1.000  H
  H50      1.0000 0.24920  0.74370  0.39810  Biso   1.000  H
  C53      1.0000 0.76270  0.09540  0.69150  Biso   1.000  C
  C54      1.0000 0.23730  0.90460  0.30850  Biso   1.000  C
  H51      1.0000 0.77640  0.06720  0.72900  Biso   1.000  H
  H52      1.0000 0.22360  0.93280  0.27100  Biso   1.000  H
  C55      1.0000 0.82680  0.27010  0.73010  Biso   1.000  C
  C56      1.0000 0.17320  0.72990  0.26990  Biso   1.000  C
  H53      1.0000 0.88440  0.25650  0.76150  Biso   1.000  H
  H54      1.0000 0.11560  0.74350  0.23850  Biso   1.000  H
  H55      1.0000 0.87530  0.33100  0.71050  Biso   1.000  H
  H56      1.0000 0.12470  0.66900  0.28950  Biso   1.000  H
  C57      1.0000 0.71210  0.27940  0.76150  Biso   1.000  C
  C58      1.0000 0.28790  0.72060  0.23850  Biso   1.000  C
  H57      1.0000 0.65680  0.21620  0.77580  Biso   1.000  H
  H58      1.0000 0.34320  0.78380  0.22420  Biso   1.000  H
  H59      1.0000 0.66130  0.30230  0.73140  Biso   1.000  H
  H60      1.0000 0.33870  0.69770  0.26860  Biso   1.000  H
  C59      1.0000 0.77620  0.32570  0.87670  Biso   1.000  C
  C60      1.0000 0.22380  0.67430  0.12330  Biso   1.000  C
  H61      1.0000 0.76080  0.26280  0.89040  Biso   1.000  H
  H62      1.0000 0.23920  0.73720  0.10960  Biso   1.000  H
  C61      1.0000 0.79120  0.44730  0.81300  Biso   1.000  C
  C62      1.0000 0.20880  0.55270  0.18700  Biso   1.000  C
  H63      1.0000 0.78960  0.48410  0.77770  Biso   1.000  H
  H64      1.0000 0.21040  0.51590  0.22230  Biso   1.000  H
  C63      1.0000 0.82650  0.48010  0.87450  Biso   1.000  C
  C64      1.0000 0.17350  0.51990  0.12550  Biso   1.000  C
  N25      1.0000 0.70870  0.11350  0.58920  Biso   1.000  N
  N26      1.0000 0.29130  0.88650  0.41080  Biso   1.000  N
  N27      1.0000 0.78050  0.19000  0.68170  Biso   1.000  N
  N28      1.0000 0.21950  0.81000  0.31830  Biso   1.000  N
  N29      1.0000 0.68960  0.94990  0.61970  Biso   1.000  N
  N30      1.0000 0.31040  0.05010  0.38030  Biso   1.000  N
  N31      1.0000 0.75900  0.34860  0.81530  Biso   1.000  N
  N32      1.0000 0.24100  0.65140  0.18470  Biso   1.000  N
  N33      1.0000 0.81750  0.40490  0.91440  Biso   1.000  N
  N34      1.0000 0.18250  0.59510  0.08560  Biso   1.000  N
  N35      1.0000 0.86280  0.57740  0.89710  Biso   1.000  N
  N36      1.0000 0.13720  0.42260  0.10290  Biso   1.000  N
  N37      1.0000 0.64730  0.09420  0.41020  Biso   1.000  N
  N38      1.0000 0.35270  0.90580  0.58980  Biso   1.000  N
  N39      1.0000 0.64630  0.14850  0.31320  Biso   1.000  N
  N40      1.0000 0.35370  0.85150  0.68680  Biso   1.000  N
  N41      1.0000 0.58220  0.92020  0.38580  Biso   1.000  N
  N42      1.0000 0.41780  0.07980  0.61420  Biso   1.000  N
  N43      1.0000 0.80720  0.31040  0.18320  Biso   1.000  N
  N44      1.0000 0.19280  0.68960  0.81680  Biso   1.000  N
  N45      1.0000 0.83190  0.38800  0.09340  Biso   1.000  N
  N46      1.0000 0.16810  0.61200  0.90660  Biso   1.000  N
  N47      1.0000 0.88490  0.55370  0.13500  Biso   1.000  N
  N48      1.0000 0.11510  0.44630  0.86500  Biso   1.000  N
  O43      1.0000 0.58560  0.90360  0.44140  Biso   1.000  O
  O44      1.0000 0.41440  0.09640  0.55860  Biso   1.000  O
  O45      1.0000 0.55250  0.85690  0.34300  Biso   1.000  O
  O46      1.0000 0.44750  0.14310  0.65700  Biso   1.000  O
  O47      1.0000 0.87960  0.58370  0.08210  Biso   1.000  O
  O48      1.0000 0.12040  0.41630  0.91790  Biso   1.000  O
  O49      1.0000 0.91820  0.60740  0.18280  Biso   1.000  O
  O50      1.0000 0.08180  0.39260  0.81720  Biso   1.000  O
  O51      1.0000 0.65130  0.91920  0.56690  Biso   1.000  O
  O52      1.0000 0.34870  0.08080  0.43310  Biso   1.000  O
  O53      1.0000 0.70580  0.90000  0.66240  Biso   1.000  O
  O54      1.0000 0.29420  0.10000  0.33760  Biso   1.000  O
  O55      1.0000 0.86190  0.63950  0.85760  Biso   1.000  O
  O56      1.0000 0.13810  0.36050  0.14240  Biso   1.000  O
  O57      1.0000 0.89060  0.59590  0.95250  Biso   1.000  O
  O58      1.0000 0.10940  0.40410  0.04750  Biso   1.000  O
  Mo9      1.0000 0.32863  0.01720  0.13821  Biso   1.000  Mo
  Mo10     1.0000 0.67137  0.98280  0.86179  Biso   1.000  Mo
  Mo11     1.0000 0.22172  0.92774  0.99637  Biso   1.000  Mo
  Mo12     1.0000 0.77828  0.07226  0.00363  Biso   1.000  Mo
  Mo13     1.0000 0.47783  0.87662  0.98275  Biso   1.000  Mo
  Mo14     1.0000 0.52217  0.12338  0.01725  Biso   1.000  Mo
  Mo15     1.0000 0.58392  0.95860  0.12261  Biso   1.000  Mo
  Mo16     1.0000 0.41608  0.04140  0.87739  Biso   1.000  Mo
  O59      1.0000 0.29150  0.09100  0.18860  Biso   1.000  O
  O60      1.0000 0.70850  0.90900  0.81140  Biso   1.000  O
  O61      1.0000 0.44860  0.14560  0.08370  Biso   1.000  O
  O62      1.0000 0.55140  0.85440  0.91630  Biso   1.000  O
  O63      1.0000 0.25100  0.90210  0.16440  Biso   1.000  O
  O64      1.0000 0.74900  0.09790  0.83560  Biso   1.000  O
  O65      1.0000 0.50220  0.03120  0.16710  Biso   1.000  O
  O66      1.0000 0.49780  0.96880  0.83290  Biso   1.000  O
  O67      1.0000 0.21170  0.00690  0.06570  Biso   1.000  O
  O68      1.0000 0.78830  0.99310  0.93430  Biso   1.000  O
  O69      1.0000 0.10080  0.93360  0.94560  Biso   1.000  O
  O70      1.0000 0.89920  0.06640  0.05440  Biso   1.000  O
  O71      1.0000 0.33570  0.89940  0.93550  Biso   1.000  O
  O72      1.0000 0.66430  0.10060  0.06450  Biso   1.000  O
  O73      1.0000 0.15920  0.81400  0.02620  Biso   1.000  O
  O74      1.0000 0.84080  0.18600  0.97380  Biso   1.000  O
  O75      1.0000 0.42240  0.96170  0.04990  Biso   1.000  O
  O76      1.0000 0.57760  0.03830  0.95010  Biso   1.000  O
  O77      1.0000 0.50120  0.84290  0.14470  Biso   1.000  O
  O78      1.0000 0.49880  0.15710  0.85530  Biso   1.000  O
  O79      1.0000 0.39590  0.76390  0.01020  Biso   1.000  O
  O80      1.0000 0.60410  0.23610  0.98980  Biso   1.000  O
  O81      1.0000 0.72890  0.99500  0.16550  Biso   1.000  O
  O82      1.0000 0.27110  0.00500  0.83450  Biso   1.000  O
  O83      1.0000 0.63320  0.92340  0.03890  Biso   1.000  O
  O84      1.0000 0.36680  0.07660  0.96110  Biso   1.000  O
