data_image0
_cell_length_a       14.5916
_cell_length_b       20.0913
_cell_length_c       21.4736
_cell_angle_alpha    90
_cell_angle_beta     90
_cell_angle_gamma    90

_symmetry_space_group_name_H-M    "P 1"
_symmetry_int_tables_number       1

loop_
  _symmetry_equiv_pos_as_xyz
  'x, y, z'

loop_
  _atom_site_label
  _atom_site_occupancy
  _atom_site_fract_x
  _atom_site_fract_y
  _atom_site_fract_z
  _atom_site_thermal_displace_type
  _atom_site_B_iso_or_equiv
  _atom_site_type_symbol
  Cu1      1.0000 0.16662  0.26117  0.62317  Biso   1.000  Cu
  Cu2      1.0000 0.33338  0.73883  0.12317  Biso   1.000  Cu
  Cu3      1.0000 0.66662  0.23883  0.37683  Biso   1.000  Cu
  Cu4      1.0000 0.83338  0.76117  0.87683  Biso   1.000  Cu
  Cu5      1.0000 0.83338  0.73883  0.37683  Biso   1.000  Cu
  Cu6      1.0000 0.66662  0.26117  0.87683  Biso   1.000  Cu
  Cu7      1.0000 0.33338  0.76117  0.62317  Biso   1.000  Cu
  Cu8      1.0000 0.16662  0.23883  0.12317  Biso   1.000  Cu
  Mo1      1.0000 0.08931  0.12750  0.50727  Biso   1.000  Mo
  Mo2      1.0000 0.41069  0.87250  0.00727  Biso   1.000  Mo
  Mo3      1.0000 0.58931  0.37250  0.49273  Biso   1.000  Mo
  Mo4      1.0000 0.91069  0.62750  0.99273  Biso   1.000  Mo
  Mo5      1.0000 0.91069  0.87250  0.49273  Biso   1.000  Mo
  Mo6      1.0000 0.58931  0.12750  0.99273  Biso   1.000  Mo
  Mo7      1.0000 0.41069  0.62750  0.50727  Biso   1.000  Mo
  Mo8      1.0000 0.08931  0.37250  0.00727  Biso   1.000  Mo
  Mo9      1.0000 0.88770  0.03326  0.49429  Biso   1.000  Mo
  Mo10     1.0000 0.61230  0.96674  0.99429  Biso   1.000  Mo
  Mo11     1.0000 0.38770  0.46674  0.50571  Biso   1.000  Mo
  Mo12     1.0000 0.11230  0.53326  0.00571  Biso   1.000  Mo
  Mo13     1.0000 0.11230  0.96674  0.50571  Biso   1.000  Mo
  Mo14     1.0000 0.38770  0.03326  0.00571  Biso   1.000  Mo
  Mo15     1.0000 0.61230  0.53326  0.49429  Biso   1.000  Mo
  Mo16     1.0000 0.88770  0.46674  0.99429  Biso   1.000  Mo
  Mo17     1.0000 0.98977  0.11657  0.37093  Biso   1.000  Mo
  Mo18     1.0000 0.51023  0.88343  0.87093  Biso   1.000  Mo
  Mo19     1.0000 0.48977  0.38343  0.62907  Biso   1.000  Mo
  Mo20     1.0000 0.01023  0.61657  0.12907  Biso   1.000  Mo
  Mo21     1.0000 0.01023  0.88343  0.62907  Biso   1.000  Mo
  Mo22     1.0000 0.48977  0.11657  0.12907  Biso   1.000  Mo
  Mo23     1.0000 0.51023  0.61657  0.37093  Biso   1.000  Mo
  Mo24     1.0000 0.98977  0.38343  0.87093  Biso   1.000  Mo
  Mo25     1.0000 0.01129  0.95486  0.37260  Biso   1.000  Mo
  Mo26     1.0000 0.48871  0.04514  0.87260  Biso   1.000  Mo
  Mo27     1.0000 0.51129  0.54514  0.62740  Biso   1.000  Mo
  Mo28     1.0000 0.98871  0.45486  0.12740  Biso   1.000  Mo
  Mo29     1.0000 0.98871  0.04514  0.62740  Biso   1.000  Mo
  Mo30     1.0000 0.51129  0.95486  0.12740  Biso   1.000  Mo
  Mo31     1.0000 0.48871  0.45486  0.37260  Biso   1.000  Mo
  Mo32     1.0000 0.01129  0.54514  0.87260  Biso   1.000  Mo
  C1       1.0000 0.32238  0.25570  0.53799  Biso   1.000  C
  C2       1.0000 0.17762  0.74430  0.03799  Biso   1.000  C
  C3       1.0000 0.82238  0.24430  0.46201  Biso   1.000  C
  C4       1.0000 0.67762  0.75570  0.96201  Biso   1.000  C
  C5       1.0000 0.67762  0.74430  0.46201  Biso   1.000  C
  C6       1.0000 0.82238  0.25570  0.96201  Biso   1.000  C
  C7       1.0000 0.17762  0.75570  0.53799  Biso   1.000  C
  C8       1.0000 0.32238  0.24430  0.03799  Biso   1.000  C
  C9       1.0000 0.34618  0.26903  0.47827  Biso   1.000  C
  C10      1.0000 0.15382  0.73097  0.97827  Biso   1.000  C
  C11      1.0000 0.84618  0.23097  0.52173  Biso   1.000  C
  C12      1.0000 0.65382  0.76903  0.02173  Biso   1.000  C
  C13      1.0000 0.65382  0.73097  0.52173  Biso   1.000  C
  C14      1.0000 0.84618  0.26903  0.02173  Biso   1.000  C
  C15      1.0000 0.15382  0.76903  0.47827  Biso   1.000  C
  C16      1.0000 0.34618  0.23097  0.97827  Biso   1.000  C
  H1       1.0000 0.39850  0.25530  0.45710  Biso   1.000  H
  H2       1.0000 0.10150  0.74470  0.95710  Biso   1.000  H
  H3       1.0000 0.89850  0.24470  0.54290  Biso   1.000  H
  H4       1.0000 0.60150  0.75530  0.04290  Biso   1.000  H
  H5       1.0000 0.60150  0.74470  0.54290  Biso   1.000  H
  H6       1.0000 0.89850  0.25530  0.04290  Biso   1.000  H
  H7       1.0000 0.10150  0.75530  0.45710  Biso   1.000  H
  H8       1.0000 0.39850  0.24470  0.95710  Biso   1.000  H
  C17      1.0000 0.21471  0.31524  0.50285  Biso   1.000  C
  C18      1.0000 0.28529  0.68476  0.00285  Biso   1.000  C
  C19      1.0000 0.71471  0.18476  0.49715  Biso   1.000  C
  C20      1.0000 0.78529  0.81524  0.99715  Biso   1.000  C
  C21      1.0000 0.78529  0.68476  0.49715  Biso   1.000  C
  C22      1.0000 0.71471  0.31524  0.99715  Biso   1.000  C
  C23      1.0000 0.28529  0.81524  0.50285  Biso   1.000  C
  C24      1.0000 0.21471  0.18476  0.00285  Biso   1.000  C
  H9       1.0000 0.16090  0.33970  0.49920  Biso   1.000  H
  H10      1.0000 0.33910  0.66030  0.99920  Biso   1.000  H
  H11      1.0000 0.66090  0.16030  0.50080  Biso   1.000  H
  H12      1.0000 0.83910  0.83970  0.00080  Biso   1.000  H
  H13      1.0000 0.83910  0.66030  0.50080  Biso   1.000  H
  H14      1.0000 0.66090  0.33970  0.00080  Biso   1.000  H
  H15      1.0000 0.33910  0.83970  0.49920  Biso   1.000  H
  H16      1.0000 0.16090  0.16030  0.99920  Biso   1.000  H
  C25      1.0000 0.25475  0.31977  0.39069  Biso   1.000  C
  C26      1.0000 0.24525  0.68023  0.89069  Biso   1.000  C
  C27      1.0000 0.75475  0.18023  0.60931  Biso   1.000  C
  C28      1.0000 0.74525  0.81977  0.10931  Biso   1.000  C
  C29      1.0000 0.74525  0.68023  0.60931  Biso   1.000  C
  C30      1.0000 0.75475  0.31977  0.10931  Biso   1.000  C
  C31      1.0000 0.24525  0.81977  0.39069  Biso   1.000  C
  C32      1.0000 0.25475  0.18023  0.89069  Biso   1.000  C
  H17      1.0000 0.31010  0.32950  0.36740  Biso   1.000  H
  H18      1.0000 0.18990  0.67050  0.86740  Biso   1.000  H
  H19      1.0000 0.81010  0.17050  0.63260  Biso   1.000  H
  H20      1.0000 0.68990  0.82950  0.13260  Biso   1.000  H
  H21      1.0000 0.68990  0.67050  0.63260  Biso   1.000  H
  H22      1.0000 0.81010  0.32950  0.13260  Biso   1.000  H
  H23      1.0000 0.18990  0.82950  0.36740  Biso   1.000  H
  H24      1.0000 0.31010  0.17050  0.86740  Biso   1.000  H
  H25      1.0000 0.21290  0.35700  0.38670  Biso   1.000  H
  H26      1.0000 0.28710  0.64300  0.88670  Biso   1.000  H
  H27      1.0000 0.71290  0.14300  0.61330  Biso   1.000  H
  H28      1.0000 0.78710  0.85700  0.11330  Biso   1.000  H
  H29      1.0000 0.78710  0.64300  0.61330  Biso   1.000  H
  H30      1.0000 0.71290  0.35700  0.11330  Biso   1.000  H
  H31      1.0000 0.28710  0.85700  0.38670  Biso   1.000  H
  H32      1.0000 0.21290  0.14300  0.88670  Biso   1.000  H
  C33      1.0000 0.21080  0.25654  0.36746  Biso   1.000  C
  C34      1.0000 0.28920  0.74346  0.86746  Biso   1.000  C
  C35      1.0000 0.71080  0.24346  0.63254  Biso   1.000  C
  C36      1.0000 0.78920  0.75654  0.13254  Biso   1.000  C
  C37      1.0000 0.78920  0.74346  0.63254  Biso   1.000  C
  C38      1.0000 0.71080  0.25654  0.13254  Biso   1.000  C
  C39      1.0000 0.28920  0.75654  0.36746  Biso   1.000  C
  C40      1.0000 0.21080  0.24346  0.86746  Biso   1.000  C
  H33      1.0000 0.25770  0.22260  0.36360  Biso   1.000  H
  H34      1.0000 0.24230  0.77740  0.86360  Biso   1.000  H
  H35      1.0000 0.75770  0.27740  0.63640  Biso   1.000  H
  H36      1.0000 0.74230  0.72260  0.13640  Biso   1.000  H
  H37      1.0000 0.74230  0.77740  0.63640  Biso   1.000  H
  H38      1.0000 0.75770  0.22260  0.13640  Biso   1.000  H
  H39      1.0000 0.24230  0.72260  0.36360  Biso   1.000  H
  H40      1.0000 0.25770  0.27740  0.86360  Biso   1.000  H
  H41      1.0000 0.16690  0.24130  0.39820  Biso   1.000  H
  H42      1.0000 0.33310  0.75870  0.89820  Biso   1.000  H
  H43      1.0000 0.66690  0.25870  0.60180  Biso   1.000  H
  H44      1.0000 0.83310  0.74130  0.10180  Biso   1.000  H
  H45      1.0000 0.83310  0.75870  0.60180  Biso   1.000  H
  H46      1.0000 0.66690  0.24130  0.10180  Biso   1.000  H
  H47      1.0000 0.33310  0.74130  0.39820  Biso   1.000  H
  H48      1.0000 0.16690  0.25870  0.89820  Biso   1.000  H
  C41      1.0000 0.07310  0.27528  0.29958  Biso   1.000  C
  C42      1.0000 0.42690  0.72472  0.79958  Biso   1.000  C
  C43      1.0000 0.57310  0.22472  0.70042  Biso   1.000  C
  C44      1.0000 0.92690  0.77528  0.20042  Biso   1.000  C
  C45      1.0000 0.92690  0.72472  0.70042  Biso   1.000  C
  C46      1.0000 0.57310  0.27528  0.20042  Biso   1.000  C
  C47      1.0000 0.42690  0.77528  0.29958  Biso   1.000  C
  C48      1.0000 0.07310  0.22472  0.79958  Biso   1.000  C
  H49      1.0000 0.03040  0.28700  0.32980  Biso   1.000  H
  H50      1.0000 0.46960  0.71300  0.82980  Biso   1.000  H
  H51      1.0000 0.53040  0.21300  0.67020  Biso   1.000  H
  H52      1.0000 0.96960  0.78700  0.17020  Biso   1.000  H
  H53      1.0000 0.96960  0.71300  0.67020  Biso   1.000  H
  H54      1.0000 0.53040  0.28700  0.17020  Biso   1.000  H
  H55      1.0000 0.46960  0.78700  0.32980  Biso   1.000  H
  H56      1.0000 0.03040  0.21300  0.82980  Biso   1.000  H
  C49      1.0000 0.19960  0.24835  0.25222  Biso   1.000  C
  C50      1.0000 0.30040  0.75165  0.75222  Biso   1.000  C
  C51      1.0000 0.69960  0.25165  0.74778  Biso   1.000  C
  C52      1.0000 0.80040  0.74835  0.24778  Biso   1.000  C
  C53      1.0000 0.80040  0.75165  0.74778  Biso   1.000  C
  C54      1.0000 0.69960  0.24835  0.24778  Biso   1.000  C
  C55      1.0000 0.30040  0.74835  0.25222  Biso   1.000  C
  C56      1.0000 0.19960  0.25165  0.75222  Biso   1.000  C
  H57      1.0000 0.26100  0.23830  0.24540  Biso   1.000  H
  H58      1.0000 0.23900  0.76170  0.74540  Biso   1.000  H
  H59      1.0000 0.76100  0.26170  0.75460  Biso   1.000  H
  H60      1.0000 0.73900  0.73830  0.25460  Biso   1.000  H
  H61      1.0000 0.73900  0.76170  0.75460  Biso   1.000  H
  H62      1.0000 0.76100  0.23830  0.25460  Biso   1.000  H
  H63      1.0000 0.23900  0.73830  0.24540  Biso   1.000  H
  H64      1.0000 0.26100  0.26170  0.74540  Biso   1.000  H
  C57      1.0000 0.05806  0.26640  0.23818  Biso   1.000  C
  C58      1.0000 0.44194  0.73360  0.73818  Biso   1.000  C
  C59      1.0000 0.55806  0.23360  0.76182  Biso   1.000  C
  C60      1.0000 0.94194  0.76640  0.26182  Biso   1.000  C
  C61      1.0000 0.94194  0.73360  0.76182  Biso   1.000  C
  C62      1.0000 0.55806  0.26640  0.26182  Biso   1.000  C
  C63      1.0000 0.44194  0.76640  0.23818  Biso   1.000  C
  C64      1.0000 0.05806  0.23360  0.73818  Biso   1.000  C
  N1       1.0000 0.24041  0.28424  0.55362  Biso   1.000  N
  N2       1.0000 0.25959  0.71576  0.05362  Biso   1.000  N
  N3       1.0000 0.74041  0.21576  0.44638  Biso   1.000  N
  N4       1.0000 0.75959  0.78424  0.94638  Biso   1.000  N
  N5       1.0000 0.75959  0.71576  0.44638  Biso   1.000  N
  N6       1.0000 0.74041  0.28424  0.94638  Biso   1.000  N
  N7       1.0000 0.25959  0.78424  0.55362  Biso   1.000  N
  N8       1.0000 0.24041  0.21576  0.05362  Biso   1.000  N
  N9       1.0000 0.27628  0.30712  0.45633  Biso   1.000  N
  N10      1.0000 0.22372  0.69288  0.95633  Biso   1.000  N
  N11      1.0000 0.77628  0.19288  0.54367  Biso   1.000  N
  N12      1.0000 0.72372  0.80712  0.04367  Biso   1.000  N
  N13      1.0000 0.72372  0.69288  0.54367  Biso   1.000  N
  N14      1.0000 0.77628  0.30712  0.04367  Biso   1.000  N
  N15      1.0000 0.22372  0.80712  0.45633  Biso   1.000  N
  N16      1.0000 0.27628  0.19288  0.95633  Biso   1.000  N
  N17      1.0000 0.16411  0.26343  0.30771  Biso   1.000  N
  N18      1.0000 0.33589  0.73657  0.80771  Biso   1.000  N
  N19      1.0000 0.66411  0.23657  0.69229  Biso   1.000  N
  N20      1.0000 0.83589  0.76343  0.19229  Biso   1.000  N
  N21      1.0000 0.83589  0.73657  0.69229  Biso   1.000  N
  N22      1.0000 0.66411  0.26343  0.19229  Biso   1.000  N
  N23      1.0000 0.33589  0.76343  0.30771  Biso   1.000  N
  N24      1.0000 0.16411  0.23657  0.80771  Biso   1.000  N
  N25      1.0000 0.13672  0.24954  0.20839  Biso   1.000  N
  N26      1.0000 0.36328  0.75046  0.70839  Biso   1.000  N
  N27      1.0000 0.63672  0.25046  0.79161  Biso   1.000  N
  N28      1.0000 0.86328  0.74954  0.29161  Biso   1.000  N
  N29      1.0000 0.86328  0.75046  0.79161  Biso   1.000  N
  N30      1.0000 0.63672  0.24954  0.29161  Biso   1.000  N
  N31      1.0000 0.36328  0.74954  0.20839  Biso   1.000  N
  N32      1.0000 0.13672  0.25046  0.70839  Biso   1.000  N
  N33      1.0000 0.97166  0.26980  0.20728  Biso   1.000  N
  N34      1.0000 0.52834  0.73020  0.70728  Biso   1.000  N
  N35      1.0000 0.47166  0.23020  0.79272  Biso   1.000  N
  N36      1.0000 0.02834  0.76980  0.29272  Biso   1.000  N
  N37      1.0000 0.02834  0.73020  0.79272  Biso   1.000  N
  N38      1.0000 0.47166  0.26980  0.29272  Biso   1.000  N
  N39      1.0000 0.52834  0.76980  0.20728  Biso   1.000  N
  N40      1.0000 0.97166  0.23020  0.70728  Biso   1.000  N
  N41      1.0000 0.37028  0.21422  0.58110  Biso   1.000  N
  N42      1.0000 0.12972  0.78578  0.08110  Biso   1.000  N
  N43      1.0000 0.87028  0.28578  0.41890  Biso   1.000  N
  N44      1.0000 0.62972  0.71422  0.91890  Biso   1.000  N
  N45      1.0000 0.62972  0.78578  0.41890  Biso   1.000  N
  N46      1.0000 0.87028  0.21422  0.91890  Biso   1.000  N
  N47      1.0000 0.12972  0.71422  0.58110  Biso   1.000  N
  N48      1.0000 0.37028  0.28578  0.08110  Biso   1.000  N
  O1       1.0000 0.08826  0.18790  0.56310  Biso   1.000  O
  O2       1.0000 0.41174  0.81210  0.06310  Biso   1.000  O
  O3       1.0000 0.58826  0.31210  0.43690  Biso   1.000  O
  O4       1.0000 0.91174  0.68790  0.93690  Biso   1.000  O
  O5       1.0000 0.91174  0.81210  0.43690  Biso   1.000  O
  O6       1.0000 0.58826  0.18790  0.93690  Biso   1.000  O
  O7       1.0000 0.41174  0.68790  0.56310  Biso   1.000  O
  O8       1.0000 0.08826  0.31210  0.06310  Biso   1.000  O
  O9       1.0000 0.19683  0.13088  0.47695  Biso   1.000  O
  O10      1.0000 0.30317  0.86912  0.97695  Biso   1.000  O
  O11      1.0000 0.69683  0.36912  0.52305  Biso   1.000  O
  O12      1.0000 0.80317  0.63088  0.02305  Biso   1.000  O
  O13      1.0000 0.80317  0.86912  0.52305  Biso   1.000  O
  O14      1.0000 0.69683  0.13088  0.02305  Biso   1.000  O
  O15      1.0000 0.30317  0.63088  0.47695  Biso   1.000  O
  O16      1.0000 0.19683  0.36912  0.97695  Biso   1.000  O
  O17      1.0000 0.10886  0.04622  0.55921  Biso   1.000  O
  O18      1.0000 0.39114  0.95378  0.05921  Biso   1.000  O
  O19      1.0000 0.60886  0.45378  0.44079  Biso   1.000  O
  O20      1.0000 0.89114  0.54622  0.94079  Biso   1.000  O
  O21      1.0000 0.89114  0.95378  0.44079  Biso   1.000  O
  O22      1.0000 0.60886  0.04622  0.94079  Biso   1.000  O
  O23      1.0000 0.39114  0.54622  0.55921  Biso   1.000  O
  O24      1.0000 0.10886  0.45378  0.05921  Biso   1.000  O
  O25      1.0000 0.94852  0.09369  0.55051  Biso   1.000  O
  O26      1.0000 0.55148  0.90631  0.05051  Biso   1.000  O
  O27      1.0000 0.44852  0.40631  0.44949  Biso   1.000  O
  O28      1.0000 0.05148  0.59369  0.94949  Biso   1.000  O
  O29      1.0000 0.05148  0.90631  0.44949  Biso   1.000  O
  O30      1.0000 0.44852  0.09369  0.94949  Biso   1.000  O
  O31      1.0000 0.55148  0.59369  0.55051  Biso   1.000  O
  O32      1.0000 0.94852  0.40631  0.05051  Biso   1.000  O
  O33      1.0000 0.03819  0.03623  0.45039  Biso   1.000  O
  O34      1.0000 0.46181  0.96377  0.95039  Biso   1.000  O
  O35      1.0000 0.53819  0.46377  0.54961  Biso   1.000  O
  O36      1.0000 0.96181  0.53623  0.04961  Biso   1.000  O
  O37      1.0000 0.96181  0.96377  0.54961  Biso   1.000  O
  O38      1.0000 0.53819  0.03623  0.04961  Biso   1.000  O
  O39      1.0000 0.46181  0.53623  0.45039  Biso   1.000  O
  O40      1.0000 0.03819  0.46377  0.95039  Biso   1.000  O
  O41      1.0000 0.09441  0.12058  0.33618  Biso   1.000  O
  O42      1.0000 0.40559  0.87942  0.83618  Biso   1.000  O
  O43      1.0000 0.59441  0.37942  0.66382  Biso   1.000  O
  O44      1.0000 0.90559  0.62058  0.16382  Biso   1.000  O
  O45      1.0000 0.90559  0.87942  0.66382  Biso   1.000  O
  O46      1.0000 0.59441  0.12058  0.16382  Biso   1.000  O
  O47      1.0000 0.40559  0.62058  0.33618  Biso   1.000  O
  O48      1.0000 0.09441  0.37942  0.83618  Biso   1.000  O
  O49      1.0000 0.92225  0.16835  0.32851  Biso   1.000  O
  O50      1.0000 0.57775  0.83165  0.82851  Biso   1.000  O
  O51      1.0000 0.42225  0.33165  0.67149  Biso   1.000  O
  O52      1.0000 0.07775  0.66835  0.17149  Biso   1.000  O
  O53      1.0000 0.07775  0.83165  0.67149  Biso   1.000  O
  O54      1.0000 0.42225  0.16835  0.17149  Biso   1.000  O
  O55      1.0000 0.57775  0.66835  0.32851  Biso   1.000  O
  O56      1.0000 0.92225  0.33165  0.82851  Biso   1.000  O
  O57      1.0000 0.11834  0.96163  0.34151  Biso   1.000  O
  O58      1.0000 0.38166  0.03837  0.84151  Biso   1.000  O
  O59      1.0000 0.61834  0.53837  0.65849  Biso   1.000  O
  O60      1.0000 0.88166  0.46163  0.15849  Biso   1.000  O
  O61      1.0000 0.88166  0.03837  0.65849  Biso   1.000  O
  O62      1.0000 0.61834  0.96163  0.15849  Biso   1.000  O
  O63      1.0000 0.38166  0.46163  0.34151  Biso   1.000  O
  O64      1.0000 0.11834  0.53837  0.84151  Biso   1.000  O
  O65      1.0000 0.95856  0.89507  0.33007  Biso   1.000  O
  O66      1.0000 0.54144  0.10493  0.83007  Biso   1.000  O
  O67      1.0000 0.45856  0.60493  0.66993  Biso   1.000  O
  O68      1.0000 0.04144  0.39507  0.16993  Biso   1.000  O
  O69      1.0000 0.04144  0.10493  0.66993  Biso   1.000  O
  O70      1.0000 0.45856  0.89507  0.16993  Biso   1.000  O
  O71      1.0000 0.54144  0.39507  0.33007  Biso   1.000  O
  O72      1.0000 0.95856  0.60493  0.83007  Biso   1.000  O
  O73      1.0000 0.95241  0.03087  0.33906  Biso   1.000  O
  O74      1.0000 0.54759  0.96913  0.83906  Biso   1.000  O
  O75      1.0000 0.45241  0.46913  0.66094  Biso   1.000  O
  O76      1.0000 0.04759  0.53087  0.16094  Biso   1.000  O
  O77      1.0000 0.04759  0.96913  0.66094  Biso   1.000  O
  O78      1.0000 0.45241  0.03087  0.16094  Biso   1.000  O
  O79      1.0000 0.54759  0.53087  0.33906  Biso   1.000  O
  O80      1.0000 0.95241  0.46913  0.83906  Biso   1.000  O
  O81      1.0000 0.01825  0.16736  0.44414  Biso   1.000  O
  O82      1.0000 0.48175  0.83264  0.94414  Biso   1.000  O
  O83      1.0000 0.51825  0.33264  0.55586  Biso   1.000  O
  O84      1.0000 0.98175  0.66736  0.05586  Biso   1.000  O
  O85      1.0000 0.98175  0.83264  0.55586  Biso   1.000  O
  O86      1.0000 0.51825  0.16736  0.05586  Biso   1.000  O
  O87      1.0000 0.48175  0.66736  0.44414  Biso   1.000  O
  O88      1.0000 0.01825  0.33264  0.94414  Biso   1.000  O
  O89      1.0000 0.87031  0.08941  0.43352  Biso   1.000  O
  O90      1.0000 0.62969  0.91059  0.93352  Biso   1.000  O
  O91      1.0000 0.37031  0.41059  0.56648  Biso   1.000  O
  O92      1.0000 0.12969  0.58941  0.06648  Biso   1.000  O
  O93      1.0000 0.12969  0.91059  0.56648  Biso   1.000  O
  O94      1.0000 0.37031  0.08941  0.06648  Biso   1.000  O
  O95      1.0000 0.62969  0.58941  0.43352  Biso   1.000  O
  O96      1.0000 0.87031  0.41059  0.93352  Biso   1.000  O
  O97      1.0000 0.78232  0.02446  0.52640  Biso   1.000  O
  O98      1.0000 0.71768  0.97554  0.02640  Biso   1.000  O
  O99      1.0000 0.28232  0.47554  0.47360  Biso   1.000  O
  O100     1.0000 0.21768  0.52446  0.97360  Biso   1.000  O
  O101     1.0000 0.21768  0.97554  0.47360  Biso   1.000  O
  O102     1.0000 0.28232  0.02446  0.97360  Biso   1.000  O
  O103     1.0000 0.71768  0.52446  0.52640  Biso   1.000  O
  O104     1.0000 0.78232  0.47554  0.02640  Biso   1.000  O
  O105     1.0000 0.44690  0.19518  0.56585  Biso   1.000  O
  O106     1.0000 0.05310  0.80482  0.06585  Biso   1.000  O
  O107     1.0000 0.94690  0.30482  0.43415  Biso   1.000  O
  O108     1.0000 0.55310  0.69518  0.93415  Biso   1.000  O
  O109     1.0000 0.55310  0.80482  0.43415  Biso   1.000  O
  O110     1.0000 0.94690  0.19518  0.93415  Biso   1.000  O
  O111     1.0000 0.05310  0.69518  0.56585  Biso   1.000  O
  O112     1.0000 0.44690  0.30482  0.06585  Biso   1.000  O
  O113     1.0000 0.33206  0.19860  0.62981  Biso   1.000  O
  O114     1.0000 0.16794  0.80140  0.12981  Biso   1.000  O
  O115     1.0000 0.83206  0.30140  0.37019  Biso   1.000  O
  O116     1.0000 0.66794  0.69860  0.87019  Biso   1.000  O
  O117     1.0000 0.66794  0.80140  0.37019  Biso   1.000  O
  O118     1.0000 0.83206  0.19860  0.87019  Biso   1.000  O
  O119     1.0000 0.16794  0.69860  0.62981  Biso   1.000  O
  O120     1.0000 0.33206  0.30140  0.12981  Biso   1.000  O
  O121     1.0000 0.90895  0.29783  0.23459  Biso   1.000  O
  O122     1.0000 0.59105  0.70217  0.73459  Biso   1.000  O
  O123     1.0000 0.40895  0.20217  0.76541  Biso   1.000  O
  O124     1.0000 0.09105  0.79783  0.26541  Biso   1.000  O
  O125     1.0000 0.09105  0.70217  0.76541  Biso   1.000  O
  O126     1.0000 0.40895  0.29783  0.26541  Biso   1.000  O
  O127     1.0000 0.59105  0.79783  0.23459  Biso   1.000  O
  O128     1.0000 0.90895  0.20217  0.73459  Biso   1.000  O
  O129     1.0000 0.96506  0.24359  0.15591  Biso   1.000  O
  O130     1.0000 0.53494  0.75641  0.65591  Biso   1.000  O
  O131     1.0000 0.46506  0.25641  0.84409  Biso   1.000  O
  O132     1.0000 0.03494  0.74359  0.34409  Biso   1.000  O
  O133     1.0000 0.03494  0.75641  0.84409  Biso   1.000  O
  O134     1.0000 0.46506  0.24359  0.34409  Biso   1.000  O
  O135     1.0000 0.53494  0.74359  0.15591  Biso   1.000  O
  O136     1.0000 0.96506  0.25641  0.65591  Biso   1.000  O
  Cu9      1.0000 0.63726  0.94137  0.50705  Biso   1.000  Cu
  Cu10     1.0000 0.86274  0.05863  0.00705  Biso   1.000  Cu
  Cu11     1.0000 0.13726  0.55863  0.49295  Biso   1.000  Cu
  Cu12     1.0000 0.36274  0.44137  0.99295  Biso   1.000  Cu
  Cu13     1.0000 0.36274  0.05863  0.49295  Biso   1.000  Cu
  Cu14     1.0000 0.13726  0.94137  0.99295  Biso   1.000  Cu
  Cu15     1.0000 0.86274  0.44137  0.50705  Biso   1.000  Cu
  Cu16     1.0000 0.63726  0.55863  0.00705  Biso   1.000  Cu
  C65      1.0000 0.70850  0.96336  0.38155  Biso   1.000  C
  C66      1.0000 0.79150  0.03664  0.88155  Biso   1.000  C
  C67      1.0000 0.20850  0.53664  0.61845  Biso   1.000  C
  C68      1.0000 0.29150  0.46336  0.11845  Biso   1.000  C
  C69      1.0000 0.29150  0.03664  0.61845  Biso   1.000  C
  C70      1.0000 0.20850  0.96336  0.11845  Biso   1.000  C
  C71      1.0000 0.79150  0.46336  0.38155  Biso   1.000  C
  C72      1.0000 0.70850  0.53664  0.88155  Biso   1.000  C
  H65      1.0000 0.76710  0.97050  0.39720  Biso   1.000  H
  H66      1.0000 0.73290  0.02950  0.89720  Biso   1.000  H
  H67      1.0000 0.26710  0.52950  0.60280  Biso   1.000  H
  H68      1.0000 0.23290  0.47050  0.10280  Biso   1.000  H
  H69      1.0000 0.23290  0.02950  0.60280  Biso   1.000  H
  H70      1.0000 0.26710  0.97050  0.10280  Biso   1.000  H
  H71      1.0000 0.73290  0.47050  0.39720  Biso   1.000  H
  H72      1.0000 0.76710  0.52950  0.89720  Biso   1.000  H
  C73      1.0000 0.56645  0.94475  0.37451  Biso   1.000  C
  C74      1.0000 0.93355  0.05525  0.87451  Biso   1.000  C
  C75      1.0000 0.06645  0.55525  0.62549  Biso   1.000  C
  C76      1.0000 0.43355  0.44475  0.12549  Biso   1.000  C
  C77      1.0000 0.43355  0.05525  0.62549  Biso   1.000  C
  C78      1.0000 0.06645  0.94475  0.12549  Biso   1.000  C
  C79      1.0000 0.93355  0.44475  0.37451  Biso   1.000  C
  C80      1.0000 0.56645  0.55525  0.87451  Biso   1.000  C
  C81      1.0000 0.75472  0.97371  0.26928  Biso   1.000  C
  C82      1.0000 0.74528  0.02629  0.76928  Biso   1.000  C
  C83      1.0000 0.25472  0.52629  0.73072  Biso   1.000  C
  C84      1.0000 0.24528  0.47371  0.23072  Biso   1.000  C
  C85      1.0000 0.24528  0.02629  0.73072  Biso   1.000  C
  C86      1.0000 0.25472  0.97371  0.23072  Biso   1.000  C
  C87      1.0000 0.74528  0.47371  0.26928  Biso   1.000  C
  C88      1.0000 0.75472  0.52629  0.76928  Biso   1.000  C
  H73      1.0000 0.81600  0.96280  0.28350  Biso   1.000  H
  H74      1.0000 0.68400  0.03720  0.78350  Biso   1.000  H
  H75      1.0000 0.31600  0.53720  0.71650  Biso   1.000  H
  H76      1.0000 0.18400  0.46280  0.21650  Biso   1.000  H
  H77      1.0000 0.18400  0.03720  0.71650  Biso   1.000  H
  H78      1.0000 0.31600  0.96280  0.21650  Biso   1.000  H
  H79      1.0000 0.68400  0.46280  0.28350  Biso   1.000  H
  H80      1.0000 0.81600  0.53720  0.78350  Biso   1.000  H
  H81      1.0000 0.74010  0.94490  0.23440  Biso   1.000  H
  H82      1.0000 0.75990  0.05510  0.73440  Biso   1.000  H
  H83      1.0000 0.24010  0.55510  0.76560  Biso   1.000  H
  H84      1.0000 0.25990  0.44490  0.26560  Biso   1.000  H
  H85      1.0000 0.25990  0.05510  0.76560  Biso   1.000  H
  H86      1.0000 0.24010  0.94490  0.26560  Biso   1.000  H
  H87      1.0000 0.75990  0.44490  0.23440  Biso   1.000  H
  H88      1.0000 0.74010  0.55510  0.73440  Biso   1.000  H
  C89      1.0000 0.75172  0.04618  0.24827  Biso   1.000  C
  C90      1.0000 0.74828  0.95382  0.74827  Biso   1.000  C
  C91      1.0000 0.25172  0.45382  0.75173  Biso   1.000  C
  C92      1.0000 0.24828  0.54618  0.25173  Biso   1.000  C
  C93      1.0000 0.24828  0.95382  0.75173  Biso   1.000  C
  C94      1.0000 0.25172  0.04618  0.25173  Biso   1.000  C
  C95      1.0000 0.74828  0.54618  0.24827  Biso   1.000  C
  C96      1.0000 0.75172  0.45382  0.74827  Biso   1.000  C
  H89      1.0000 0.76960  0.07460  0.28270  Biso   1.000  H
  H90      1.0000 0.73040  0.92540  0.78270  Biso   1.000  H
  H91      1.0000 0.26960  0.42540  0.71730  Biso   1.000  H
  H92      1.0000 0.23040  0.57460  0.21730  Biso   1.000  H
  H93      1.0000 0.23040  0.92540  0.71730  Biso   1.000  H
  H94      1.0000 0.26960  0.07460  0.21730  Biso   1.000  H
  H95      1.0000 0.73040  0.57460  0.28270  Biso   1.000  H
  H96      1.0000 0.76960  0.42540  0.78270  Biso   1.000  H
  H97      1.0000 0.68940  0.05770  0.23670  Biso   1.000  H
  H98      1.0000 0.81060  0.94230  0.73670  Biso   1.000  H
  H99      1.0000 0.18940  0.44230  0.76330  Biso   1.000  H
  H100     1.0000 0.31060  0.55770  0.26330  Biso   1.000  H
  H101     1.0000 0.31060  0.94230  0.76330  Biso   1.000  H
  H102     1.0000 0.18940  0.05770  0.26330  Biso   1.000  H
  H103     1.0000 0.81060  0.55770  0.23670  Biso   1.000  H
  H104     1.0000 0.68940  0.44230  0.73670  Biso   1.000  H
  C97      1.0000 0.59705  0.94970  0.31513  Biso   1.000  C
  C98      1.0000 0.90295  0.05030  0.81513  Biso   1.000  C
  C99      1.0000 0.09705  0.55030  0.68487  Biso   1.000  C
  C100     1.0000 0.40295  0.44970  0.18487  Biso   1.000  C
  C101     1.0000 0.40295  0.05030  0.68487  Biso   1.000  C
  C102     1.0000 0.09705  0.94970  0.18487  Biso   1.000  C
  C103     1.0000 0.90295  0.44970  0.31513  Biso   1.000  C
  C104     1.0000 0.59705  0.55030  0.81513  Biso   1.000  C
  H105     1.0000 0.56310  0.94530  0.27870  Biso   1.000  H
  H106     1.0000 0.93690  0.05470  0.77870  Biso   1.000  H
  H107     1.0000 0.06310  0.55470  0.72130  Biso   1.000  H
  H108     1.0000 0.43690  0.44530  0.22130  Biso   1.000  H
  H109     1.0000 0.43690  0.05470  0.72130  Biso   1.000  H
  H110     1.0000 0.06310  0.94530  0.22130  Biso   1.000  H
  H111     1.0000 0.93690  0.44530  0.27870  Biso   1.000  H
  H112     1.0000 0.56310  0.55470  0.77870  Biso   1.000  H
  C105     1.0000 0.79011  0.05406  0.13364  Biso   1.000  C
  C106     1.0000 0.70989  0.94594  0.63364  Biso   1.000  C
  C107     1.0000 0.29011  0.44594  0.86636  Biso   1.000  C
  C108     1.0000 0.20989  0.55406  0.36636  Biso   1.000  C
  C109     1.0000 0.20989  0.94594  0.86636  Biso   1.000  C
  C110     1.0000 0.29011  0.05406  0.36636  Biso   1.000  C
  C111     1.0000 0.70989  0.55406  0.13364  Biso   1.000  C
  C112     1.0000 0.79011  0.44594  0.63364  Biso   1.000  C
  H113     1.0000 0.73250  0.04160  0.11920  Biso   1.000  H
  H114     1.0000 0.76750  0.95840  0.61920  Biso   1.000  H
  H115     1.0000 0.23250  0.45840  0.88080  Biso   1.000  H
  H116     1.0000 0.26750  0.54160  0.38080  Biso   1.000  H
  H117     1.0000 0.26750  0.95840  0.88080  Biso   1.000  H
  H118     1.0000 0.23250  0.04160  0.38080  Biso   1.000  H
  H119     1.0000 0.76750  0.54160  0.11920  Biso   1.000  H
  H120     1.0000 0.73250  0.45840  0.61920  Biso   1.000  H
  C113     1.0000 0.90247  0.07772  0.19759  Biso   1.000  C
  C114     1.0000 0.59753  0.92228  0.69759  Biso   1.000  C
  C115     1.0000 0.40247  0.42228  0.80241  Biso   1.000  C
  C116     1.0000 0.09753  0.57772  0.30241  Biso   1.000  C
  C117     1.0000 0.09753  0.92228  0.80241  Biso   1.000  C
  C118     1.0000 0.40247  0.07772  0.30241  Biso   1.000  C
  C119     1.0000 0.59753  0.57772  0.19759  Biso   1.000  C
  C120     1.0000 0.90247  0.42228  0.69759  Biso   1.000  C
  H121     1.0000 0.93760  0.08470  0.23310  Biso   1.000  H
  H122     1.0000 0.56240  0.91530  0.73310  Biso   1.000  H
  H123     1.0000 0.43760  0.41530  0.76690  Biso   1.000  H
  H124     1.0000 0.06240  0.58470  0.26690  Biso   1.000  H
  H125     1.0000 0.06240  0.91530  0.76690  Biso   1.000  H
  H126     1.0000 0.43760  0.08470  0.26690  Biso   1.000  H
  H127     1.0000 0.56240  0.58470  0.23310  Biso   1.000  H
  H128     1.0000 0.93760  0.41530  0.73310  Biso   1.000  H
  C121     1.0000 0.92927  0.08446  0.13777  Biso   1.000  C
  C122     1.0000 0.57073  0.91554  0.63777  Biso   1.000  C
  C123     1.0000 0.42927  0.41554  0.86223  Biso   1.000  C
  C124     1.0000 0.07073  0.58446  0.36223  Biso   1.000  C
  C125     1.0000 0.07073  0.91554  0.86223  Biso   1.000  C
  C126     1.0000 0.42927  0.08446  0.36223  Biso   1.000  C
  C127     1.0000 0.57073  0.58446  0.13777  Biso   1.000  C
  C128     1.0000 0.92927  0.41554  0.63777  Biso   1.000  C
  N49      1.0000 0.63544  0.95291  0.41695  Biso   1.000  N
  N50      1.0000 0.86456  0.04709  0.91695  Biso   1.000  N
  N51      1.0000 0.13544  0.54709  0.58305  Biso   1.000  N
  N52      1.0000 0.36456  0.45291  0.08305  Biso   1.000  N
  N53      1.0000 0.36456  0.04709  0.58305  Biso   1.000  N
  N54      1.0000 0.13544  0.95291  0.08305  Biso   1.000  N
  N55      1.0000 0.86456  0.45291  0.41695  Biso   1.000  N
  N56      1.0000 0.63544  0.54709  0.91695  Biso   1.000  N
  N57      1.0000 0.47384  0.93254  0.39299  Biso   1.000  N
  N58      1.0000 0.02616  0.06746  0.89299  Biso   1.000  N
  N59      1.0000 0.97384  0.56746  0.60701  Biso   1.000  N
  N60      1.0000 0.52616  0.43254  0.10701  Biso   1.000  N
  N61      1.0000 0.52616  0.06746  0.60701  Biso   1.000  N
  N62      1.0000 0.97384  0.93254  0.10701  Biso   1.000  N
  N63      1.0000 0.02616  0.43254  0.39299  Biso   1.000  N
  N64      1.0000 0.47384  0.56746  0.89299  Biso   1.000  N
  N65      1.0000 0.68821  0.96243  0.32031  Biso   1.000  N
  N66      1.0000 0.81179  0.03757  0.82031  Biso   1.000  N
  N67      1.0000 0.18821  0.53757  0.67969  Biso   1.000  N
  N68      1.0000 0.31179  0.46243  0.17969  Biso   1.000  N
  N69      1.0000 0.31179  0.03757  0.67969  Biso   1.000  N
  N70      1.0000 0.18821  0.96243  0.17969  Biso   1.000  N
  N71      1.0000 0.81179  0.46243  0.32031  Biso   1.000  N
  N72      1.0000 0.68821  0.53757  0.82031  Biso   1.000  N
  N73      1.0000 0.81320  0.05847  0.19483  Biso   1.000  N
  N74      1.0000 0.68680  0.94153  0.69483  Biso   1.000  N
  N75      1.0000 0.31320  0.44153  0.80517  Biso   1.000  N
  N76      1.0000 0.18680  0.55847  0.30517  Biso   1.000  N
  N77      1.0000 0.18680  0.94153  0.80517  Biso   1.000  N
  N78      1.0000 0.31320  0.05847  0.30517  Biso   1.000  N
  N79      1.0000 0.68680  0.55847  0.19483  Biso   1.000  N
  N80      1.0000 0.81320  0.44153  0.69483  Biso   1.000  N
  N81      1.0000 0.85986  0.06979  0.09716  Biso   1.000  N
  N82      1.0000 0.64014  0.93021  0.59716  Biso   1.000  N
  N83      1.0000 0.35986  0.43021  0.90284  Biso   1.000  N
  N84      1.0000 0.14014  0.56979  0.40284  Biso   1.000  N
  N85      1.0000 0.14014  0.93021  0.90284  Biso   1.000  N
  N86      1.0000 0.35986  0.06979  0.40284  Biso   1.000  N
  N87      1.0000 0.64014  0.56979  0.09716  Biso   1.000  N
  N88      1.0000 0.85986  0.43021  0.59716  Biso   1.000  N
  N89      1.0000 0.01711  0.10700  0.11688  Biso   1.000  N
  N90      1.0000 0.48289  0.89300  0.61688  Biso   1.000  N
  N91      1.0000 0.51711  0.39300  0.88312  Biso   1.000  N
  N92      1.0000 0.98289  0.60700  0.38312  Biso   1.000  N
  N93      1.0000 0.98289  0.89300  0.88312  Biso   1.000  N
  N94      1.0000 0.51711  0.10700  0.38312  Biso   1.000  N
  N95      1.0000 0.48289  0.60700  0.11688  Biso   1.000  N
  N96      1.0000 0.01711  0.39300  0.61688  Biso   1.000  N
  O137     1.0000 0.41854  0.92106  0.35125  Biso   1.000  O
  O138     1.0000 0.08146  0.07894  0.85125  Biso   1.000  O
  O139     1.0000 0.91854  0.57894  0.64875  Biso   1.000  O
  O140     1.0000 0.58146  0.42106  0.14875  Biso   1.000  O
  O141     1.0000 0.58146  0.07894  0.64875  Biso   1.000  O
  O142     1.0000 0.91854  0.92106  0.14875  Biso   1.000  O
  O143     1.0000 0.08146  0.42106  0.35125  Biso   1.000  O
  O144     1.0000 0.41854  0.57894  0.85125  Biso   1.000  O
  O145     1.0000 0.45437  0.93465  0.44838  Biso   1.000  O
  O146     1.0000 0.04563  0.06535  0.94838  Biso   1.000  O
  O147     1.0000 0.95437  0.56535  0.55162  Biso   1.000  O
  O148     1.0000 0.54563  0.43465  0.05162  Biso   1.000  O
  O149     1.0000 0.54563  0.06535  0.55162  Biso   1.000  O
  O150     1.0000 0.95437  0.93465  0.05162  Biso   1.000  O
  O151     1.0000 0.04563  0.43465  0.44838  Biso   1.000  O
  O152     1.0000 0.45437  0.56535  0.94838  Biso   1.000  O
  O153     1.0000 0.07946  0.10753  0.15475  Biso   1.000  O
  O154     1.0000 0.42054  0.89247  0.65475  Biso   1.000  O
  O155     1.0000 0.57946  0.39247  0.84525  Biso   1.000  O
  O156     1.0000 0.92054  0.60753  0.34525  Biso   1.000  O
  O157     1.0000 0.92054  0.89247  0.84525  Biso   1.000  O
  O158     1.0000 0.57946  0.10753  0.34525  Biso   1.000  O
  O159     1.0000 0.42054  0.60753  0.15475  Biso   1.000  O
  O160     1.0000 0.07946  0.39247  0.65475  Biso   1.000  O
  O161     1.0000 0.02445  0.12478  0.06317  Biso   1.000  O
  O162     1.0000 0.47555  0.87522  0.56317  Biso   1.000  O
  O163     1.0000 0.52445  0.37522  0.93683  Biso   1.000  O
  O164     1.0000 0.97555  0.62478  0.43683  Biso   1.000  O
  O165     1.0000 0.97555  0.87522  0.93683  Biso   1.000  O
  O166     1.0000 0.52445  0.12478  0.43683  Biso   1.000  O
  O167     1.0000 0.47555  0.62478  0.06317  Biso   1.000  O
  O168     1.0000 0.02445  0.37522  0.56317  Biso   1.000  O
