data_image0
_cell_length_a       9.4822
_cell_length_b       16.0485
_cell_length_c       8.9732
_cell_angle_alpha    90
_cell_angle_beta     90
_cell_angle_gamma    90

_symmetry_space_group_name_H-M    "P 1"
_symmetry_int_tables_number       1

loop_
  _symmetry_equiv_pos_as_xyz
  'x, y, z'

loop_
  _atom_site_label
  _atom_site_occupancy
  _atom_site_fract_x
  _atom_site_fract_y
  _atom_site_fract_z
  _atom_site_thermal_displace_type
  _atom_site_B_iso_or_equiv
  _atom_site_type_symbol
  Cu1      1.0000 0.59951  0.40362  0.56106  Biso   1.000  Cu
  Cu2      1.0000 0.90049  0.59638  0.06106  Biso   1.000  Cu
  Cu3      1.0000 0.40049  0.90362  0.43894  Biso   1.000  Cu
  Cu4      1.0000 0.09951  0.09638  0.93894  Biso   1.000  Cu
  Cu5      1.0000 0.40049  0.59638  0.43894  Biso   1.000  Cu
  Cu6      1.0000 0.09951  0.40362  0.93894  Biso   1.000  Cu
  Cu7      1.0000 0.59951  0.09638  0.56106  Biso   1.000  Cu
  Cu8      1.0000 0.90049  0.90362  0.06106  Biso   1.000  Cu
  Na1      1.0000 0.63630  0.75000  0.22010  Biso   1.000  Na
  Na2      1.0000 0.86370  0.25000  0.72010  Biso   1.000  Na
  Na3      1.0000 0.36370  0.25000  0.77990  Biso   1.000  Na
  Na4      1.0000 0.13630  0.75000  0.27990  Biso   1.000  Na
  N1       1.0000 0.61650  0.28598  0.53330  Biso   1.000  N
  N2       1.0000 0.88350  0.71402  0.03330  Biso   1.000  N
  N3       1.0000 0.38350  0.78598  0.46670  Biso   1.000  N
  N4       1.0000 0.11650  0.21402  0.96670  Biso   1.000  N
  N5       1.0000 0.38350  0.71402  0.46670  Biso   1.000  N
  N6       1.0000 0.11650  0.28598  0.96670  Biso   1.000  N
  N7       1.0000 0.61650  0.21402  0.53330  Biso   1.000  N
  N8       1.0000 0.88350  0.78598  0.03330  Biso   1.000  N
  N9       1.0000 0.67520  0.49250  0.42240  Biso   1.000  N
  N10      1.0000 0.82480  0.50750  0.92240  Biso   1.000  N
  N11      1.0000 0.32480  0.99250  0.57760  Biso   1.000  N
  N12      1.0000 0.17520  0.00750  0.07760  Biso   1.000  N
  N13      1.0000 0.32480  0.50750  0.57760  Biso   1.000  N
  N14      1.0000 0.17520  0.49250  0.07760  Biso   1.000  N
  N15      1.0000 0.67520  0.00750  0.42240  Biso   1.000  N
  N16      1.0000 0.82480  0.99250  0.92240  Biso   1.000  N
  N17      1.0000 0.60591  0.56340  0.39110  Biso   1.000  N
  N18      1.0000 0.89409  0.43660  0.89110  Biso   1.000  N
  N19      1.0000 0.39409  0.06340  0.60890  Biso   1.000  N
  N20      1.0000 0.10591  0.93660  0.10890  Biso   1.000  N
  N21      1.0000 0.39409  0.43660  0.60890  Biso   1.000  N
  N22      1.0000 0.10591  0.56340  0.10890  Biso   1.000  N
  N23      1.0000 0.60591  0.93660  0.39110  Biso   1.000  N
  N24      1.0000 0.89409  0.06340  0.89110  Biso   1.000  N
  N25      1.0000 0.67870  0.60701  0.29580  Biso   1.000  N
  N26      1.0000 0.82130  0.39299  0.79580  Biso   1.000  N
  N27      1.0000 0.32130  0.10701  0.70420  Biso   1.000  N
  N28      1.0000 0.17870  0.89299  0.20420  Biso   1.000  N
  N29      1.0000 0.32130  0.39299  0.70420  Biso   1.000  N
  N30      1.0000 0.17870  0.60701  0.20420  Biso   1.000  N
  N31      1.0000 0.67870  0.89299  0.29580  Biso   1.000  N
  N32      1.0000 0.82130  0.10701  0.79580  Biso   1.000  N
  N33      1.0000 0.79630  0.56561  0.26100  Biso   1.000  N
  N34      1.0000 0.70370  0.43439  0.76100  Biso   1.000  N
  N35      1.0000 0.20370  0.06561  0.73900  Biso   1.000  N
  N36      1.0000 0.29630  0.93439  0.23900  Biso   1.000  N
  N37      1.0000 0.20370  0.43439  0.73900  Biso   1.000  N
  N38      1.0000 0.29630  0.56561  0.23900  Biso   1.000  N
  N39      1.0000 0.79630  0.93439  0.26100  Biso   1.000  N
  N40      1.0000 0.70370  0.06561  0.76100  Biso   1.000  N
  N41      1.0000 0.45550  0.75000  0.04000  Biso   1.000  N
  N42      1.0000 0.04450  0.25000  0.54000  Biso   1.000  N
  N43      1.0000 0.54450  0.25000  0.96000  Biso   1.000  N
  N44      1.0000 0.95550  0.75000  0.46000  Biso   1.000  N
  C1       1.0000 0.79290  0.49599  0.34180  Biso   1.000  C
  C2       1.0000 0.70710  0.50401  0.84180  Biso   1.000  C
  C3       1.0000 0.20710  0.99599  0.65820  Biso   1.000  C
  C4       1.0000 0.29290  0.00401  0.15820  Biso   1.000  C
  C5       1.0000 0.20710  0.50401  0.65820  Biso   1.000  C
  C6       1.0000 0.29290  0.49599  0.15820  Biso   1.000  C
  C7       1.0000 0.79290  0.00401  0.34180  Biso   1.000  C
  C8       1.0000 0.70710  0.99599  0.84180  Biso   1.000  C
  C9       1.0000 0.90580  0.43180  0.34300  Biso   1.000  C
  C10      1.0000 0.59420  0.56820  0.84300  Biso   1.000  C
  C11      1.0000 0.09420  0.93180  0.65700  Biso   1.000  C
  C12      1.0000 0.40580  0.06820  0.15700  Biso   1.000  C
  C13      1.0000 0.09420  0.56820  0.65700  Biso   1.000  C
  C14      1.0000 0.40580  0.43180  0.15700  Biso   1.000  C
  C15      1.0000 0.90580  0.06820  0.34300  Biso   1.000  C
  C16      1.0000 0.59420  0.93180  0.84300  Biso   1.000  C
  H1       1.0000 0.92980  0.41720  0.24240  Biso   1.000  H
  H2       1.0000 0.57020  0.58280  0.74240  Biso   1.000  H
  H3       1.0000 0.07020  0.91720  0.75760  Biso   1.000  H
  H4       1.0000 0.42980  0.08280  0.25760  Biso   1.000  H
  H5       1.0000 0.07020  0.58280  0.75760  Biso   1.000  H
  H6       1.0000 0.42980  0.41720  0.25760  Biso   1.000  H
  H7       1.0000 0.92980  0.08280  0.24240  Biso   1.000  H
  H8       1.0000 0.57020  0.91720  0.74240  Biso   1.000  H
  H9       1.0000 0.87280  0.38310  0.39470  Biso   1.000  H
  H10      1.0000 0.62720  0.61690  0.89470  Biso   1.000  H
  H11      1.0000 0.12720  0.88310  0.60530  Biso   1.000  H
  H12      1.0000 0.37280  0.11690  0.10530  Biso   1.000  H
  H13      1.0000 0.12720  0.61690  0.60530  Biso   1.000  H
  H14      1.0000 0.37280  0.38310  0.10530  Biso   1.000  H
  H15      1.0000 0.87280  0.11690  0.39470  Biso   1.000  H
  H16      1.0000 0.62720  0.88310  0.89470  Biso   1.000  H
  H17      1.0000 0.98750  0.45350  0.39270  Biso   1.000  H
  H18      1.0000 0.51250  0.54650  0.89270  Biso   1.000  H
  H19      1.0000 0.01250  0.95350  0.60730  Biso   1.000  H
  H20      1.0000 0.48750  0.04650  0.10730  Biso   1.000  H
  H21      1.0000 0.01250  0.54650  0.60730  Biso   1.000  H
  H22      1.0000 0.48750  0.45350  0.10730  Biso   1.000  H
  H23      1.0000 0.98750  0.04650  0.39270  Biso   1.000  H
  H24      1.0000 0.51250  0.95350  0.89270  Biso   1.000  H
  C17      1.0000 0.36790  0.75000  0.96070  Biso   1.000  C
  C18      1.0000 0.13210  0.25000  0.46070  Biso   1.000  C
  C19      1.0000 0.63210  0.25000  0.03930  Biso   1.000  C
  C20      1.0000 0.86790  0.75000  0.53930  Biso   1.000  C
  C21      1.0000 0.25460  0.78070  0.85840  Biso   1.000  C
  C22      1.0000 0.24540  0.21930  0.35840  Biso   1.000  C
  C23      1.0000 0.74540  0.28070  0.14160  Biso   1.000  C
  C24      1.0000 0.75460  0.71930  0.64160  Biso   1.000  C
  C25      1.0000 0.74540  0.21930  0.14160  Biso   1.000  C
  C26      1.0000 0.75460  0.78070  0.64160  Biso   1.000  C
  C27      1.0000 0.25460  0.71930  0.85840  Biso   1.000  C
  C28      1.0000 0.24540  0.28070  0.35840  Biso   1.000  C
  H25      1.0000 0.27650  0.83640  0.82670  Biso   1.000  H
  H26      1.0000 0.22350  0.16360  0.32670  Biso   1.000  H
  H27      1.0000 0.72350  0.33640  0.17330  Biso   1.000  H
  H28      1.0000 0.77650  0.66360  0.67330  Biso   1.000  H
  H29      1.0000 0.72350  0.16360  0.17330  Biso   1.000  H
  H30      1.0000 0.77650  0.83640  0.67330  Biso   1.000  H
  H31      1.0000 0.27650  0.66360  0.82670  Biso   1.000  H
  H32      1.0000 0.22350  0.33640  0.32670  Biso   1.000  H
  H33      1.0000 0.16590  0.78060  0.90990  Biso   1.000  H
  H34      1.0000 0.33410  0.21940  0.40990  Biso   1.000  H
  H35      1.0000 0.83410  0.28060  0.09010  Biso   1.000  H
  H36      1.0000 0.66590  0.71940  0.59010  Biso   1.000  H
  H37      1.0000 0.83410  0.21940  0.09010  Biso   1.000  H
  H38      1.0000 0.66590  0.78060  0.59010  Biso   1.000  H
  H39      1.0000 0.16590  0.71940  0.90990  Biso   1.000  H
  H40      1.0000 0.33410  0.28060  0.40990  Biso   1.000  H
  H41      1.0000 0.24880  0.74480  0.77300  Biso   1.000  H
  H42      1.0000 0.25120  0.25520  0.27300  Biso   1.000  H
  H43      1.0000 0.75120  0.24480  0.22700  Biso   1.000  H
  H44      1.0000 0.74880  0.75520  0.72700  Biso   1.000  H
  H45      1.0000 0.75120  0.25520  0.22700  Biso   1.000  H
  H46      1.0000 0.74880  0.74480  0.72700  Biso   1.000  H
  H47      1.0000 0.24880  0.75520  0.77300  Biso   1.000  H
  H48      1.0000 0.25120  0.24480  0.27300  Biso   1.000  H
