data_image0
_cell_length_a       12.67
_cell_length_b       3.9209
_cell_length_c       15.407
_cell_angle_alpha    90
_cell_angle_beta     100.995
_cell_angle_gamma    90

_symmetry_space_group_name_H-M    "P 1"
_symmetry_int_tables_number       1

loop_
  _symmetry_equiv_pos_as_xyz
  'x, y, z'

loop_
  _atom_site_label
  _atom_site_occupancy
  _atom_site_fract_x
  _atom_site_fract_y
  _atom_site_fract_z
  _atom_site_thermal_displace_type
  _atom_site_B_iso_or_equiv
  _atom_site_type_symbol
  Cu1      1.0000 0.57646  0.53860  0.92323  Biso   1.000  Cu
  Cu2      1.0000 0.92354  0.53860  0.57677  Biso   1.000  Cu
  Cu3      1.0000 0.42354  0.46140  0.07677  Biso   1.000  Cu
  Cu4      1.0000 0.07646  0.46140  0.42323  Biso   1.000  Cu
  Cu5      1.0000 0.99127  0.89694  0.11657  Biso   1.000  Cu
  Cu6      1.0000 0.50873  0.89694  0.38343  Biso   1.000  Cu
  Cu7      1.0000 0.00873  0.10306  0.88343  Biso   1.000  Cu
  Cu8      1.0000 0.49127  0.10306  0.61657  Biso   1.000  Cu
  N1       1.0000 0.88060  0.14470  0.03566  Biso   1.000  N
  N2       1.0000 0.61940  0.14470  0.46434  Biso   1.000  N
  N3       1.0000 0.11940  0.85530  0.96434  Biso   1.000  N
  N4       1.0000 0.38060  0.85530  0.53566  Biso   1.000  N
  N5       1.0000 0.88610  0.19830  0.94989  Biso   1.000  N
  N6       1.0000 0.61390  0.19830  0.55011  Biso   1.000  N
  N7       1.0000 0.11390  0.80170  0.05011  Biso   1.000  N
  N8       1.0000 0.38610  0.80170  0.44989  Biso   1.000  N
  N9       1.0000 0.79750  0.34530  0.91121  Biso   1.000  N
  N10      1.0000 0.70250  0.34530  0.58879  Biso   1.000  N
  N11      1.0000 0.20250  0.65470  0.08879  Biso   1.000  N
  N12      1.0000 0.29750  0.65470  0.41121  Biso   1.000  N
  H1       1.0000 0.78280  0.40420  0.85650  Biso   1.000  H
  H2       1.0000 0.71720  0.40420  0.64350  Biso   1.000  H
  H3       1.0000 0.21720  0.59580  0.14350  Biso   1.000  H
  H4       1.0000 0.28280  0.59580  0.35650  Biso   1.000  H
  N13      1.0000 0.73270  0.39120  0.96920  Biso   1.000  N
  N14      1.0000 0.76730  0.39120  0.53080  Biso   1.000  N
  N15      1.0000 0.26730  0.60880  0.03080  Biso   1.000  N
  N16      1.0000 0.23270  0.60880  0.46920  Biso   1.000  N
  C1       1.0000 0.78600  0.26710  0.04597  Biso   1.000  C
  C2       1.0000 0.71400  0.26710  0.45403  Biso   1.000  C
  C3       1.0000 0.21400  0.73290  0.95403  Biso   1.000  C
  C4       1.0000 0.28600  0.73290  0.54597  Biso   1.000  C
  C5       1.0000 0.74650  0.26850  0.13050  Biso   1.000  C
  C6       1.0000 0.75350  0.26850  0.36950  Biso   1.000  C
  C7       1.0000 0.25350  0.73150  0.86950  Biso   1.000  C
  C8       1.0000 0.24650  0.73150  0.63050  Biso   1.000  C
  H5       1.0000 0.79910  0.16410  0.17580  Biso   1.000  H
  H6       1.0000 0.70090  0.16410  0.32420  Biso   1.000  H
  H7       1.0000 0.20090  0.83590  0.82420  Biso   1.000  H
  H8       1.0000 0.29910  0.83590  0.67580  Biso   1.000  H
  H9       1.0000 0.68040  0.14300  0.12350  Biso   1.000  H
  H10      1.0000 0.81960  0.14300  0.37650  Biso   1.000  H
  H11      1.0000 0.31960  0.85700  0.87650  Biso   1.000  H
  H12      1.0000 0.18040  0.85700  0.62350  Biso   1.000  H
  H13      1.0000 0.73440  0.49930  0.14700  Biso   1.000  H
  H14      1.0000 0.76560  0.49930  0.35300  Biso   1.000  H
  H15      1.0000 0.26560  0.50070  0.85300  Biso   1.000  H
  H16      1.0000 0.23440  0.50070  0.64700  Biso   1.000  H
  C9       1.0000 0.54270  0.37760  0.80321  Biso   1.000  C
  C10      1.0000 0.95730  0.37760  0.69679  Biso   1.000  C
  C11      1.0000 0.45730  0.62240  0.19679  Biso   1.000  C
  C12      1.0000 0.04270  0.62240  0.30321  Biso   1.000  C
  N17      1.0000 0.52060  0.27180  0.73250  Biso   1.000  N
  N18      1.0000 0.97940  0.27180  0.76750  Biso   1.000  N
  N19      1.0000 0.47940  0.72820  0.26750  Biso   1.000  N
  N20      1.0000 0.02060  0.72820  0.23250  Biso   1.000  N
  C13      1.0000 0.51860  0.89270  0.98238  Biso   1.000  C
  C14      1.0000 0.98140  0.89270  0.51762  Biso   1.000  C
  C15      1.0000 0.48140  0.10730  0.01762  Biso   1.000  C
  C16      1.0000 0.01860  0.10730  0.48238  Biso   1.000  C
  O1       1.0000 0.75000  0.77700  0.75000  Biso   1.000  O
  O2       1.0000 0.25000  0.22300  0.25000  Biso   1.000  O
  H17      1.0000 0.69480  0.89040  0.75640  Biso   1.000  H
  H18      1.0000 0.80520  0.89040  0.74360  Biso   1.000  H
  H19      1.0000 0.30520  0.10960  0.24360  Biso   1.000  H
  H20      1.0000 0.19480  0.10960  0.25640  Biso   1.000  H
