data_image0
_cell_length_a       11.0486
_cell_length_b       15.485
_cell_length_c       16.3158
_cell_angle_alpha    102.043
_cell_angle_beta     102.727
_cell_angle_gamma    94.078

_symmetry_space_group_name_H-M    "P 1"
_symmetry_int_tables_number       1

loop_
  _symmetry_equiv_pos_as_xyz
  'x, y, z'

loop_
  _atom_site_label
  _atom_site_occupancy
  _atom_site_fract_x
  _atom_site_fract_y
  _atom_site_fract_z
  _atom_site_thermal_displace_type
  _atom_site_B_iso_or_equiv
  _atom_site_type_symbol
  C1       1.0000 0.37780  0.52340  0.57110  Biso   1.000  C
  C2       1.0000 0.62220  0.47660  0.42890  Biso   1.000  C
  C3       1.0000 0.27730  0.57260  0.54390  Biso   1.000  C
  C4       1.0000 0.72270  0.42740  0.45610  Biso   1.000  C
  H1       1.0000 0.28580  0.61360  0.51060  Biso   1.000  H
  H2       1.0000 0.71420  0.38640  0.48940  Biso   1.000  H
  C5       1.0000 0.16500  0.55700  0.56940  Biso   1.000  C
  C6       1.0000 0.83500  0.44300  0.43060  Biso   1.000  C
  H3       1.0000 0.09640  0.58210  0.54440  Biso   1.000  H
  H4       1.0000 0.90360  0.41790  0.45560  Biso   1.000  H
  C7       1.0000 0.14880  0.50900  0.62640  Biso   1.000  C
  C8       1.0000 0.85120  0.49100  0.37360  Biso   1.000  C
  H5       1.0000 0.07680  0.50670  0.64690  Biso   1.000  H
  H6       1.0000 0.92320  0.49330  0.35310  Biso   1.000  H
  C9       1.0000 0.25390  0.46010  0.65380  Biso   1.000  C
  C10      1.0000 0.74610  0.53990  0.34620  Biso   1.000  C
  H7       1.0000 0.24670  0.42140  0.68950  Biso   1.000  H
  H8       1.0000 0.75330  0.57860  0.31050  Biso   1.000  H
  C11      1.0000 0.36570  0.47140  0.62670  Biso   1.000  C
  C12      1.0000 0.63430  0.52860  0.37330  Biso   1.000  C
  H9       1.0000 0.43260  0.44240  0.64750  Biso   1.000  H
  H10      1.0000 0.56740  0.55760  0.35250  Biso   1.000  H
  C13      1.0000 0.50010  0.53440  0.54080  Biso   1.000  C
  C14      1.0000 0.49990  0.46560  0.45920  Biso   1.000  C
  C15      1.0000 0.62040  0.66200  0.57230  Biso   1.000  C
  C16      1.0000 0.37960  0.33800  0.42770  Biso   1.000  C
  C17      1.0000 0.71200  0.74610  0.59930  Biso   1.000  C
  C18      1.0000 0.28800  0.25390  0.40070  Biso   1.000  C
  C19      1.0000 0.82890  0.71560  0.56010  Biso   1.000  C
  C20      1.0000 0.17110  0.28440  0.43990  Biso   1.000  C
  H11      1.0000 0.80170  0.68410  0.49990  Biso   1.000  H
  H12      1.0000 0.19830  0.31590  0.50010  Biso   1.000  H
  H13      1.0000 0.89020  0.76590  0.56580  Biso   1.000  H
  H14      1.0000 0.10980  0.23410  0.43420  Biso   1.000  H
  C21      1.0000 0.87750  0.65710  0.61510  Biso   1.000  C
  C22      1.0000 0.12250  0.34290  0.38490  Biso   1.000  C
  H15      1.0000 0.96480  0.67700  0.64320  Biso   1.000  H
  H16      1.0000 0.03520  0.32300  0.35680  Biso   1.000  H
  H17      1.0000 0.87090  0.59690  0.58090  Biso   1.000  H
  H18      1.0000 0.12910  0.40310  0.41910  Biso   1.000  H
  C23      1.0000 0.79680  0.65920  0.68640  Biso   1.000  C
  C24      1.0000 0.20320  0.34080  0.31360  Biso   1.000  C
  H19      1.0000 0.83190  0.64080  0.73980  Biso   1.000  H
  H20      1.0000 0.16810  0.35920  0.26020  Biso   1.000  H
  C25      1.0000 0.67630  0.60690  0.62480  Biso   1.000  C
  C26      1.0000 0.32370  0.39310  0.37520  Biso   1.000  C
  C27      1.0000 0.75520  0.75220  0.69170  Biso   1.000  C
  C28      1.0000 0.24480  0.24780  0.30830  Biso   1.000  C
  C29      1.0000 0.86680  0.82850  0.73990  Biso   1.000  C
  C30      1.0000 0.13320  0.17150  0.26010  Biso   1.000  C
  H21      1.0000 0.91730  0.83780  0.70080  Biso   1.000  H
  H22      1.0000 0.08270  0.16220  0.29920  Biso   1.000  H
  H23      1.0000 0.91710  0.81140  0.78840  Biso   1.000  H
  H24      1.0000 0.08290  0.18860  0.21160  Biso   1.000  H
  H25      1.0000 0.83370  0.88260  0.75960  Biso   1.000  H
  H26      1.0000 0.16630  0.11740  0.24040  Biso   1.000  H
  C31      1.0000 0.65400  0.76800  0.74230  Biso   1.000  C
  C32      1.0000 0.34600  0.23200  0.25770  Biso   1.000  C
  H27      1.0000 0.63910  0.82910  0.75020  Biso   1.000  H
  H28      1.0000 0.36090  0.17090  0.24980  Biso   1.000  H
  H29      1.0000 0.68140  0.75420  0.79770  Biso   1.000  H
  H30      1.0000 0.31860  0.24580  0.20230  Biso   1.000  H
  H31      1.0000 0.57810  0.73040  0.71070  Biso   1.000  H
  H32      1.0000 0.42190  0.26960  0.28930  Biso   1.000  H
  C33      1.0000 0.67000  0.82370  0.55870  Biso   1.000  C
  C34      1.0000 0.33000  0.17630  0.44130  Biso   1.000  C
  H33      1.0000 0.58030  0.81830  0.54310  Biso   1.000  H
  H34      1.0000 0.41970  0.18170  0.45690  Biso   1.000  H
  H35      1.0000 0.70140  0.82200  0.50810  Biso   1.000  H
  H36      1.0000 0.29860  0.17800  0.49190  Biso   1.000  H
  H37      1.0000 0.70200  0.87910  0.59970  Biso   1.000  H
  H38      1.0000 0.29800  0.12090  0.40030  Biso   1.000  H
  C35      1.0000 0.05040  0.70880  0.08360  Biso   1.000  C
  C36      1.0000 0.94960  0.29120  0.91640  Biso   1.000  C
  C37      1.0000 0.06020  0.63060  0.11160  Biso   1.000  C
  C38      1.0000 0.93980  0.36940  0.88840  Biso   1.000  C
  H39      1.0000 0.13550  0.61950  0.14410  Biso   1.000  H
  H40      1.0000 0.86450  0.38050  0.85590  Biso   1.000  H
  C39      1.0000 0.95340  0.56900  0.08960  Biso   1.000  C
  C40      1.0000 0.04660  0.43100  0.91040  Biso   1.000  C
  H41      1.0000 0.95840  0.51840  0.11180  Biso   1.000  H
  H42      1.0000 0.04160  0.48160  0.88820  Biso   1.000  H
  C41      1.0000 0.84400  0.57760  0.03880  Biso   1.000  C
  C42      1.0000 0.15600  0.42240  0.96120  Biso   1.000  C
  H43      1.0000 0.77570  0.53440  0.02660  Biso   1.000  H
  H44      1.0000 0.22430  0.46560  0.97340  Biso   1.000  H
  C43      1.0000 0.83510  0.65200  0.00500  Biso   1.000  C
  C44      1.0000 0.16490  0.34800  0.99500  Biso   1.000  C
  H45      1.0000 0.76260  0.65830  0.96630  Biso   1.000  H
  H46      1.0000 0.23740  0.34170  0.03370  Biso   1.000  H
  C45      1.0000 0.93840  0.71800  0.03060  Biso   1.000  C
  C46      1.0000 0.06160  0.28200  0.96940  Biso   1.000  C
  H47      1.0000 0.93110  0.77010  0.01110  Biso   1.000  H
  H48      1.0000 0.06890  0.22990  0.98890  Biso   1.000  H
  C47      1.0000 0.16060  0.77820  0.10420  Biso   1.000  C
  C48      1.0000 0.83940  0.22180  0.89580  Biso   1.000  C
  C49      1.0000 0.31410  0.74710  0.04390  Biso   1.000  C
  C50      1.0000 0.68590  0.25290  0.95610  Biso   1.000  C
  C51      1.0000 0.41690  0.72180  0.99410  Biso   1.000  C
  C52      1.0000 0.58310  0.27820  0.00590  Biso   1.000  C
  C53      1.0000 0.49780  0.81710  0.01640  Biso   1.000  C
  C54      1.0000 0.50220  0.18290  0.98360  Biso   1.000  C
  H49      1.0000 0.51060  0.84550  0.07700  Biso   1.000  H
  H50      1.0000 0.48940  0.15450  0.92300  Biso   1.000  H
  H51      1.0000 0.57870  0.81150  0.00320  Biso   1.000  H
  H52      1.0000 0.42130  0.18850  0.99680  Biso   1.000  H
  C55      1.0000 0.41870  0.87280  0.95780  Biso   1.000  C
  C56      1.0000 0.58130  0.12720  0.04220  Biso   1.000  C
  H53      1.0000 0.45780  0.88230  0.91210  Biso   1.000  H
  H54      1.0000 0.54220  0.11770  0.08790  Biso   1.000  H
  H55      1.0000 0.40860  0.93000  0.99170  Biso   1.000  H
  H56      1.0000 0.59140  0.07000  0.00830  Biso   1.000  H
  C57      1.0000 0.28630  0.81060  0.91890  Biso   1.000  C
  C58      1.0000 0.71370  0.18940  0.08110  Biso   1.000  C
  H57      1.0000 0.22890  0.82650  0.87090  Biso   1.000  H
  H58      1.0000 0.77110  0.17350  0.12910  Biso   1.000  H
  C59      1.0000 0.23550  0.80170  0.99460  Biso   1.000  C
  C60      1.0000 0.76450  0.19830  0.00540  Biso   1.000  C
  C61      1.0000 0.33130  0.71380  0.89930  Biso   1.000  C
  C62      1.0000 0.66870  0.28620  0.10070  Biso   1.000  C
  C63      1.0000 0.22260  0.64100  0.87440  Biso   1.000  C
  C64      1.0000 0.77740  0.35900  0.12560  Biso   1.000  C
  H59      1.0000 0.14680  0.66440  0.85290  Biso   1.000  H
  H60      1.0000 0.85320  0.33560  0.14710  Biso   1.000  H
  H61      1.0000 0.21570  0.61880  0.92410  Biso   1.000  H
  H62      1.0000 0.78430  0.38120  0.07590  Biso   1.000  H
  H63      1.0000 0.23600  0.59350  0.83030  Biso   1.000  H
  H64      1.0000 0.76400  0.40650  0.16970  Biso   1.000  H
  C65      1.0000 0.41740  0.70350  0.83510  Biso   1.000  C
  C66      1.0000 0.58260  0.29650  0.16490  Biso   1.000  C
  H65      1.0000 0.43530  0.64300  0.82250  Biso   1.000  H
  H66      1.0000 0.56470  0.35700  0.17750  Biso   1.000  H
  H67      1.0000 0.49400  0.74240  0.86050  Biso   1.000  H
  H68      1.0000 0.50600  0.25760  0.13950  Biso   1.000  H
  H69      1.0000 0.37590  0.71850  0.78270  Biso   1.000  H
  H70      1.0000 0.62410  0.28150  0.21730  Biso   1.000  H
  C67      1.0000 0.45050  0.62900  0.00000  Biso   1.000  C
  C68      1.0000 0.54950  0.37100  0.00000  Biso   1.000  C
  H71      1.0000 0.47720  0.62690  0.05960  Biso   1.000  H
  H72      1.0000 0.52280  0.37310  0.94040  Biso   1.000  H
  H73      1.0000 0.51680  0.61580  0.97180  Biso   1.000  H
  H74      1.0000 0.48320  0.38420  0.02820  Biso   1.000  H
  H75      1.0000 0.37850  0.58590  0.97240  Biso   1.000  H
  H76      1.0000 0.62150  0.41410  0.02760  Biso   1.000  H
  C69      1.0000 0.29430  0.91570  0.22930  Biso   1.000  C
  C70      1.0000 0.70570  0.08430  0.77070  Biso   1.000  C
  C71      1.0000 0.35450  0.95270  0.17610  Biso   1.000  C
  C72      1.0000 0.64550  0.04730  0.82390  Biso   1.000  C
  H77      1.0000 0.32150  0.93850  0.11670  Biso   1.000  H
  H78      1.0000 0.67850  0.06150  0.88330  Biso   1.000  H
  C73      1.0000 0.46410  0.01080  0.21160  Biso   1.000  C
  C74      1.0000 0.53590  0.98920  0.78840  Biso   1.000  C
  H79      1.0000 0.50440  0.03560  0.17600  Biso   1.000  H
  H80      1.0000 0.49560  0.96440  0.82400  Biso   1.000  H
  C75      1.0000 0.51350  0.03210  0.30040  Biso   1.000  C
  C76      1.0000 0.48650  0.96790  0.69960  Biso   1.000  C
  H81      1.0000 0.58690  0.07100  0.32420  Biso   1.000  H
  H82      1.0000 0.41310  0.92900  0.67580  Biso   1.000  H
  C77      1.0000 0.45330  0.99510  0.35370  Biso   1.000  C
  C78      1.0000 0.54670  0.00490  0.64630  Biso   1.000  C
  H83      1.0000 0.48630  0.00930  0.41310  Biso   1.000  H
  H84      1.0000 0.51370  0.99070  0.58690  Biso   1.000  H
  C79      1.0000 0.34370  0.93700  0.31810  Biso   1.000  C
  C80      1.0000 0.65630  0.06300  0.68190  Biso   1.000  C
  H85      1.0000 0.30330  0.91220  0.35370  Biso   1.000  H
  H86      1.0000 0.69670  0.08780  0.64630  Biso   1.000  H
  C81      1.0000 0.17330  0.85240  0.19150  Biso   1.000  C
  C82      1.0000 0.82670  0.14760  0.80850  Biso   1.000  C
  C83      1.0000 0.03430  0.83440  0.26910  Biso   1.000  C
  C84      1.0000 0.96570  0.16560  0.73090  Biso   1.000  C
  C85      1.0000 0.93300  0.82370  0.31850  Biso   1.000  C
  C86      1.0000 0.06700  0.17630  0.68150  Biso   1.000  C
  C87      1.0000 0.82180  0.76440  0.24810  Biso   1.000  C
  C88      1.0000 0.17820  0.23560  0.75190  Biso   1.000  C
  H87      1.0000 0.75700  0.74330  0.27330  Biso   1.000  H
  H88      1.0000 0.24300  0.25670  0.72670  Biso   1.000  H
  H89      1.0000 0.84970  0.71400  0.21400  Biso   1.000  H
  H90      1.0000 0.15030  0.28600  0.78600  Biso   1.000  H
  C89      1.0000 0.77650  0.83350  0.19330  Biso   1.000  C
  C90      1.0000 0.22350  0.16650  0.80670  Biso   1.000  C
  H91      1.0000 0.69220  0.84490  0.19620  Biso   1.000  H
  H92      1.0000 0.30780  0.15510  0.80380  Biso   1.000  H
  H93      1.0000 0.77760  0.81130  0.13340  Biso   1.000  H
  H94      1.0000 0.22240  0.18870  0.86660  Biso   1.000  H
  C91      1.0000 0.87260  0.92230  0.23500  Biso   1.000  C
  C92      1.0000 0.12740  0.07770  0.76500  Biso   1.000  C
  H95      1.0000 0.84760  0.97810  0.22130  Biso   1.000  H
  H96      1.0000 0.15240  0.02190  0.77870  Biso   1.000  H
  C93      1.0000 0.99070  0.89270  0.21500  Biso   1.000  C
  C94      1.0000 0.00930  0.10730  0.78500  Biso   1.000  C
  C95      1.0000 0.89940  0.91590  0.33040  Biso   1.000  C
  C96      1.0000 0.10060  0.08410  0.66960  Biso   1.000  C
  C97      1.0000 0.01080  0.98530  0.38400  Biso   1.000  C
  C98      1.0000 0.98920  0.01470  0.61600  Biso   1.000  C
  H97      1.0000 0.06620  0.95850  0.42270  Biso   1.000  H
  H98      1.0000 0.93380  0.04150  0.57730  Biso   1.000  H
  H99      1.0000 0.98050  0.03450  0.41660  Biso   1.000  H
  H100     1.0000 0.01950  0.96550  0.58340  Biso   1.000  H
  H101     1.0000 0.05490  0.00620  0.34600  Biso   1.000  H
  H102     1.0000 0.94510  0.99380  0.65400  Biso   1.000  H
  C99      1.0000 0.78910  0.92720  0.37040  Biso   1.000  C
  C100     1.0000 0.21090  0.07280  0.62960  Biso   1.000  C
  H103     1.0000 0.74420  0.86990  0.36420  Biso   1.000  H
  H104     1.0000 0.25580  0.13010  0.63580  Biso   1.000  H
  H105     1.0000 0.73480  0.96330  0.34190  Biso   1.000  H
  H106     1.0000 0.26520  0.03670  0.65810  Biso   1.000  H
  H107     1.0000 0.81820  0.95560  0.43060  Biso   1.000  H
  H108     1.0000 0.18180  0.04440  0.56940  Biso   1.000  H
  C101     1.0000 0.95450  0.78280  0.39750  Biso   1.000  C
  C102     1.0000 0.04550  0.21720  0.60250  Biso   1.000  C
  H109     1.0000 0.00570  0.82530  0.44660  Biso   1.000  H
  H110     1.0000 0.99430  0.17470  0.55340  Biso   1.000  H
  H111     1.0000 0.99580  0.73060  0.38630  Biso   1.000  H
  H112     1.0000 0.00420  0.26940  0.61370  Biso   1.000  H
  H113     1.0000 0.87560  0.76680  0.40930  Biso   1.000  H
  H114     1.0000 0.12440  0.23320  0.59070  Biso   1.000  H
  N1       1.0000 0.51760  0.62770  0.52250  Biso   1.000  N
  N2       1.0000 0.48240  0.37230  0.47750  Biso   1.000  N
  N3       1.0000 0.60590  0.53310  0.61090  Biso   1.000  N
  N4       1.0000 0.39410  0.46690  0.38910  Biso   1.000  N
  N5       1.0000 0.27770  0.73500  0.10880  Biso   1.000  N
  N6       1.0000 0.72230  0.26500  0.89120  Biso   1.000  N
  N7       1.0000 0.14990  0.82500  0.03180  Biso   1.000  N
  N8       1.0000 0.85010  0.17500  0.96820  Biso   1.000  N
  N9       1.0000 0.14080  0.80720  0.25700  Biso   1.000  N
  N10      1.0000 0.85920  0.19280  0.74300  Biso   1.000  N
  N11      1.0000 0.06650  0.90790  0.16910  Biso   1.000  N
  N12      1.0000 0.93350  0.09210  0.83090  Biso   1.000  N
  O1       1.0000 0.12810  0.83830  0.63900  Biso   1.000  O
  O2       1.0000 0.87190  0.16170  0.36100  Biso   1.000  O
  H115     1.0000 0.17040  0.83150  0.60090  Biso   1.000  H
  H116     1.0000 0.82960  0.16850  0.39910  Biso   1.000  H
  H117     1.0000 0.09940  0.78770  0.64380  Biso   1.000  H
  H118     1.0000 0.90060  0.21230  0.35620  Biso   1.000  H
  Cu1      1.0000 0.41441  0.69508  0.44982  Biso   1.000  Cu
  Cu2      1.0000 0.58559  0.30492  0.55018  Biso   1.000  Cu
  Cu3      1.0000 0.66041  0.45081  0.69376  Biso   1.000  Cu
  Cu4      1.0000 0.33959  0.54919  0.30624  Biso   1.000  Cu
  Cu5      1.0000 0.35926  0.67041  0.19370  Biso   1.000  Cu
  Cu6      1.0000 0.64074  0.32959  0.80630  Biso   1.000  Cu
  Cu7      1.0000 0.24194  0.73739  0.33162  Biso   1.000  Cu
  Cu8      1.0000 0.75806  0.26261  0.66838  Biso   1.000  Cu
  Cu9      1.0000 0.05220  0.94248  0.05232  Biso   1.000  Cu
  Cu10     1.0000 0.94780  0.05752  0.94768  Biso   1.000  Cu
  Br1      1.0000 0.49345  0.74009  0.33209  Biso   1.000  Br
  Br2      1.0000 0.50655  0.25991  0.66791  Biso   1.000  Br
  Br3      1.0000 0.60962  0.48261  0.83133  Biso   1.000  Br
  Br4      1.0000 0.39038  0.51739  0.16867  Biso   1.000  Br
  Br5      1.0000 0.85848  0.40899  0.67739  Biso   1.000  Br
  Br6      1.0000 0.14152  0.59101  0.32261  Biso   1.000  Br
  Br7      1.0000 0.29203  0.81115  0.49169  Biso   1.000  Br
  Br8      1.0000 0.70797  0.18885  0.50831  Biso   1.000  Br
  Br9      1.0000 0.17097  0.06421  0.02058  Biso   1.000  Br
  Br10     1.0000 0.82903  0.93579  0.97942  Biso   1.000  Br
