data_image0
_cell_length_a       7.5923
_cell_length_b       18.203
_cell_length_c       30.102
_cell_angle_alpha    90
_cell_angle_beta     90
_cell_angle_gamma    90

_symmetry_space_group_name_H-M    "P 1"
_symmetry_int_tables_number       1

loop_
  _symmetry_equiv_pos_as_xyz
  'x, y, z'

loop_
  _atom_site_label
  _atom_site_occupancy
  _atom_site_fract_x
  _atom_site_fract_y
  _atom_site_fract_z
  _atom_site_thermal_displace_type
  _atom_site_B_iso_or_equiv
  _atom_site_type_symbol
  Br1      1.0000 0.35251  0.04080  0.24451  Biso   1.000  Br
  Br2      1.0000 0.14749  0.95920  0.74451  Biso   1.000  Br
  Br3      1.0000 0.64749  0.54080  0.25549  Biso   1.000  Br
  Br4      1.0000 0.85251  0.45920  0.75549  Biso   1.000  Br
  Br5      1.0000 0.64749  0.95920  0.75549  Biso   1.000  Br
  Br6      1.0000 0.85251  0.04080  0.25549  Biso   1.000  Br
  Br7      1.0000 0.35251  0.45920  0.74451  Biso   1.000  Br
  Br8      1.0000 0.14749  0.54080  0.24451  Biso   1.000  Br
  Cu1      1.0000 0.09454  0.10632  0.22199  Biso   1.000  Cu
  Cu2      1.0000 0.40546  0.89368  0.72199  Biso   1.000  Cu
  Cu3      1.0000 0.90546  0.60632  0.27801  Biso   1.000  Cu
  Cu4      1.0000 0.59454  0.39368  0.77801  Biso   1.000  Cu
  Cu5      1.0000 0.90546  0.89368  0.77801  Biso   1.000  Cu
  Cu6      1.0000 0.59454  0.10632  0.27801  Biso   1.000  Cu
  Cu7      1.0000 0.09454  0.39368  0.72199  Biso   1.000  Cu
  Cu8      1.0000 0.40546  0.60632  0.22199  Biso   1.000  Cu
  N1       1.0000 0.06260  0.19429  0.18638  Biso   1.000  N
  N2       1.0000 0.43740  0.80571  0.68638  Biso   1.000  N
  N3       1.0000 0.93740  0.69429  0.31362  Biso   1.000  N
  N4       1.0000 0.56260  0.30571  0.81362  Biso   1.000  N
  N5       1.0000 0.93740  0.80571  0.81362  Biso   1.000  N
  N6       1.0000 0.56260  0.19429  0.31362  Biso   1.000  N
  N7       1.0000 0.06260  0.30571  0.68638  Biso   1.000  N
  N8       1.0000 0.43740  0.69429  0.18638  Biso   1.000  N
  N9       1.0000 0.99270  0.30503  0.16341  Biso   1.000  N
  N10      1.0000 0.50730  0.69497  0.66341  Biso   1.000  N
  N11      1.0000 0.00730  0.80503  0.33659  Biso   1.000  N
  N12      1.0000 0.49270  0.19497  0.83659  Biso   1.000  N
  N13      1.0000 0.00730  0.69497  0.83659  Biso   1.000  N
  N14      1.0000 0.49270  0.30503  0.33659  Biso   1.000  N
  N15      1.0000 0.99270  0.19497  0.66341  Biso   1.000  N
  N16      1.0000 0.50730  0.80503  0.16341  Biso   1.000  N
  H1       1.0000 0.96000  0.35030  0.16400  Biso   1.000  H
  H2       1.0000 0.54000  0.64970  0.66400  Biso   1.000  H
  H3       1.0000 0.04000  0.85030  0.33600  Biso   1.000  H
  H4       1.0000 0.46000  0.14970  0.83600  Biso   1.000  H
  H5       1.0000 0.04000  0.64970  0.83600  Biso   1.000  H
  H6       1.0000 0.46000  0.35030  0.33600  Biso   1.000  H
  H7       1.0000 0.96000  0.14970  0.66400  Biso   1.000  H
  H8       1.0000 0.54000  0.85030  0.16400  Biso   1.000  H
  C1       1.0000 0.01650  0.26113  0.19918  Biso   1.000  C
  C2       1.0000 0.48350  0.73887  0.69918  Biso   1.000  C
  C3       1.0000 0.98350  0.76113  0.30082  Biso   1.000  C
  C4       1.0000 0.51650  0.23887  0.80082  Biso   1.000  C
  C5       1.0000 0.98350  0.73887  0.80082  Biso   1.000  C
  C6       1.0000 0.51650  0.26113  0.30082  Biso   1.000  C
  C7       1.0000 0.01650  0.23887  0.69918  Biso   1.000  C
  C8       1.0000 0.48350  0.76113  0.19918  Biso   1.000  C
  C9       1.0000 0.02330  0.26650  0.32294  Biso   1.000  C
  C10      1.0000 0.47670  0.73350  0.82294  Biso   1.000  C
  C11      1.0000 0.97670  0.76650  0.17706  Biso   1.000  C
  C12      1.0000 0.52330  0.23350  0.67706  Biso   1.000  C
  C13      1.0000 0.97670  0.73350  0.67706  Biso   1.000  C
  C14      1.0000 0.52330  0.26650  0.17706  Biso   1.000  C
  C15      1.0000 0.02330  0.23350  0.82294  Biso   1.000  C
  C16      1.0000 0.47670  0.76650  0.32294  Biso   1.000  C
  C17      1.0000 0.99090  0.28552  0.24524  Biso   1.000  C
  C18      1.0000 0.50910  0.71448  0.74524  Biso   1.000  C
  C19      1.0000 0.00910  0.78552  0.25476  Biso   1.000  C
  C20      1.0000 0.49090  0.21448  0.75476  Biso   1.000  C
  C21      1.0000 0.00910  0.71448  0.75476  Biso   1.000  C
  C22      1.0000 0.49090  0.28552  0.25476  Biso   1.000  C
  C23      1.0000 0.99090  0.21448  0.74524  Biso   1.000  C
  C24      1.0000 0.50910  0.78552  0.24524  Biso   1.000  C
  C25      1.0000 0.04930  0.24294  0.28033  Biso   1.000  C
  C26      1.0000 0.45070  0.75706  0.78033  Biso   1.000  C
  C27      1.0000 0.95070  0.74294  0.21967  Biso   1.000  C
  C28      1.0000 0.54930  0.25706  0.71967  Biso   1.000  C
  C29      1.0000 0.95070  0.75706  0.71967  Biso   1.000  C
  C30      1.0000 0.54930  0.24294  0.21967  Biso   1.000  C
  C31      1.0000 0.04930  0.25706  0.78033  Biso   1.000  C
  C32      1.0000 0.45070  0.74294  0.28033  Biso   1.000  C
  H9       1.0000 0.10580  0.19850  0.27500  Biso   1.000  H
  H10      1.0000 0.39420  0.80150  0.77500  Biso   1.000  H
  H11      1.0000 0.89420  0.69850  0.22500  Biso   1.000  H
  H12      1.0000 0.60580  0.30150  0.72500  Biso   1.000  H
  H13      1.0000 0.89420  0.80150  0.72500  Biso   1.000  H
  H14      1.0000 0.60580  0.19850  0.22500  Biso   1.000  H
  H15      1.0000 0.10580  0.30150  0.77500  Biso   1.000  H
  H16      1.0000 0.39420  0.69850  0.27500  Biso   1.000  H
  N17      1.0000 0.08430  0.21880  0.35960  Biso   1.000  N
  N18      1.0000 0.41570  0.78120  0.85960  Biso   1.000  N
  N19      1.0000 0.91570  0.71880  0.14040  Biso   1.000  N
  N20      1.0000 0.58430  0.28120  0.64040  Biso   1.000  N
  N21      1.0000 0.91570  0.78120  0.64040  Biso   1.000  N
  N22      1.0000 0.58430  0.21880  0.14040  Biso   1.000  N
  N23      1.0000 0.08430  0.28120  0.85960  Biso   1.000  N
  N24      1.0000 0.41570  0.71880  0.35960  Biso   1.000  N
  C33      1.0000 0.90830  0.35270  0.25541  Biso   1.000  C
  C34      1.0000 0.59170  0.64730  0.75541  Biso   1.000  C
  C35      1.0000 0.09170  0.85270  0.24459  Biso   1.000  C
  C36      1.0000 0.40830  0.14730  0.74459  Biso   1.000  C
  C37      1.0000 0.09170  0.64730  0.74459  Biso   1.000  C
  C38      1.0000 0.40830  0.35270  0.24459  Biso   1.000  C
  C39      1.0000 0.90830  0.14730  0.75541  Biso   1.000  C
  C40      1.0000 0.59170  0.85270  0.25541  Biso   1.000  C
  H17      1.0000 0.86810  0.38260  0.23250  Biso   1.000  H
  H18      1.0000 0.63190  0.61740  0.73250  Biso   1.000  H
  H19      1.0000 0.13190  0.88260  0.26750  Biso   1.000  H
  H20      1.0000 0.36810  0.11740  0.76750  Biso   1.000  H
  H21      1.0000 0.13190  0.61740  0.76750  Biso   1.000  H
  H22      1.0000 0.36810  0.38260  0.26750  Biso   1.000  H
  H23      1.0000 0.86810  0.11740  0.73250  Biso   1.000  H
  H24      1.0000 0.63190  0.88260  0.23250  Biso   1.000  H
  C41      1.0000 0.03000  0.26462  0.12598  Biso   1.000  C
  C42      1.0000 0.47000  0.73538  0.62598  Biso   1.000  C
  C43      1.0000 0.97000  0.76462  0.37402  Biso   1.000  C
  C44      1.0000 0.53000  0.23538  0.87402  Biso   1.000  C
  C45      1.0000 0.97000  0.73538  0.87402  Biso   1.000  C
  C46      1.0000 0.53000  0.26462  0.37402  Biso   1.000  C
  C47      1.0000 0.03000  0.23538  0.62598  Biso   1.000  C
  C48      1.0000 0.47000  0.76462  0.12598  Biso   1.000  C
  C49      1.0000 0.10020  0.12836  0.11422  Biso   1.000  C
  C50      1.0000 0.39980  0.87164  0.61422  Biso   1.000  C
  C51      1.0000 0.89980  0.62836  0.38578  Biso   1.000  C
  C52      1.0000 0.60020  0.37164  0.88578  Biso   1.000  C
  C53      1.0000 0.89980  0.87164  0.88578  Biso   1.000  C
  C54      1.0000 0.60020  0.12836  0.38578  Biso   1.000  C
  C55      1.0000 0.10020  0.37164  0.61422  Biso   1.000  C
  C56      1.0000 0.39980  0.62836  0.11422  Biso   1.000  C
  C57      1.0000 0.98600  0.11120  0.07970  Biso   1.000  C
  C58      1.0000 0.51400  0.88880  0.57970  Biso   1.000  C
  C59      1.0000 0.01400  0.61120  0.42030  Biso   1.000  C
  C60      1.0000 0.48600  0.38880  0.92030  Biso   1.000  C
  C61      1.0000 0.01400  0.88880  0.92030  Biso   1.000  C
  C62      1.0000 0.48600  0.11120  0.42030  Biso   1.000  C
  C63      1.0000 0.98600  0.38880  0.57970  Biso   1.000  C
  C64      1.0000 0.51400  0.61120  0.07970  Biso   1.000  C
  H25      1.0000 0.89490  0.14340  0.07260  Biso   1.000  H
  H26      1.0000 0.60510  0.85660  0.57260  Biso   1.000  H
  H27      1.0000 0.10510  0.64340  0.42740  Biso   1.000  H
  H28      1.0000 0.39490  0.35660  0.92740  Biso   1.000  H
  H29      1.0000 0.10510  0.85660  0.92740  Biso   1.000  H
  H30      1.0000 0.39490  0.14340  0.42740  Biso   1.000  H
  H31      1.0000 0.89490  0.35660  0.57260  Biso   1.000  H
  H32      1.0000 0.60510  0.64340  0.07260  Biso   1.000  H
  C65      1.0000 0.06950  0.19542  0.14043  Biso   1.000  C
  C66      1.0000 0.43050  0.80458  0.64043  Biso   1.000  C
  C67      1.0000 0.93050  0.69542  0.35957  Biso   1.000  C
  C68      1.0000 0.56950  0.30458  0.85957  Biso   1.000  C
  C69      1.0000 0.93050  0.80458  0.85957  Biso   1.000  C
  C70      1.0000 0.56950  0.19542  0.35957  Biso   1.000  C
  C71      1.0000 0.06950  0.30458  0.64043  Biso   1.000  C
  C72      1.0000 0.43050  0.69542  0.14043  Biso   1.000  C
  O1       1.0000 0.14760  0.15955  0.35041  Biso   1.000  O
  O2       1.0000 0.35240  0.84045  0.85041  Biso   1.000  O
  O3       1.0000 0.85240  0.65955  0.14959  Biso   1.000  O
  O4       1.0000 0.64760  0.34045  0.64959  Biso   1.000  O
  O5       1.0000 0.85240  0.84045  0.64959  Biso   1.000  O
  O6       1.0000 0.64760  0.15955  0.14959  Biso   1.000  O
  O7       1.0000 0.14760  0.34045  0.85041  Biso   1.000  O
  O8       1.0000 0.35240  0.65955  0.35041  Biso   1.000  O
  C73      1.0000 0.88650  0.37450  0.29893  Biso   1.000  C
  C74      1.0000 0.61350  0.62550  0.79893  Biso   1.000  C
  C75      1.0000 0.11350  0.87450  0.20107  Biso   1.000  C
  C76      1.0000 0.38650  0.12550  0.70107  Biso   1.000  C
  C77      1.0000 0.11350  0.62550  0.70107  Biso   1.000  C
  C78      1.0000 0.38650  0.37450  0.20107  Biso   1.000  C
  C79      1.0000 0.88650  0.12550  0.79893  Biso   1.000  C
  C80      1.0000 0.61350  0.87450  0.29893  Biso   1.000  C
  H33      1.0000 0.83190  0.41910  0.30500  Biso   1.000  H
  H34      1.0000 0.66810  0.58090  0.80500  Biso   1.000  H
  H35      1.0000 0.16810  0.91910  0.19500  Biso   1.000  H
  H36      1.0000 0.33190  0.08090  0.69500  Biso   1.000  H
  H37      1.0000 0.16810  0.58090  0.69500  Biso   1.000  H
  H38      1.0000 0.33190  0.41910  0.19500  Biso   1.000  H
  H39      1.0000 0.83190  0.08090  0.80500  Biso   1.000  H
  H40      1.0000 0.66810  0.91910  0.30500  Biso   1.000  H
  C81      1.0000 0.02740  0.29700  0.08079  Biso   1.000  C
  C82      1.0000 0.47260  0.70300  0.58079  Biso   1.000  C
  C83      1.0000 0.97260  0.79700  0.41921  Biso   1.000  C
  C84      1.0000 0.52740  0.20300  0.91921  Biso   1.000  C
  C85      1.0000 0.97260  0.70300  0.91921  Biso   1.000  C
  C86      1.0000 0.52740  0.29700  0.41921  Biso   1.000  C
  C87      1.0000 0.02740  0.20300  0.58079  Biso   1.000  C
  C88      1.0000 0.47260  0.79700  0.08079  Biso   1.000  C
  O9       1.0000 0.06840  0.24115  0.39753  Biso   1.000  O
  O10      1.0000 0.43160  0.75885  0.89753  Biso   1.000  O
  O11      1.0000 0.93160  0.74115  0.10247  Biso   1.000  O
  O12      1.0000 0.56840  0.25885  0.60247  Biso   1.000  O
  O13      1.0000 0.93160  0.75885  0.60247  Biso   1.000  O
  O14      1.0000 0.56840  0.24115  0.10247  Biso   1.000  O
  O15      1.0000 0.06840  0.25885  0.89753  Biso   1.000  O
  O16      1.0000 0.43160  0.74115  0.39753  Biso   1.000  O
  C89      1.0000 0.15440  0.27730  0.05025  Biso   1.000  C
  C90      1.0000 0.34560  0.72270  0.55025  Biso   1.000  C
  C91      1.0000 0.84560  0.77730  0.44975  Biso   1.000  C
  C92      1.0000 0.65440  0.22270  0.94975  Biso   1.000  C
  C93      1.0000 0.84560  0.72270  0.94975  Biso   1.000  C
  C94      1.0000 0.65440  0.27730  0.44975  Biso   1.000  C
  C95      1.0000 0.15440  0.22270  0.55025  Biso   1.000  C
  C96      1.0000 0.34560  0.77730  0.05025  Biso   1.000  C
  H41      1.0000 0.24240  0.24440  0.05830  Biso   1.000  H
  H42      1.0000 0.25760  0.75560  0.55830  Biso   1.000  H
  H43      1.0000 0.75760  0.74440  0.44170  Biso   1.000  H
  H44      1.0000 0.74240  0.25560  0.94170  Biso   1.000  H
  H45      1.0000 0.75760  0.75560  0.94170  Biso   1.000  H
  H46      1.0000 0.74240  0.24440  0.44170  Biso   1.000  H
  H47      1.0000 0.24240  0.25560  0.55830  Biso   1.000  H
  H48      1.0000 0.25760  0.74440  0.05830  Biso   1.000  H
  C97      1.0000 0.94400  0.33170  0.33327  Biso   1.000  C
  C98      1.0000 0.55600  0.66830  0.83327  Biso   1.000  C
  C99      1.0000 0.05600  0.83170  0.16673  Biso   1.000  C
  C100     1.0000 0.44400  0.16830  0.66673  Biso   1.000  C
  C101     1.0000 0.05600  0.66830  0.66673  Biso   1.000  C
  C102     1.0000 0.44400  0.33170  0.16673  Biso   1.000  C
  C103     1.0000 0.94400  0.16830  0.83327  Biso   1.000  C
  C104     1.0000 0.55600  0.83170  0.33327  Biso   1.000  C
  H49      1.0000 0.92960  0.34640  0.36260  Biso   1.000  H
  H50      1.0000 0.57040  0.65360  0.86260  Biso   1.000  H
  H51      1.0000 0.07040  0.84640  0.13740  Biso   1.000  H
  H52      1.0000 0.42960  0.15360  0.63740  Biso   1.000  H
  H53      1.0000 0.07040  0.65360  0.63740  Biso   1.000  H
  H54      1.0000 0.42960  0.34640  0.13740  Biso   1.000  H
  H55      1.0000 0.92960  0.15360  0.86260  Biso   1.000  H
  H56      1.0000 0.57040  0.84640  0.36260  Biso   1.000  H
  C105     1.0000 0.90130  0.37650  0.02602  Biso   1.000  C
  C106     1.0000 0.59870  0.62350  0.52602  Biso   1.000  C
  C107     1.0000 0.09870  0.87650  0.47398  Biso   1.000  C
  C108     1.0000 0.40130  0.12350  0.97398  Biso   1.000  C
  C109     1.0000 0.09870  0.62350  0.97398  Biso   1.000  C
  C110     1.0000 0.40130  0.37650  0.47398  Biso   1.000  C
  C111     1.0000 0.90130  0.12350  0.52602  Biso   1.000  C
  C112     1.0000 0.59870  0.87650  0.02602  Biso   1.000  C
  H57      1.0000 0.81570  0.41060  0.01800  Biso   1.000  H
  H58      1.0000 0.68430  0.58940  0.51800  Biso   1.000  H
  H59      1.0000 0.18430  0.91060  0.48200  Biso   1.000  H
  H60      1.0000 0.31570  0.08940  0.98200  Biso   1.000  H
  H61      1.0000 0.18430  0.58940  0.98200  Biso   1.000  H
  H62      1.0000 0.31570  0.41060  0.48200  Biso   1.000  H
  H63      1.0000 0.81570  0.08940  0.51800  Biso   1.000  H
  H64      1.0000 0.68430  0.91060  0.01800  Biso   1.000  H
  C113     1.0000 0.00590  0.04730  0.05585  Biso   1.000  C
  C114     1.0000 0.49410  0.95270  0.55585  Biso   1.000  C
  C115     1.0000 0.99410  0.54730  0.44415  Biso   1.000  C
  C116     1.0000 0.50590  0.45270  0.94415  Biso   1.000  C
  C117     1.0000 0.99410  0.95270  0.94415  Biso   1.000  C
  C118     1.0000 0.50590  0.04730  0.44415  Biso   1.000  C
  C119     1.0000 0.00590  0.45270  0.55585  Biso   1.000  C
  C120     1.0000 0.49410  0.54730  0.05585  Biso   1.000  C
  H65      1.0000 0.92900  0.03650  0.03270  Biso   1.000  H
  H66      1.0000 0.57100  0.96350  0.53270  Biso   1.000  H
  H67      1.0000 0.07100  0.53650  0.46730  Biso   1.000  H
  H68      1.0000 0.42900  0.46350  0.96730  Biso   1.000  H
  H69      1.0000 0.07100  0.96350  0.96730  Biso   1.000  H
  H70      1.0000 0.42900  0.03650  0.46730  Biso   1.000  H
  H71      1.0000 0.92900  0.46350  0.53270  Biso   1.000  H
  H72      1.0000 0.57100  0.53650  0.03270  Biso   1.000  H
  C121     1.0000 0.13940  0.99980  0.06626  Biso   1.000  C
  C122     1.0000 0.36060  0.00020  0.56626  Biso   1.000  C
  C123     1.0000 0.86060  0.49980  0.43374  Biso   1.000  C
  C124     1.0000 0.63940  0.50020  0.93374  Biso   1.000  C
  C125     1.0000 0.86060  0.00020  0.93374  Biso   1.000  C
  C126     1.0000 0.63940  0.99980  0.43374  Biso   1.000  C
  C127     1.0000 0.13940  0.50020  0.56626  Biso   1.000  C
  C128     1.0000 0.36060  0.49980  0.06626  Biso   1.000  C
  H73      1.0000 0.15290  0.95650  0.05030  Biso   1.000  H
  H74      1.0000 0.34710  0.04350  0.55030  Biso   1.000  H
  H75      1.0000 0.84710  0.45650  0.44970  Biso   1.000  H
  H76      1.0000 0.65290  0.54350  0.94970  Biso   1.000  H
  H77      1.0000 0.84710  0.04350  0.94970  Biso   1.000  H
  H78      1.0000 0.65290  0.95650  0.44970  Biso   1.000  H
  H79      1.0000 0.15290  0.54350  0.55030  Biso   1.000  H
  H80      1.0000 0.34710  0.45650  0.05030  Biso   1.000  H
  C129     1.0000 0.25230  0.01580  0.09997  Biso   1.000  C
  C130     1.0000 0.24770  0.98420  0.59997  Biso   1.000  C
  C131     1.0000 0.74770  0.51580  0.40003  Biso   1.000  C
  C132     1.0000 0.75230  0.48420  0.90003  Biso   1.000  C
  C133     1.0000 0.74770  0.98420  0.90003  Biso   1.000  C
  C134     1.0000 0.75230  0.01580  0.40003  Biso   1.000  C
  C135     1.0000 0.25230  0.48420  0.59997  Biso   1.000  C
  C136     1.0000 0.24770  0.51580  0.09997  Biso   1.000  C
  H81      1.0000 0.34270  0.98330  0.10700  Biso   1.000  H
  H82      1.0000 0.15730  0.01670  0.60700  Biso   1.000  H
  H83      1.0000 0.65730  0.48330  0.39300  Biso   1.000  H
  H84      1.0000 0.84270  0.51670  0.89300  Biso   1.000  H
  H85      1.0000 0.65730  0.01670  0.89300  Biso   1.000  H
  H86      1.0000 0.84270  0.98330  0.39300  Biso   1.000  H
  H87      1.0000 0.34270  0.51670  0.60700  Biso   1.000  H
  H88      1.0000 0.15730  0.48330  0.10700  Biso   1.000  H
  C137     1.0000 0.23350  0.07960  0.12366  Biso   1.000  C
  C138     1.0000 0.26650  0.92040  0.62366  Biso   1.000  C
  C139     1.0000 0.76650  0.57960  0.37634  Biso   1.000  C
  C140     1.0000 0.73350  0.42040  0.87634  Biso   1.000  C
  C141     1.0000 0.76650  0.92040  0.87634  Biso   1.000  C
  C142     1.0000 0.73350  0.07960  0.37634  Biso   1.000  C
  C143     1.0000 0.23350  0.42040  0.62366  Biso   1.000  C
  C144     1.0000 0.26650  0.57960  0.12366  Biso   1.000  C
  H89      1.0000 0.31220  0.09010  0.14650  Biso   1.000  H
  H90      1.0000 0.18780  0.90990  0.64650  Biso   1.000  H
  H91      1.0000 0.68780  0.59010  0.35350  Biso   1.000  H
  H92      1.0000 0.81220  0.40990  0.85350  Biso   1.000  H
  H93      1.0000 0.68780  0.90990  0.85350  Biso   1.000  H
  H94      1.0000 0.81220  0.09010  0.35350  Biso   1.000  H
  H95      1.0000 0.31220  0.40990  0.64650  Biso   1.000  H
  H96      1.0000 0.18780  0.59010  0.14650  Biso   1.000  H
  C145     1.0000 0.15190  0.30610  0.00780  Biso   1.000  C
  C146     1.0000 0.34810  0.69390  0.50780  Biso   1.000  C
  C147     1.0000 0.84810  0.80610  0.49220  Biso   1.000  C
  C148     1.0000 0.65190  0.19390  0.99220  Biso   1.000  C
  C149     1.0000 0.84810  0.69390  0.99220  Biso   1.000  C
  C150     1.0000 0.65190  0.30610  0.49220  Biso   1.000  C
  C151     1.0000 0.15190  0.19390  0.50780  Biso   1.000  C
  C152     1.0000 0.34810  0.80610  0.00780  Biso   1.000  C
  H97      1.0000 0.23600  0.29150  0.98710  Biso   1.000  H
  H98      1.0000 0.26400  0.70850  0.48710  Biso   1.000  H
  H99      1.0000 0.76400  0.79150  0.51290  Biso   1.000  H
  H100     1.0000 0.73600  0.20850  0.01290  Biso   1.000  H
  H101     1.0000 0.76400  0.70850  0.01290  Biso   1.000  H
  H102     1.0000 0.73600  0.29150  0.51290  Biso   1.000  H
  H103     1.0000 0.23600  0.20850  0.48710  Biso   1.000  H
  H104     1.0000 0.26400  0.79150  0.98710  Biso   1.000  H
  C153     1.0000 0.90140  0.34680  0.06836  Biso   1.000  C
  C154     1.0000 0.59860  0.65320  0.56836  Biso   1.000  C
  C155     1.0000 0.09860  0.84680  0.43164  Biso   1.000  C
  C156     1.0000 0.40140  0.15320  0.93164  Biso   1.000  C
  C157     1.0000 0.09860  0.65320  0.93164  Biso   1.000  C
  C158     1.0000 0.40140  0.34680  0.43164  Biso   1.000  C
  C159     1.0000 0.90140  0.15320  0.56836  Biso   1.000  C
  C160     1.0000 0.59860  0.84680  0.06836  Biso   1.000  C
  H105     1.0000 0.81510  0.36080  0.08860  Biso   1.000  H
  H106     1.0000 0.68490  0.63920  0.58860  Biso   1.000  H
  H107     1.0000 0.18490  0.86080  0.41140  Biso   1.000  H
  H108     1.0000 0.31510  0.13920  0.91140  Biso   1.000  H
  H109     1.0000 0.18490  0.63920  0.91140  Biso   1.000  H
  H110     1.0000 0.31510  0.36080  0.41140  Biso   1.000  H
  H111     1.0000 0.81510  0.13920  0.58860  Biso   1.000  H
  H112     1.0000 0.68490  0.86080  0.08860  Biso   1.000  H
  C161     1.0000 0.02590  0.35600  0.99620  Biso   1.000  C
  C162     1.0000 0.47410  0.64400  0.49620  Biso   1.000  C
  C163     1.0000 0.97410  0.85600  0.50380  Biso   1.000  C
  C164     1.0000 0.52590  0.14400  0.00380  Biso   1.000  C
  C165     1.0000 0.97410  0.64400  0.00380  Biso   1.000  C
  C166     1.0000 0.52590  0.35600  0.50380  Biso   1.000  C
  C167     1.0000 0.02590  0.14400  0.49620  Biso   1.000  C
  C168     1.0000 0.47410  0.85600  0.99620  Biso   1.000  C
  H113     1.0000 0.02550  0.37600  0.96780  Biso   1.000  H
  H114     1.0000 0.47450  0.62400  0.46780  Biso   1.000  H
  H115     1.0000 0.97450  0.87600  0.53220  Biso   1.000  H
  H116     1.0000 0.52550  0.12400  0.03220  Biso   1.000  H
  H117     1.0000 0.97450  0.62400  0.03220  Biso   1.000  H
  H118     1.0000 0.52550  0.37600  0.53220  Biso   1.000  H
  H119     1.0000 0.02550  0.12400  0.46780  Biso   1.000  H
  H120     1.0000 0.47450  0.87600  0.96780  Biso   1.000  H
  O17      1.0000 0.90360  0.45624  0.16459  Biso   1.000  O
  O18      1.0000 0.59640  0.54376  0.66459  Biso   1.000  O
  O19      1.0000 0.09640  0.95624  0.33541  Biso   1.000  O
  O20      1.0000 0.40360  0.04376  0.83541  Biso   1.000  O
  O21      1.0000 0.09640  0.54376  0.83541  Biso   1.000  O
  O22      1.0000 0.40360  0.45624  0.33541  Biso   1.000  O
  O23      1.0000 0.90360  0.04376  0.66459  Biso   1.000  O
  O24      1.0000 0.59640  0.95624  0.16459  Biso   1.000  O
  O25      1.0000 0.23140  0.99010  0.35941  Biso   1.000  O
  O26      1.0000 0.26860  0.00990  0.85941  Biso   1.000  O
  O27      1.0000 0.76860  0.49010  0.14059  Biso   1.000  O
  O28      1.0000 0.73140  0.50990  0.64059  Biso   1.000  O
  O29      1.0000 0.76860  0.00990  0.64059  Biso   1.000  O
  O30      1.0000 0.73140  0.99010  0.14059  Biso   1.000  O
  O31      1.0000 0.23140  0.50990  0.85941  Biso   1.000  O
  O32      1.0000 0.26860  0.49010  0.35941  Biso   1.000  O
