data_image0
_cell_length_a       11.434
_cell_length_b       12.253
_cell_length_c       15.3806
_cell_angle_alpha    90
_cell_angle_beta     90
_cell_angle_gamma    90

_symmetry_space_group_name_H-M    "P 1"
_symmetry_int_tables_number       1

loop_
  _symmetry_equiv_pos_as_xyz
  'x, y, z'

loop_
  _atom_site_label
  _atom_site_occupancy
  _atom_site_fract_x
  _atom_site_fract_y
  _atom_site_fract_z
  _atom_site_thermal_displace_type
  _atom_site_B_iso_or_equiv
  _atom_site_type_symbol
  Cu1      1.0000 0.44386  0.58247  0.28065  Biso   1.000  Cu
  Cu2      1.0000 0.05614  0.41753  0.78065  Biso   1.000  Cu
  Cu3      1.0000 0.55614  0.08247  0.21935  Biso   1.000  Cu
  Cu4      1.0000 0.94386  0.91753  0.71935  Biso   1.000  Cu
  Cu5      1.0000 0.55614  0.41753  0.71935  Biso   1.000  Cu
  Cu6      1.0000 0.94386  0.58247  0.21935  Biso   1.000  Cu
  Cu7      1.0000 0.44386  0.91753  0.78065  Biso   1.000  Cu
  Cu8      1.0000 0.05614  0.08247  0.28065  Biso   1.000  Cu
  N1       1.0000 0.42996  0.45592  0.37017  Biso   1.000  N
  N2       1.0000 0.07004  0.54408  0.87017  Biso   1.000  N
  N3       1.0000 0.57004  0.95592  0.12983  Biso   1.000  N
  N4       1.0000 0.92996  0.04408  0.62983  Biso   1.000  N
  N5       1.0000 0.57004  0.54408  0.62983  Biso   1.000  N
  N6       1.0000 0.92996  0.45592  0.12983  Biso   1.000  N
  N7       1.0000 0.42996  0.04408  0.87017  Biso   1.000  N
  N8       1.0000 0.07004  0.95592  0.37017  Biso   1.000  N
  N9       1.0000 0.42490  0.01317  0.66651  Biso   1.000  N
  N10      1.0000 0.07510  0.98683  0.16651  Biso   1.000  N
  N11      1.0000 0.57510  0.51317  0.83349  Biso   1.000  N
  N12      1.0000 0.92490  0.48683  0.33349  Biso   1.000  N
  N13      1.0000 0.57510  0.98683  0.33349  Biso   1.000  N
  N14      1.0000 0.92490  0.01317  0.83349  Biso   1.000  N
  N15      1.0000 0.42490  0.48683  0.16651  Biso   1.000  N
  N16      1.0000 0.07510  0.51317  0.66651  Biso   1.000  N
  C1       1.0000 0.36800  0.46010  0.44384  Biso   1.000  C
  C2       1.0000 0.13200  0.53990  0.94384  Biso   1.000  C
  C3       1.0000 0.63200  0.96010  0.05616  Biso   1.000  C
  C4       1.0000 0.86800  0.03990  0.55616  Biso   1.000  C
  C5       1.0000 0.63200  0.53990  0.55616  Biso   1.000  C
  C6       1.0000 0.86800  0.46010  0.05616  Biso   1.000  C
  C7       1.0000 0.36800  0.03990  0.94384  Biso   1.000  C
  C8       1.0000 0.13200  0.96010  0.44384  Biso   1.000  C
  H1       1.0000 0.32520  0.52470  0.45610  Biso   1.000  H
  H2       1.0000 0.17480  0.47530  0.95610  Biso   1.000  H
  H3       1.0000 0.67480  0.02470  0.04390  Biso   1.000  H
  H4       1.0000 0.82520  0.97530  0.54390  Biso   1.000  H
  H5       1.0000 0.67480  0.47530  0.54390  Biso   1.000  H
  H6       1.0000 0.82520  0.52470  0.04390  Biso   1.000  H
  H7       1.0000 0.32520  0.97530  0.95610  Biso   1.000  H
  H8       1.0000 0.17480  0.02470  0.45610  Biso   1.000  H
  C9       1.0000 0.36310  0.37570  0.50299  Biso   1.000  C
  C10      1.0000 0.13690  0.62430  0.00299  Biso   1.000  C
  C11      1.0000 0.63690  0.87570  0.99701  Biso   1.000  C
  C12      1.0000 0.86310  0.12430  0.49701  Biso   1.000  C
  C13      1.0000 0.63690  0.62430  0.49701  Biso   1.000  C
  C14      1.0000 0.86310  0.37570  0.99701  Biso   1.000  C
  C15      1.0000 0.36310  0.12430  0.00299  Biso   1.000  C
  C16      1.0000 0.13690  0.87570  0.50299  Biso   1.000  C
  H9       1.0000 0.31760  0.38250  0.55440  Biso   1.000  H
  H10      1.0000 0.18240  0.61750  0.05440  Biso   1.000  H
  H11      1.0000 0.68240  0.88250  0.94560  Biso   1.000  H
  H12      1.0000 0.81760  0.11750  0.44560  Biso   1.000  H
  H13      1.0000 0.68240  0.61750  0.44560  Biso   1.000  H
  H14      1.0000 0.81760  0.38250  0.94560  Biso   1.000  H
  H15      1.0000 0.31760  0.11750  0.05440  Biso   1.000  H
  H16      1.0000 0.18240  0.88250  0.55440  Biso   1.000  H
  C17      1.0000 0.42520  0.28060  0.48664  Biso   1.000  C
  C18      1.0000 0.07480  0.71940  0.98664  Biso   1.000  C
  C19      1.0000 0.57480  0.78060  0.01336  Biso   1.000  C
  C20      1.0000 0.92520  0.21940  0.51336  Biso   1.000  C
  C21      1.0000 0.57480  0.71940  0.51336  Biso   1.000  C
  C22      1.0000 0.92520  0.28060  0.01336  Biso   1.000  C
  C23      1.0000 0.42520  0.21940  0.98664  Biso   1.000  C
  C24      1.0000 0.07480  0.78060  0.48664  Biso   1.000  C
  C25      1.0000 0.49020  0.27620  0.41074  Biso   1.000  C
  C26      1.0000 0.00980  0.72380  0.91074  Biso   1.000  C
  C27      1.0000 0.50980  0.77620  0.08926  Biso   1.000  C
  C28      1.0000 0.99020  0.22380  0.58926  Biso   1.000  C
  C29      1.0000 0.50980  0.72380  0.58926  Biso   1.000  C
  C30      1.0000 0.99020  0.27620  0.08926  Biso   1.000  C
  C31      1.0000 0.49020  0.22380  0.91074  Biso   1.000  C
  C32      1.0000 0.00980  0.77620  0.41074  Biso   1.000  C
  H17      1.0000 0.53500  0.21320  0.39720  Biso   1.000  H
  H18      1.0000 0.96500  0.78680  0.89720  Biso   1.000  H
  H19      1.0000 0.46500  0.71320  0.10280  Biso   1.000  H
  H20      1.0000 0.03500  0.28680  0.60280  Biso   1.000  H
  H21      1.0000 0.46500  0.78680  0.60280  Biso   1.000  H
  H22      1.0000 0.03500  0.21320  0.10280  Biso   1.000  H
  H23      1.0000 0.53500  0.28680  0.89720  Biso   1.000  H
  H24      1.0000 0.96500  0.71320  0.39720  Biso   1.000  H
  C33      1.0000 0.48920  0.36410  0.35506  Biso   1.000  C
  C34      1.0000 0.01080  0.63590  0.85506  Biso   1.000  C
  C35      1.0000 0.51080  0.86410  0.14494  Biso   1.000  C
  C36      1.0000 0.98920  0.13590  0.64494  Biso   1.000  C
  C37      1.0000 0.51080  0.63590  0.64494  Biso   1.000  C
  C38      1.0000 0.98920  0.36410  0.14494  Biso   1.000  C
  C39      1.0000 0.48920  0.13590  0.85506  Biso   1.000  C
  C40      1.0000 0.01080  0.86410  0.35506  Biso   1.000  C
  H25      1.0000 0.53320  0.35910  0.30280  Biso   1.000  H
  H26      1.0000 0.96680  0.64090  0.80280  Biso   1.000  H
  H27      1.0000 0.46680  0.85910  0.19720  Biso   1.000  H
  H28      1.0000 0.03320  0.14090  0.69720  Biso   1.000  H
  H29      1.0000 0.46680  0.64090  0.69720  Biso   1.000  H
  H30      1.0000 0.03320  0.35910  0.19720  Biso   1.000  H
  H31      1.0000 0.53320  0.14090  0.80280  Biso   1.000  H
  H32      1.0000 0.96680  0.85910  0.30280  Biso   1.000  H
  C41      1.0000 0.42360  0.18673  0.54777  Biso   1.000  C
  C42      1.0000 0.07640  0.81327  0.04777  Biso   1.000  C
  C43      1.0000 0.57640  0.68673  0.95223  Biso   1.000  C
  C44      1.0000 0.92360  0.31327  0.45223  Biso   1.000  C
  C45      1.0000 0.57640  0.81327  0.45223  Biso   1.000  C
  C46      1.0000 0.92360  0.18673  0.95223  Biso   1.000  C
  C47      1.0000 0.42360  0.31327  0.04777  Biso   1.000  C
  C48      1.0000 0.07640  0.68673  0.54777  Biso   1.000  C
  C49      1.0000 0.32410  0.15730  0.59312  Biso   1.000  C
  C50      1.0000 0.17590  0.84270  0.09312  Biso   1.000  C
  C51      1.0000 0.67590  0.65730  0.90688  Biso   1.000  C
  C52      1.0000 0.82410  0.34270  0.40688  Biso   1.000  C
  C53      1.0000 0.67590  0.84270  0.40688  Biso   1.000  C
  C54      1.0000 0.82410  0.15730  0.90688  Biso   1.000  C
  C55      1.0000 0.32410  0.34270  0.09312  Biso   1.000  C
  C56      1.0000 0.17590  0.65730  0.59312  Biso   1.000  C
  H33      1.0000 0.25320  0.19630  0.58450  Biso   1.000  H
  H34      1.0000 0.24680  0.80370  0.08450  Biso   1.000  H
  H35      1.0000 0.74680  0.69630  0.91550  Biso   1.000  H
  H36      1.0000 0.75320  0.30370  0.41550  Biso   1.000  H
  H37      1.0000 0.74680  0.80370  0.41550  Biso   1.000  H
  H38      1.0000 0.75320  0.19630  0.91550  Biso   1.000  H
  H39      1.0000 0.25320  0.30370  0.08450  Biso   1.000  H
  H40      1.0000 0.24680  0.69630  0.58450  Biso   1.000  H
  C57      1.0000 0.32800  0.07110  0.65107  Biso   1.000  C
  C58      1.0000 0.17200  0.92890  0.15107  Biso   1.000  C
  C59      1.0000 0.67200  0.57110  0.84893  Biso   1.000  C
  C60      1.0000 0.82800  0.42890  0.34893  Biso   1.000  C
  C61      1.0000 0.67200  0.92890  0.34893  Biso   1.000  C
  C62      1.0000 0.82800  0.07110  0.84893  Biso   1.000  C
  C63      1.0000 0.32800  0.42890  0.15107  Biso   1.000  C
  C64      1.0000 0.17200  0.57110  0.65107  Biso   1.000  C
  H41      1.0000 0.25850  0.05210  0.68130  Biso   1.000  H
  H42      1.0000 0.24150  0.94790  0.18130  Biso   1.000  H
  H43      1.0000 0.74150  0.55210  0.81870  Biso   1.000  H
  H44      1.0000 0.75850  0.44790  0.31870  Biso   1.000  H
  H45      1.0000 0.74150  0.94790  0.31870  Biso   1.000  H
  H46      1.0000 0.75850  0.05210  0.81870  Biso   1.000  H
  H47      1.0000 0.25850  0.44790  0.18130  Biso   1.000  H
  H48      1.0000 0.24150  0.55210  0.68130  Biso   1.000  H
  C65      1.0000 0.52070  0.04080  0.62150  Biso   1.000  C
  C66      1.0000 0.97930  0.95920  0.12150  Biso   1.000  C
  C67      1.0000 0.47930  0.54080  0.87850  Biso   1.000  C
  C68      1.0000 0.02070  0.45920  0.37850  Biso   1.000  C
  C69      1.0000 0.47930  0.95920  0.37850  Biso   1.000  C
  C70      1.0000 0.02070  0.04080  0.87850  Biso   1.000  C
  C71      1.0000 0.52070  0.45920  0.12150  Biso   1.000  C
  C72      1.0000 0.97930  0.54080  0.62150  Biso   1.000  C
  H49      1.0000 0.59020  0.99990  0.63080  Biso   1.000  H
  H50      1.0000 0.90980  0.00010  0.13080  Biso   1.000  H
  H51      1.0000 0.40980  0.49990  0.86920  Biso   1.000  H
  H52      1.0000 0.09020  0.50010  0.36920  Biso   1.000  H
  H53      1.0000 0.40980  0.00010  0.36920  Biso   1.000  H
  H54      1.0000 0.09020  0.99990  0.86920  Biso   1.000  H
  H55      1.0000 0.59020  0.50010  0.13080  Biso   1.000  H
  H56      1.0000 0.90980  0.49990  0.63080  Biso   1.000  H
  C73      1.0000 0.52380  0.12550  0.56241  Biso   1.000  C
  C74      1.0000 0.97620  0.87450  0.06241  Biso   1.000  C
  C75      1.0000 0.47620  0.62550  0.93759  Biso   1.000  C
  C76      1.0000 0.02380  0.37450  0.43759  Biso   1.000  C
  C77      1.0000 0.47620  0.87450  0.43759  Biso   1.000  C
  C78      1.0000 0.02380  0.12550  0.93759  Biso   1.000  C
  C79      1.0000 0.52380  0.37450  0.06241  Biso   1.000  C
  C80      1.0000 0.97620  0.62550  0.56241  Biso   1.000  C
  H57      1.0000 0.59390  0.14170  0.53200  Biso   1.000  H
  H58      1.0000 0.90610  0.85830  0.03200  Biso   1.000  H
  H59      1.0000 0.40610  0.64170  0.96800  Biso   1.000  H
  H60      1.0000 0.09390  0.35830  0.46800  Biso   1.000  H
  H61      1.0000 0.40610  0.85830  0.46800  Biso   1.000  H
  H62      1.0000 0.09390  0.14170  0.96800  Biso   1.000  H
  H63      1.0000 0.59390  0.35830  0.03200  Biso   1.000  H
  H64      1.0000 0.90610  0.64170  0.53200  Biso   1.000  H
  N17      1.0000 0.60660  0.63210  0.26898  Biso   1.000  N
  N18      1.0000 0.89340  0.36790  0.76898  Biso   1.000  N
  N19      1.0000 0.39340  0.13210  0.23102  Biso   1.000  N
  N20      1.0000 0.10660  0.86790  0.73102  Biso   1.000  N
  N21      1.0000 0.39340  0.36790  0.73102  Biso   1.000  N
  N22      1.0000 0.10660  0.63210  0.23102  Biso   1.000  N
  N23      1.0000 0.60660  0.86790  0.76898  Biso   1.000  N
  N24      1.0000 0.89340  0.13210  0.26898  Biso   1.000  N
  C81      1.0000 0.69150  0.66520  0.23866  Biso   1.000  C
  C82      1.0000 0.80850  0.33480  0.73866  Biso   1.000  C
  C83      1.0000 0.30850  0.16520  0.26134  Biso   1.000  C
  C84      1.0000 0.19150  0.83480  0.76134  Biso   1.000  C
  C85      1.0000 0.30850  0.33480  0.76134  Biso   1.000  C
  C86      1.0000 0.19150  0.66520  0.26134  Biso   1.000  C
  C87      1.0000 0.69150  0.83480  0.73866  Biso   1.000  C
  C88      1.0000 0.80850  0.16520  0.23866  Biso   1.000  C
  S1       1.0000 0.81061  0.71667  0.19394  Biso   1.000  S
  S2       1.0000 0.68939  0.28333  0.69394  Biso   1.000  S
  S3       1.0000 0.18939  0.21667  0.30606  Biso   1.000  S
  S4       1.0000 0.31061  0.78333  0.80606  Biso   1.000  S
  S5       1.0000 0.18939  0.28333  0.80606  Biso   1.000  S
  S6       1.0000 0.31061  0.71667  0.30606  Biso   1.000  S
  S7       1.0000 0.81061  0.78333  0.69394  Biso   1.000  S
  S8       1.0000 0.68939  0.21667  0.19394  Biso   1.000  S
