data_image0
_cell_length_a       11.4183
_cell_length_b       17.1126
_cell_length_c       12.1536
_cell_angle_alpha    90
_cell_angle_beta     91.048
_cell_angle_gamma    90

_symmetry_space_group_name_H-M    "P 1"
_symmetry_int_tables_number       1

loop_
  _symmetry_equiv_pos_as_xyz
  'x, y, z'

loop_
  _atom_site_label
  _atom_site_occupancy
  _atom_site_fract_x
  _atom_site_fract_y
  _atom_site_fract_z
  _atom_site_thermal_displace_type
  _atom_site_B_iso_or_equiv
  _atom_site_type_symbol
  Cu1      1.0000 0.10061  0.01616  0.41484  Biso   1.000  Cu
  Cu2      1.0000 0.39939  0.51616  0.08516  Biso   1.000  Cu
  Cu3      1.0000 0.89939  0.98384  0.58516  Biso   1.000  Cu
  Cu4      1.0000 0.60061  0.48384  0.91484  Biso   1.000  Cu
  I1       1.0000 0.03658  0.11022  0.57573  Biso   1.000  I
  I2       1.0000 0.46342  0.61022  0.92427  Biso   1.000  I
  I3       1.0000 0.96342  0.88978  0.42427  Biso   1.000  I
  I4       1.0000 0.53658  0.38978  0.07573  Biso   1.000  I
  S1       1.0000 0.28949  0.97369  0.46702  Biso   1.000  S
  S2       1.0000 0.21051  0.47369  0.03298  Biso   1.000  S
  S3       1.0000 0.71051  0.02631  0.53298  Biso   1.000  S
  S4       1.0000 0.78949  0.52631  0.96702  Biso   1.000  S
  S5       1.0000 0.39566  0.58706  0.24648  Biso   1.000  S
  S6       1.0000 0.10434  0.08706  0.25352  Biso   1.000  S
  S7       1.0000 0.60434  0.41294  0.75352  Biso   1.000  S
  S8       1.0000 0.89566  0.91294  0.74648  Biso   1.000  S
  O1       1.0000 0.28640  0.79351  0.64480  Biso   1.000  O
  O2       1.0000 0.21360  0.29351  0.85520  Biso   1.000  O
  O3       1.0000 0.71360  0.20649  0.35520  Biso   1.000  O
  O4       1.0000 0.78640  0.70649  0.14480  Biso   1.000  O
  O5       1.0000 0.26870  0.56981  0.50180  Biso   1.000  O
  O6       1.0000 0.23130  0.06981  0.99820  Biso   1.000  O
  O7       1.0000 0.73130  0.43019  0.49820  Biso   1.000  O
  O8       1.0000 0.76870  0.93019  0.00180  Biso   1.000  O
  C1       1.0000 0.29730  0.71000  0.63790  Biso   1.000  C
  C2       1.0000 0.20270  0.21000  0.86210  Biso   1.000  C
  C3       1.0000 0.70270  0.29000  0.36210  Biso   1.000  C
  C4       1.0000 0.79730  0.79000  0.13790  Biso   1.000  C
  H1       1.0000 0.30760  0.68700  0.71220  Biso   1.000  H
  H2       1.0000 0.19240  0.18700  0.78780  Biso   1.000  H
  H3       1.0000 0.69240  0.31300  0.28780  Biso   1.000  H
  H4       1.0000 0.80760  0.81300  0.21220  Biso   1.000  H
  H5       1.0000 0.36540  0.69550  0.59300  Biso   1.000  H
  H6       1.0000 0.13460  0.19550  0.90700  Biso   1.000  H
  H7       1.0000 0.63460  0.30450  0.40700  Biso   1.000  H
  H8       1.0000 0.86540  0.80450  0.09300  Biso   1.000  H
  C5       1.0000 0.18490  0.68140  0.58430  Biso   1.000  C
  C6       1.0000 0.31510  0.18140  0.91570  Biso   1.000  C
  C7       1.0000 0.81510  0.31860  0.41570  Biso   1.000  C
  C8       1.0000 0.68490  0.81860  0.08430  Biso   1.000  C
  H9       1.0000 0.11810  0.69990  0.62810  Biso   1.000  H
  H10      1.0000 0.38190  0.19990  0.87190  Biso   1.000  H
  H11      1.0000 0.88190  0.30010  0.37190  Biso   1.000  H
  H12      1.0000 0.61810  0.80010  0.12810  Biso   1.000  H
  H13      1.0000 0.17720  0.70490  0.51010  Biso   1.000  H
  H14      1.0000 0.32280  0.20490  0.98990  Biso   1.000  H
  H15      1.0000 0.82280  0.29510  0.48990  Biso   1.000  H
  H16      1.0000 0.67720  0.79510  0.01010  Biso   1.000  H
  C9       1.0000 0.17750  0.59400  0.57360  Biso   1.000  C
  C10      1.0000 0.32250  0.09400  0.92640  Biso   1.000  C
  C11      1.0000 0.82250  0.40600  0.42640  Biso   1.000  C
  C12      1.0000 0.67750  0.90600  0.07360  Biso   1.000  C
  H17      1.0000 0.18790  0.56910  0.64670  Biso   1.000  H
  H18      1.0000 0.31210  0.06910  0.85330  Biso   1.000  H
  H19      1.0000 0.81210  0.43090  0.35330  Biso   1.000  H
  H20      1.0000 0.68790  0.93090  0.14670  Biso   1.000  H
  H21      1.0000 0.10010  0.57860  0.54270  Biso   1.000  H
  H22      1.0000 0.39990  0.07860  0.95730  Biso   1.000  H
  H23      1.0000 0.89990  0.42140  0.45730  Biso   1.000  H
  H24      1.0000 0.60010  0.92140  0.04270  Biso   1.000  H
  C13      1.0000 0.27080  0.49260  0.47110  Biso   1.000  C
  C14      1.0000 0.22920  0.99260  0.02890  Biso   1.000  C
  C15      1.0000 0.72920  0.50740  0.52890  Biso   1.000  C
  C16      1.0000 0.77080  0.00740  0.97110  Biso   1.000  C
  C17      1.0000 0.18980  0.43650  0.50560  Biso   1.000  C
  C18      1.0000 0.31020  0.93650  0.99440  Biso   1.000  C
  C19      1.0000 0.81020  0.56350  0.49440  Biso   1.000  C
  C20      1.0000 0.68980  0.06350  0.00560  Biso   1.000  C
  H25      1.0000 0.12950  0.45050  0.55470  Biso   1.000  H
  H26      1.0000 0.37050  0.95050  0.94530  Biso   1.000  H
  H27      1.0000 0.87050  0.54950  0.44530  Biso   1.000  H
  H28      1.0000 0.62950  0.04950  0.05470  Biso   1.000  H
  C21      1.0000 0.19860  0.36100  0.46740  Biso   1.000  C
  C22      1.0000 0.30140  0.86100  0.03260  Biso   1.000  C
  C23      1.0000 0.80140  0.63900  0.53260  Biso   1.000  C
  C24      1.0000 0.69860  0.13900  0.96740  Biso   1.000  C
  H29      1.0000 0.14280  0.32310  0.48940  Biso   1.000  H
  H30      1.0000 0.35720  0.82310  0.01060  Biso   1.000  H
  H31      1.0000 0.85720  0.67690  0.51060  Biso   1.000  H
  H32      1.0000 0.64280  0.17690  0.98940  Biso   1.000  H
  C25      1.0000 0.28630  0.33970  0.39860  Biso   1.000  C
  C26      1.0000 0.21370  0.83970  0.10140  Biso   1.000  C
  C27      1.0000 0.71370  0.66030  0.60140  Biso   1.000  C
  C28      1.0000 0.78630  0.16030  0.89860  Biso   1.000  C
  H33      1.0000 0.29110  0.28740  0.37290  Biso   1.000  H
  H34      1.0000 0.20890  0.78740  0.12710  Biso   1.000  H
  H35      1.0000 0.70890  0.71260  0.62710  Biso   1.000  H
  H36      1.0000 0.79110  0.21260  0.87290  Biso   1.000  H
  C29      1.0000 0.36830  0.39450  0.36620  Biso   1.000  C
  C30      1.0000 0.13170  0.89450  0.13380  Biso   1.000  C
  C31      1.0000 0.63170  0.60550  0.63380  Biso   1.000  C
  C32      1.0000 0.86830  0.10550  0.86620  Biso   1.000  C
  H37      1.0000 0.43000  0.37920  0.31940  Biso   1.000  H
  H38      1.0000 0.07000  0.87920  0.18060  Biso   1.000  H
  H39      1.0000 0.57000  0.62080  0.68060  Biso   1.000  H
  H40      1.0000 0.93000  0.12080  0.81940  Biso   1.000  H
  C33      1.0000 0.36140  0.47170  0.40120  Biso   1.000  C
  C34      1.0000 0.13860  0.97170  0.09880  Biso   1.000  C
  C35      1.0000 0.63860  0.52830  0.59880  Biso   1.000  C
  C36      1.0000 0.86140  0.02830  0.90120  Biso   1.000  C
  C37      1.0000 0.45040  0.53130  0.36480  Biso   1.000  C
  C38      1.0000 0.04960  0.03130  0.13520  Biso   1.000  C
  C39      1.0000 0.54960  0.46870  0.63520  Biso   1.000  C
  C40      1.0000 0.95040  0.96870  0.86480  Biso   1.000  C
  H41      1.0000 0.52380  0.50430  0.34520  Biso   1.000  H
  H42      1.0000 0.97620  0.00430  0.15480  Biso   1.000  H
  H43      1.0000 0.47620  0.49570  0.65480  Biso   1.000  H
  H44      1.0000 0.02380  0.99570  0.84520  Biso   1.000  H
  H45      1.0000 0.46840  0.56750  0.42640  Biso   1.000  H
  H46      1.0000 0.03160  0.06750  0.07360  Biso   1.000  H
  H47      1.0000 0.53160  0.43250  0.57360  Biso   1.000  H
  H48      1.0000 0.96840  0.93250  0.92640  Biso   1.000  H
  C41      1.0000 0.51410  0.65760  0.23710  Biso   1.000  C
  C42      1.0000 0.98590  0.15760  0.26290  Biso   1.000  C
  C43      1.0000 0.48590  0.34240  0.76290  Biso   1.000  C
  C44      1.0000 0.01410  0.84240  0.73710  Biso   1.000  C
  H49      1.0000 0.58910  0.62970  0.24950  Biso   1.000  H
  H50      1.0000 0.91090  0.12970  0.25050  Biso   1.000  H
  H51      1.0000 0.41090  0.37030  0.75050  Biso   1.000  H
  H52      1.0000 0.08910  0.87030  0.74950  Biso   1.000  H
  H53      1.0000 0.51440  0.67850  0.16110  Biso   1.000  H
  H54      1.0000 0.98560  0.17850  0.33890  Biso   1.000  H
  H55      1.0000 0.48560  0.32150  0.83890  Biso   1.000  H
  H56      1.0000 0.01440  0.82150  0.66110  Biso   1.000  H
  C45      1.0000 0.50990  0.72590  0.31600  Biso   1.000  C
  C46      1.0000 0.99010  0.22590  0.18400  Biso   1.000  C
  C47      1.0000 0.49010  0.27410  0.68400  Biso   1.000  C
  C48      1.0000 0.00990  0.77410  0.81600  Biso   1.000  C
  C49      1.0000 0.61260  0.75090  0.36730  Biso   1.000  C
  C50      1.0000 0.88740  0.25090  0.13270  Biso   1.000  C
  C51      1.0000 0.38740  0.24910  0.63270  Biso   1.000  C
  C52      1.0000 0.11260  0.74910  0.86730  Biso   1.000  C
  H57      1.0000 0.68310  0.72230  0.35800  Biso   1.000  H
  H58      1.0000 0.81690  0.22230  0.14200  Biso   1.000  H
  H59      1.0000 0.31690  0.27770  0.64200  Biso   1.000  H
  H60      1.0000 0.18310  0.77770  0.85800  Biso   1.000  H
  C53      1.0000 0.61260  0.81760  0.43240  Biso   1.000  C
  C54      1.0000 0.88740  0.31760  0.06760  Biso   1.000  C
  C55      1.0000 0.38740  0.18240  0.56760  Biso   1.000  C
  C56      1.0000 0.11260  0.68240  0.93240  Biso   1.000  C
  H61      1.0000 0.68310  0.83450  0.46750  Biso   1.000  H
  H62      1.0000 0.81690  0.33450  0.03250  Biso   1.000  H
  H63      1.0000 0.31690  0.16550  0.53250  Biso   1.000  H
  H64      1.0000 0.18310  0.66550  0.96750  Biso   1.000  H
  C57      1.0000 0.51010  0.85960  0.44620  Biso   1.000  C
  C58      1.0000 0.98990  0.35960  0.05380  Biso   1.000  C
  C59      1.0000 0.48990  0.14040  0.55380  Biso   1.000  C
  C60      1.0000 0.01010  0.64040  0.94620  Biso   1.000  C
  H65      1.0000 0.51070  0.90530  0.49070  Biso   1.000  H
  H66      1.0000 0.98930  0.40530  0.00930  Biso   1.000  H
  H67      1.0000 0.48930  0.09470  0.50930  Biso   1.000  H
  H68      1.0000 0.01070  0.59470  0.99070  Biso   1.000  H
  C61      1.0000 0.40720  0.83530  0.39570  Biso   1.000  C
  C62      1.0000 0.09280  0.33530  0.10430  Biso   1.000  C
  C63      1.0000 0.59280  0.16470  0.60430  Biso   1.000  C
  C64      1.0000 0.90720  0.66470  0.89570  Biso   1.000  C
  C65      1.0000 0.40810  0.76820  0.33180  Biso   1.000  C
  C66      1.0000 0.09190  0.26820  0.16820  Biso   1.000  C
  C67      1.0000 0.59190  0.23180  0.66820  Biso   1.000  C
  C68      1.0000 0.90810  0.73180  0.83180  Biso   1.000  C
  H69      1.0000 0.33710  0.75080  0.29790  Biso   1.000  H
  H70      1.0000 0.16290  0.25080  0.20210  Biso   1.000  H
  H71      1.0000 0.66290  0.24920  0.70210  Biso   1.000  H
  H72      1.0000 0.83710  0.74920  0.79790  Biso   1.000  H
  C69      1.0000 0.29110  0.87780  0.40420  Biso   1.000  C
  C70      1.0000 0.20890  0.37780  0.09580  Biso   1.000  C
  C71      1.0000 0.70890  0.12220  0.59580  Biso   1.000  C
  C72      1.0000 0.79110  0.62220  0.90420  Biso   1.000  C
  H73      1.0000 0.23750  0.84390  0.44600  Biso   1.000  H
  H74      1.0000 0.26250  0.34390  0.05400  Biso   1.000  H
  H75      1.0000 0.76250  0.15610  0.55400  Biso   1.000  H
  H76      1.0000 0.73750  0.65610  0.94600  Biso   1.000  H
  H77      1.0000 0.25760  0.88290  0.32890  Biso   1.000  H
  H78      1.0000 0.24240  0.38290  0.17110  Biso   1.000  H
  H79      1.0000 0.74240  0.11710  0.67110  Biso   1.000  H
  H80      1.0000 0.75760  0.61710  0.82890  Biso   1.000  H
  C73      1.0000 0.26690  0.95260  0.61300  Biso   1.000  C
  C74      1.0000 0.23310  0.45260  0.88700  Biso   1.000  C
  C75      1.0000 0.73310  0.04740  0.38700  Biso   1.000  C
  C76      1.0000 0.76690  0.54740  0.11300  Biso   1.000  C
  H81      1.0000 0.24590  0.00180  0.65050  Biso   1.000  H
  H82      1.0000 0.25410  0.50180  0.84950  Biso   1.000  H
  H83      1.0000 0.75410  0.99820  0.34950  Biso   1.000  H
  H84      1.0000 0.74590  0.49820  0.15050  Biso   1.000  H
  H85      1.0000 0.19940  0.91660  0.61900  Biso   1.000  H
  H86      1.0000 0.30060  0.41660  0.88100  Biso   1.000  H
  H87      1.0000 0.80060  0.08340  0.38100  Biso   1.000  H
  H88      1.0000 0.69940  0.58340  0.11900  Biso   1.000  H
  C77      1.0000 0.37010  0.91700  0.67280  Biso   1.000  C
  C78      1.0000 0.12990  0.41700  0.82720  Biso   1.000  C
  C79      1.0000 0.62990  0.08300  0.32720  Biso   1.000  C
  C80      1.0000 0.87010  0.58300  0.17280  Biso   1.000  C
  C81      1.0000 0.46090  0.96320  0.71380  Biso   1.000  C
  C82      1.0000 0.03910  0.46320  0.78620  Biso   1.000  C
  C83      1.0000 0.53910  0.03680  0.28620  Biso   1.000  C
  C84      1.0000 0.96090  0.53680  0.21380  Biso   1.000  C
  H89      1.0000 0.45590  0.01830  0.70560  Biso   1.000  H
  H90      1.0000 0.04410  0.51830  0.79440  Biso   1.000  H
  H91      1.0000 0.54410  0.98170  0.29440  Biso   1.000  H
  H92      1.0000 0.95590  0.48170  0.20560  Biso   1.000  H
  C85      1.0000 0.55780  0.93170  0.76600  Biso   1.000  C
  C86      1.0000 0.94220  0.43170  0.73400  Biso   1.000  C
  C87      1.0000 0.44220  0.06830  0.23400  Biso   1.000  C
  C88      1.0000 0.05780  0.56830  0.26600  Biso   1.000  C
  H93      1.0000 0.61920  0.96440  0.79280  Biso   1.000  H
  H94      1.0000 0.88080  0.46440  0.70720  Biso   1.000  H
  H95      1.0000 0.38080  0.03560  0.20720  Biso   1.000  H
  H96      1.0000 0.11920  0.53560  0.29280  Biso   1.000  H
  C89      1.0000 0.56450  0.85100  0.77890  Biso   1.000  C
  C90      1.0000 0.93550  0.35100  0.72110  Biso   1.000  C
  C91      1.0000 0.43550  0.14900  0.22110  Biso   1.000  C
  C92      1.0000 0.06450  0.64900  0.27890  Biso   1.000  C
  H97      1.0000 0.63150  0.82850  0.81400  Biso   1.000  H
  H98      1.0000 0.86850  0.32850  0.68600  Biso   1.000  H
  H99      1.0000 0.36850  0.17150  0.18600  Biso   1.000  H
  H100     1.0000 0.13150  0.67150  0.31400  Biso   1.000  H
  C93      1.0000 0.47580  0.80330  0.74150  Biso   1.000  C
  C94      1.0000 0.02420  0.30330  0.75850  Biso   1.000  C
  C95      1.0000 0.52420  0.19670  0.25850  Biso   1.000  C
  C96      1.0000 0.97580  0.69670  0.24150  Biso   1.000  C
  H101     1.0000 0.48040  0.74840  0.75260  Biso   1.000  H
  H102     1.0000 0.01960  0.24840  0.74740  Biso   1.000  H
  H103     1.0000 0.51960  0.25160  0.24740  Biso   1.000  H
  H104     1.0000 0.98040  0.75160  0.25260  Biso   1.000  H
  C97      1.0000 0.37860  0.83580  0.68720  Biso   1.000  C
  C98      1.0000 0.12140  0.33580  0.81280  Biso   1.000  C
  C99      1.0000 0.62140  0.16420  0.31280  Biso   1.000  C
  C100     1.0000 0.87860  0.66420  0.18720  Biso   1.000  C
