data_image0
_cell_length_a       8.4742
_cell_length_b       11.0406
_cell_length_c       13.8713
_cell_angle_alpha    105.921
_cell_angle_beta     92.628
_cell_angle_gamma    100.479

_symmetry_space_group_name_H-M    "P 1"
_symmetry_int_tables_number       1

loop_
  _symmetry_equiv_pos_as_xyz
  'x, y, z'

loop_
  _atom_site_label
  _atom_site_occupancy
  _atom_site_fract_x
  _atom_site_fract_y
  _atom_site_fract_z
  _atom_site_thermal_displace_type
  _atom_site_B_iso_or_equiv
  _atom_site_type_symbol
  Cu1      1.0000 0.47561  0.94966  0.38448  Biso   1.000  Cu
  Cu2      1.0000 0.52439  0.05034  0.61552  Biso   1.000  Cu
  I1       1.0000 0.75586  0.04878  0.49041  Biso   1.000  I
  I2       1.0000 0.24414  0.95122  0.50959  Biso   1.000  I
  S1       1.0000 0.41510  0.08502  0.29147  Biso   1.000  S
  S2       1.0000 0.58490  0.91498  0.70853  Biso   1.000  S
  S3       1.0000 0.46060  0.73656  0.28147  Biso   1.000  S
  S4       1.0000 0.53940  0.26344  0.71853  Biso   1.000  S
  O1       1.0000 0.51060  0.24280  0.10910  Biso   1.000  O
  O2       1.0000 0.48940  0.75720  0.89090  Biso   1.000  O
  O3       1.0000 0.62530  0.51050  0.12040  Biso   1.000  O
  O4       1.0000 0.37470  0.48950  0.87960  Biso   1.000  O
  C1       1.0000 0.48140  0.30210  0.03160  Biso   1.000  C
  C2       1.0000 0.51860  0.69790  0.96840  Biso   1.000  C
  H1       1.0000 0.38410  0.33990  0.04320  Biso   1.000  H
  H2       1.0000 0.61590  0.66010  0.95680  Biso   1.000  H
  H3       1.0000 0.46150  0.23630  0.96520  Biso   1.000  H
  H4       1.0000 0.53850  0.76370  0.03480  Biso   1.000  H
  C3       1.0000 0.62420  0.40590  0.03160  Biso   1.000  C
  C4       1.0000 0.37580  0.59410  0.96840  Biso   1.000  C
  H5       1.0000 0.72540  0.37340  0.03290  Biso   1.000  H
  H6       1.0000 0.27460  0.62660  0.96710  Biso   1.000  H
  H7       1.0000 0.61380  0.43460  0.97040  Biso   1.000  H
  H8       1.0000 0.38620  0.56540  0.02960  Biso   1.000  H
  C5       1.0000 0.75950  0.60760  0.14690  Biso   1.000  C
  C6       1.0000 0.24050  0.39240  0.85310  Biso   1.000  C
  C7       1.0000 0.88120  0.62190  0.08380  Biso   1.000  C
  C8       1.0000 0.11880  0.37810  0.91620  Biso   1.000  C
  H9       1.0000 0.87290  0.56440  0.01790  Biso   1.000  H
  H10      1.0000 0.12710  0.43560  0.98210  Biso   1.000  H
  C9       1.0000 0.01460  0.72160  0.11910  Biso   1.000  C
  C10      1.0000 0.98540  0.27840  0.88090  Biso   1.000  C
  H11      1.0000 0.09810  0.73160  0.07680  Biso   1.000  H
  H12      1.0000 0.90190  0.26840  0.92320  Biso   1.000  H
  C11      1.0000 0.02810  0.80540  0.21330  Biso   1.000  C
  C12      1.0000 0.97190  0.19460  0.78670  Biso   1.000  C
  H13      1.0000 0.12050  0.87280  0.23600  Biso   1.000  H
  H14      1.0000 0.87950  0.12720  0.76400  Biso   1.000  H
  C13      1.0000 0.90550  0.79190  0.27660  Biso   1.000  C
  C14      1.0000 0.09450  0.20810  0.72340  Biso   1.000  C
  H15      1.0000 0.91510  0.85030  0.34220  Biso   1.000  H
  H16      1.0000 0.08490  0.14970  0.65780  Biso   1.000  H
  C15      1.0000 0.76990  0.69320  0.24350  Biso   1.000  C
  C16      1.0000 0.23010  0.30680  0.75650  Biso   1.000  C
  C17      1.0000 0.63920  0.67560  0.31100  Biso   1.000  C
  C18      1.0000 0.36080  0.32440  0.68900  Biso   1.000  C
  H17      1.0000 0.68310  0.72060  0.38170  Biso   1.000  H
  H18      1.0000 0.31690  0.27940  0.61830  Biso   1.000  H
  H19      1.0000 0.60620  0.58290  0.30500  Biso   1.000  H
  H20      1.0000 0.39380  0.41710  0.69500  Biso   1.000  H
  C19      1.0000 0.31430  0.65120  0.34570  Biso   1.000  C
  C20      1.0000 0.68570  0.34880  0.65430  Biso   1.000  C
  H21      1.0000 0.35950  0.66970  0.41650  Biso   1.000  H
  H22      1.0000 0.64050  0.33030  0.58350  Biso   1.000  H
  H23      1.0000 0.21550  0.68730  0.34680  Biso   1.000  H
  H24      1.0000 0.78450  0.31270  0.65320  Biso   1.000  H
  C21      1.0000 0.26640  0.50740  0.30160  Biso   1.000  C
  C22      1.0000 0.73360  0.49260  0.69840  Biso   1.000  C
  C23      1.0000 0.15000  0.45530  0.21960  Biso   1.000  C
  C24      1.0000 0.85000  0.54470  0.78040  Biso   1.000  C
  H25      1.0000 0.11040  0.50960  0.18590  Biso   1.000  H
  H26      1.0000 0.88960  0.49040  0.81410  Biso   1.000  H
  C25      1.0000 0.09200  0.32300  0.18710  Biso   1.000  C
  C26      1.0000 0.90800  0.67700  0.81290  Biso   1.000  C
  H27      1.0000 0.01270  0.28720  0.13090  Biso   1.000  H
  H28      1.0000 0.98730  0.71280  0.86910  Biso   1.000  H
  C27      1.0000 0.14790  0.24340  0.23530  Biso   1.000  C
  C28      1.0000 0.85210  0.75660  0.76470  Biso   1.000  C
  H29      1.0000 0.10650  0.15330  0.21240  Biso   1.000  H
  H30      1.0000 0.89350  0.84670  0.78760  Biso   1.000  H
  C29      1.0000 0.26480  0.29400  0.31760  Biso   1.000  C
  C30      1.0000 0.73520  0.70600  0.68240  Biso   1.000  C
  C31      1.0000 0.32410  0.42590  0.34860  Biso   1.000  C
  C32      1.0000 0.67590  0.57410  0.65140  Biso   1.000  C
  H31      1.0000 0.40630  0.46120  0.40330  Biso   1.000  H
  H32      1.0000 0.59370  0.53880  0.59670  Biso   1.000  H
  C33      1.0000 0.32030  0.20600  0.37170  Biso   1.000  C
  C34      1.0000 0.67970  0.79400  0.62830  Biso   1.000  C
  H33      1.0000 0.22650  0.16220  0.39780  Biso   1.000  H
  H34      1.0000 0.77350  0.83780  0.60220  Biso   1.000  H
  H35      1.0000 0.39820  0.25810  0.43010  Biso   1.000  H
  H36      1.0000 0.60180  0.74190  0.56990  Biso   1.000  H
  C35      1.0000 0.60440  0.18640  0.27880  Biso   1.000  C
  C36      1.0000 0.39560  0.81360  0.72120  Biso   1.000  C
  H37      1.0000 0.58700  0.27360  0.28170  Biso   1.000  H
  H38      1.0000 0.41300  0.72640  0.71830  Biso   1.000  H
  H39      1.0000 0.68570  0.19430  0.33490  Biso   1.000  H
  H40      1.0000 0.31430  0.80570  0.66510  Biso   1.000  H
  C37      1.0000 0.66400  0.12760  0.18020  Biso   1.000  C
  C38      1.0000 0.33600  0.87240  0.81980  Biso   1.000  C
  C39      1.0000 0.76040  0.03780  0.17160  Biso   1.000  C
  C40      1.0000 0.23960  0.96220  0.82840  Biso   1.000  C
  H41      1.0000 0.79070  0.01340  0.22930  Biso   1.000  H
  H42      1.0000 0.20930  0.98660  0.77070  Biso   1.000  H
  C41      1.0000 0.81370  0.98240  0.07910  Biso   1.000  C
  C42      1.0000 0.18630  0.01760  0.92090  Biso   1.000  C
  H43      1.0000 0.88100  0.92130  0.07400  Biso   1.000  H
  H44      1.0000 0.11900  0.07870  0.92600  Biso   1.000  H
  C43      1.0000 0.76810  0.01690  0.99500  Biso   1.000  C
  C44      1.0000 0.23190  0.98310  0.00500  Biso   1.000  C
  H45      1.0000 0.80450  0.97950  0.93200  Biso   1.000  H
  H46      1.0000 0.19550  0.02050  0.06800  Biso   1.000  H
  C45      1.0000 0.66870  0.10650  0.00200  Biso   1.000  C
  C46      1.0000 0.33130  0.89350  0.99800  Biso   1.000  C
  H47      1.0000 0.63860  0.13050  0.94410  Biso   1.000  H
  H48      1.0000 0.36140  0.86950  0.05590  Biso   1.000  H
  C47      1.0000 0.61430  0.16030  0.09360  Biso   1.000  C
  C48      1.0000 0.38570  0.83970  0.90640  Biso   1.000  C
  Cl1      1.0000 0.88180  0.51880  0.42760  Biso   1.000  Cl
  Cl2      1.0000 0.11820  0.48120  0.57240  Biso   1.000  Cl
  C49      1.0000 0.97200  0.42300  0.47890  Biso   1.000  C
  C50      1.0000 0.02800  0.57700  0.52110  Biso   1.000  C
  H49      1.0000 0.88550  0.36790  0.50230  Biso   1.000  H
  H50      1.0000 0.11450  0.63210  0.49770  Biso   1.000  H
  H51      1.0000 0.01540  0.36510  0.42320  Biso   1.000  H
  H52      1.0000 0.98460  0.63490  0.57680  Biso   1.000  H
