data_image0
_cell_length_a       15.52
_cell_length_b       15.52
_cell_length_c       19.4176
_cell_angle_alpha    90
_cell_angle_beta     90
_cell_angle_gamma    120

_symmetry_space_group_name_H-M    "P 1"
_symmetry_int_tables_number       1

loop_
  _symmetry_equiv_pos_as_xyz
  'x, y, z'

loop_
  _atom_site_label
  _atom_site_occupancy
  _atom_site_fract_x
  _atom_site_fract_y
  _atom_site_fract_z
  _atom_site_thermal_displace_type
  _atom_site_B_iso_or_equiv
  _atom_site_type_symbol
  I1       1.0000 0.00000  0.00000  0.65562  Biso   1.000  I
  I2       1.0000 0.66667  0.33333  0.98895  Biso   1.000  I
  I3       1.0000 0.33333  0.66667  0.32229  Biso   1.000  I
  I4       1.0000 0.00000  0.00000  0.34438  Biso   1.000  I
  I5       1.0000 0.66667  0.33333  0.67771  Biso   1.000  I
  I6       1.0000 0.33333  0.66667  0.01105  Biso   1.000  I
  I7       1.0000 0.03235  0.84976  0.84379  Biso   1.000  I
  I8       1.0000 0.15024  0.18259  0.84379  Biso   1.000  I
  I9       1.0000 0.81741  0.96765  0.84379  Biso   1.000  I
  I10      1.0000 0.69902  0.18309  0.17712  Biso   1.000  I
  I11      1.0000 0.81691  0.51592  0.17712  Biso   1.000  I
  I12      1.0000 0.48408  0.30098  0.17712  Biso   1.000  I
  I13      1.0000 0.36568  0.51643  0.51046  Biso   1.000  I
  I14      1.0000 0.48357  0.84926  0.51046  Biso   1.000  I
  I15      1.0000 0.15074  0.63432  0.51046  Biso   1.000  I
  I16      1.0000 0.96765  0.15024  0.15621  Biso   1.000  I
  I17      1.0000 0.84976  0.81741  0.15621  Biso   1.000  I
  I18      1.0000 0.18259  0.03235  0.15621  Biso   1.000  I
  I19      1.0000 0.63432  0.48357  0.48954  Biso   1.000  I
  I20      1.0000 0.51643  0.15074  0.48954  Biso   1.000  I
  I21      1.0000 0.84926  0.36568  0.48954  Biso   1.000  I
  I22      1.0000 0.30098  0.81691  0.82288  Biso   1.000  I
  I23      1.0000 0.18309  0.48408  0.82288  Biso   1.000  I
  I24      1.0000 0.51592  0.69902  0.82288  Biso   1.000  I
  Cu1      1.0000 0.75831  0.90983  0.66765  Biso   1.000  Cu
  Cu2      1.0000 0.09017  0.84848  0.66765  Biso   1.000  Cu
  Cu3      1.0000 0.15152  0.24169  0.66765  Biso   1.000  Cu
  Cu4      1.0000 0.42498  0.24316  0.00098  Biso   1.000  Cu
  Cu5      1.0000 0.75684  0.18181  0.00098  Biso   1.000  Cu
  Cu6      1.0000 0.81819  0.57502  0.00098  Biso   1.000  Cu
  Cu7      1.0000 0.09164  0.57650  0.33432  Biso   1.000  Cu
  Cu8      1.0000 0.42350  0.51515  0.33432  Biso   1.000  Cu
  Cu9      1.0000 0.48485  0.90836  0.33432  Biso   1.000  Cu
  Cu10     1.0000 0.24169  0.09017  0.33235  Biso   1.000  Cu
  Cu11     1.0000 0.90983  0.15152  0.33235  Biso   1.000  Cu
  Cu12     1.0000 0.84848  0.75831  0.33235  Biso   1.000  Cu
  Cu13     1.0000 0.90836  0.42350  0.66568  Biso   1.000  Cu
  Cu14     1.0000 0.57650  0.48485  0.66568  Biso   1.000  Cu
  Cu15     1.0000 0.51515  0.09164  0.66568  Biso   1.000  Cu
  Cu16     1.0000 0.57502  0.75684  0.99902  Biso   1.000  Cu
  Cu17     1.0000 0.24316  0.81819  0.99902  Biso   1.000  Cu
  Cu18     1.0000 0.18181  0.42498  0.99902  Biso   1.000  Cu
  Cu19     1.0000 0.00000  0.00000  0.86434  Biso   1.000  Cu
  Cu20     1.0000 0.66667  0.33333  0.19767  Biso   1.000  Cu
  Cu21     1.0000 0.33333  0.66667  0.53101  Biso   1.000  Cu
  Cu22     1.0000 0.00000  0.00000  0.13566  Biso   1.000  Cu
  Cu23     1.0000 0.66667  0.33333  0.46899  Biso   1.000  Cu
  Cu24     1.0000 0.33333  0.66667  0.80233  Biso   1.000  Cu
  Cu25     1.0000 0.91413  0.87452  0.76611  Biso   1.000  Cu
  Cu26     1.0000 0.12548  0.03961  0.76611  Biso   1.000  Cu
  Cu27     1.0000 0.96039  0.08587  0.76611  Biso   1.000  Cu
  Cu28     1.0000 0.58080  0.20785  0.09944  Biso   1.000  Cu
  Cu29     1.0000 0.79215  0.37294  0.09944  Biso   1.000  Cu
  Cu30     1.0000 0.62706  0.41920  0.09944  Biso   1.000  Cu
  Cu31     1.0000 0.24746  0.54119  0.43278  Biso   1.000  Cu
  Cu32     1.0000 0.45881  0.70628  0.43278  Biso   1.000  Cu
  Cu33     1.0000 0.29372  0.75254  0.43278  Biso   1.000  Cu
  Cu34     1.0000 0.08587  0.12548  0.23389  Biso   1.000  Cu
  Cu35     1.0000 0.87452  0.96039  0.23389  Biso   1.000  Cu
  Cu36     1.0000 0.03961  0.91413  0.23389  Biso   1.000  Cu
  Cu37     1.0000 0.75254  0.45881  0.56722  Biso   1.000  Cu
  Cu38     1.0000 0.54119  0.29372  0.56722  Biso   1.000  Cu
  Cu39     1.0000 0.70628  0.24746  0.56722  Biso   1.000  Cu
  Cu40     1.0000 0.41920  0.79215  0.90056  Biso   1.000  Cu
  Cu41     1.0000 0.20785  0.62706  0.90056  Biso   1.000  Cu
  Cu42     1.0000 0.37294  0.58080  0.90056  Biso   1.000  Cu
  N1       1.0000 0.74040  0.78130  0.68130  Biso   1.000  N
  N2       1.0000 0.21870  0.95910  0.68130  Biso   1.000  N
  N3       1.0000 0.04090  0.25960  0.68130  Biso   1.000  N
  N4       1.0000 0.40707  0.11463  0.01463  Biso   1.000  N
  N5       1.0000 0.88537  0.29243  0.01463  Biso   1.000  N
  N6       1.0000 0.70757  0.59293  0.01463  Biso   1.000  N
  N7       1.0000 0.07373  0.44797  0.34797  Biso   1.000  N
  N8       1.0000 0.55203  0.62577  0.34797  Biso   1.000  N
  N9       1.0000 0.37423  0.92627  0.34797  Biso   1.000  N
  N10      1.0000 0.25960  0.21870  0.31870  Biso   1.000  N
  N11      1.0000 0.78130  0.04090  0.31870  Biso   1.000  N
  N12      1.0000 0.95910  0.74040  0.31870  Biso   1.000  N
  N13      1.0000 0.92627  0.55203  0.65203  Biso   1.000  N
  N14      1.0000 0.44797  0.37423  0.65203  Biso   1.000  N
  N15      1.0000 0.62577  0.07373  0.65203  Biso   1.000  N
  N16      1.0000 0.59293  0.88537  0.98537  Biso   1.000  N
  N17      1.0000 0.11463  0.70757  0.98537  Biso   1.000  N
  N18      1.0000 0.29243  0.40707  0.98537  Biso   1.000  N
  C1       1.0000 0.78380  0.60500  0.77380  Biso   1.000  C
  C2       1.0000 0.39500  0.17880  0.77380  Biso   1.000  C
  C3       1.0000 0.82120  0.21620  0.77380  Biso   1.000  C
  C4       1.0000 0.45047  0.93833  0.10713  Biso   1.000  C
  C5       1.0000 0.06167  0.51213  0.10713  Biso   1.000  C
  C6       1.0000 0.48787  0.54953  0.10713  Biso   1.000  C
  C7       1.0000 0.11713  0.27167  0.44047  Biso   1.000  C
  C8       1.0000 0.72833  0.84547  0.44047  Biso   1.000  C
  C9       1.0000 0.15453  0.88287  0.44047  Biso   1.000  C
  C10      1.0000 0.21620  0.39500  0.22620  Biso   1.000  C
  C11      1.0000 0.60500  0.82120  0.22620  Biso   1.000  C
  C12      1.0000 0.17880  0.78380  0.22620  Biso   1.000  C
  C13      1.0000 0.88287  0.72833  0.55953  Biso   1.000  C
  C14      1.0000 0.27167  0.15453  0.55953  Biso   1.000  C
  C15      1.0000 0.84547  0.11713  0.55953  Biso   1.000  C
  C16      1.0000 0.54953  0.06167  0.89287  Biso   1.000  C
  C17      1.0000 0.93833  0.48787  0.89287  Biso   1.000  C
  C18      1.0000 0.51213  0.45047  0.89287  Biso   1.000  C
  H1       1.0000 0.84390  0.65070  0.79740  Biso   1.000  H
  H2       1.0000 0.34930  0.19320  0.79740  Biso   1.000  H
  H3       1.0000 0.80680  0.15610  0.79740  Biso   1.000  H
  H4       1.0000 0.51057  0.98403  0.13073  Biso   1.000  H
  H5       1.0000 0.01597  0.52653  0.13073  Biso   1.000  H
  H6       1.0000 0.47347  0.48943  0.13073  Biso   1.000  H
  H7       1.0000 0.17723  0.31737  0.46407  Biso   1.000  H
  H8       1.0000 0.68263  0.85987  0.46407  Biso   1.000  H
  H9       1.0000 0.14013  0.82277  0.46407  Biso   1.000  H
  H10      1.0000 0.15610  0.34930  0.20260  Biso   1.000  H
  H11      1.0000 0.65070  0.80680  0.20260  Biso   1.000  H
  H12      1.0000 0.19320  0.84390  0.20260  Biso   1.000  H
  H13      1.0000 0.82277  0.68263  0.53593  Biso   1.000  H
  H14      1.0000 0.31737  0.14013  0.53593  Biso   1.000  H
  H15      1.0000 0.85987  0.17723  0.53593  Biso   1.000  H
  H16      1.0000 0.48943  0.01597  0.86927  Biso   1.000  H
  H17      1.0000 0.98403  0.47347  0.86927  Biso   1.000  H
  H18      1.0000 0.52653  0.51057  0.86927  Biso   1.000  H
  H19      1.0000 0.79560  0.56070  0.74610  Biso   1.000  H
  H20      1.0000 0.43930  0.23490  0.74610  Biso   1.000  H
  H21      1.0000 0.76510  0.20440  0.74610  Biso   1.000  H
  H22      1.0000 0.46227  0.89403  0.07943  Biso   1.000  H
  H23      1.0000 0.10597  0.56823  0.07943  Biso   1.000  H
  H24      1.0000 0.43177  0.53773  0.07943  Biso   1.000  H
  H25      1.0000 0.12893  0.22737  0.41277  Biso   1.000  H
  H26      1.0000 0.77263  0.90157  0.41277  Biso   1.000  H
  H27      1.0000 0.09843  0.87107  0.41277  Biso   1.000  H
  H28      1.0000 0.20440  0.43930  0.25390  Biso   1.000  H
  H29      1.0000 0.56070  0.76510  0.25390  Biso   1.000  H
  H30      1.0000 0.23490  0.79560  0.25390  Biso   1.000  H
  H31      1.0000 0.87107  0.77263  0.58723  Biso   1.000  H
  H32      1.0000 0.22737  0.09843  0.58723  Biso   1.000  H
  H33      1.0000 0.90157  0.12893  0.58723  Biso   1.000  H
  H34      1.0000 0.53773  0.10597  0.92057  Biso   1.000  H
  H35      1.0000 0.89403  0.43177  0.92057  Biso   1.000  H
  H36      1.0000 0.56823  0.46227  0.92057  Biso   1.000  H
  H37      1.0000 0.73260  0.56730  0.80690  Biso   1.000  H
  H38      1.0000 0.43270  0.16530  0.80690  Biso   1.000  H
  H39      1.0000 0.83470  0.26740  0.80690  Biso   1.000  H
  H40      1.0000 0.39927  0.90063  0.14023  Biso   1.000  H
  H41      1.0000 0.09937  0.49863  0.14023  Biso   1.000  H
  H42      1.0000 0.50137  0.60073  0.14023  Biso   1.000  H
  H43      1.0000 0.06593  0.23397  0.47357  Biso   1.000  H
  H44      1.0000 0.76603  0.83197  0.47357  Biso   1.000  H
  H45      1.0000 0.16803  0.93407  0.47357  Biso   1.000  H
  H46      1.0000 0.26740  0.43270  0.19310  Biso   1.000  H
  H47      1.0000 0.56730  0.83470  0.19310  Biso   1.000  H
  H48      1.0000 0.16530  0.73260  0.19310  Biso   1.000  H
  H49      1.0000 0.93407  0.76603  0.52643  Biso   1.000  H
  H50      1.0000 0.23397  0.16803  0.52643  Biso   1.000  H
  H51      1.0000 0.83197  0.06593  0.52643  Biso   1.000  H
  H52      1.0000 0.60073  0.09937  0.85977  Biso   1.000  H
  H53      1.0000 0.90063  0.50137  0.85977  Biso   1.000  H
  H54      1.0000 0.49863  0.39927  0.85977  Biso   1.000  H
  N19      1.0000 0.67250  0.61850  0.68560  Biso   1.000  N
  N20      1.0000 0.38150  0.05400  0.68560  Biso   1.000  N
  N21      1.0000 0.94600  0.32750  0.68560  Biso   1.000  N
  N22      1.0000 0.33917  0.95183  0.01893  Biso   1.000  N
  N23      1.0000 0.04817  0.38733  0.01893  Biso   1.000  N
  N24      1.0000 0.61267  0.66083  0.01893  Biso   1.000  N
  N25      1.0000 0.00583  0.28517  0.35227  Biso   1.000  N
  N26      1.0000 0.71483  0.72067  0.35227  Biso   1.000  N
  N27      1.0000 0.27933  0.99417  0.35227  Biso   1.000  N
  N28      1.0000 0.32750  0.38150  0.31440  Biso   1.000  N
  N29      1.0000 0.61850  0.94600  0.31440  Biso   1.000  N
  N30      1.0000 0.05400  0.67250  0.31440  Biso   1.000  N
  N31      1.0000 0.99417  0.71483  0.64773  Biso   1.000  N
  N32      1.0000 0.28517  0.27933  0.64773  Biso   1.000  N
  N33      1.0000 0.72067  0.00583  0.64773  Biso   1.000  N
  N34      1.0000 0.66083  0.04817  0.98107  Biso   1.000  N
  N35      1.0000 0.95183  0.61267  0.98107  Biso   1.000  N
  N36      1.0000 0.38733  0.33917  0.98107  Biso   1.000  N
  C19      1.0000 0.66840  0.69580  0.65790  Biso   1.000  C
  C20      1.0000 0.30420  0.97260  0.65790  Biso   1.000  C
  C21      1.0000 0.02740  0.33160  0.65790  Biso   1.000  C
  C22      1.0000 0.33507  0.02913  0.99123  Biso   1.000  C
  C23      1.0000 0.97087  0.30593  0.99123  Biso   1.000  C
  C24      1.0000 0.69407  0.66493  0.99123  Biso   1.000  C
  C25      1.0000 0.00173  0.36247  0.32457  Biso   1.000  C
  C26      1.0000 0.63753  0.63927  0.32457  Biso   1.000  C
  C27      1.0000 0.36073  0.99827  0.32457  Biso   1.000  C
  C28      1.0000 0.33160  0.30420  0.34210  Biso   1.000  C
  C29      1.0000 0.69580  0.02740  0.34210  Biso   1.000  C
  C30      1.0000 0.97260  0.66840  0.34210  Biso   1.000  C
  C31      1.0000 0.99827  0.63753  0.67543  Biso   1.000  C
  C32      1.0000 0.36247  0.36073  0.67543  Biso   1.000  C
  C33      1.0000 0.63927  0.00173  0.67543  Biso   1.000  C
  C34      1.0000 0.66493  0.97087  0.00877  Biso   1.000  C
  C35      1.0000 0.02913  0.69407  0.00877  Biso   1.000  C
  C36      1.0000 0.30593  0.33507  0.00877  Biso   1.000  C
  C37      1.0000 0.75180  0.66140  0.72890  Biso   1.000  C
  C38      1.0000 0.33860  0.09040  0.72890  Biso   1.000  C
  C39      1.0000 0.90960  0.24820  0.72890  Biso   1.000  C
  C40      1.0000 0.41847  0.99473  0.06223  Biso   1.000  C
  C41      1.0000 0.00527  0.42373  0.06223  Biso   1.000  C
  C42      1.0000 0.57627  0.58153  0.06223  Biso   1.000  C
  C43      1.0000 0.08513  0.32807  0.39557  Biso   1.000  C
  C44      1.0000 0.67193  0.75707  0.39557  Biso   1.000  C
  C45      1.0000 0.24293  0.91487  0.39557  Biso   1.000  C
  C46      1.0000 0.24820  0.33860  0.27110  Biso   1.000  C
  C47      1.0000 0.66140  0.90960  0.27110  Biso   1.000  C
  C48      1.0000 0.09040  0.75180  0.27110  Biso   1.000  C
  C49      1.0000 0.91487  0.67193  0.60443  Biso   1.000  C
  C50      1.0000 0.32807  0.24293  0.60443  Biso   1.000  C
  C51      1.0000 0.75707  0.08513  0.60443  Biso   1.000  C
  C52      1.0000 0.58153  0.00527  0.93777  Biso   1.000  C
  C53      1.0000 0.99473  0.57627  0.93777  Biso   1.000  C
  C54      1.0000 0.42373  0.41847  0.93777  Biso   1.000  C
  N37      1.0000 0.79430  0.75940  0.72720  Biso   1.000  N
  N38      1.0000 0.24060  0.03490  0.72720  Biso   1.000  N
  N39      1.0000 0.96510  0.20570  0.72720  Biso   1.000  N
  N40      1.0000 0.46097  0.09273  0.06053  Biso   1.000  N
  N41      1.0000 0.90727  0.36823  0.06053  Biso   1.000  N
  N42      1.0000 0.63177  0.53903  0.06053  Biso   1.000  N
  N43      1.0000 0.12763  0.42607  0.39387  Biso   1.000  N
  N44      1.0000 0.57393  0.70157  0.39387  Biso   1.000  N
  N45      1.0000 0.29843  0.87237  0.39387  Biso   1.000  N
  N46      1.0000 0.20570  0.24060  0.27280  Biso   1.000  N
  N47      1.0000 0.75940  0.96510  0.27280  Biso   1.000  N
  N48      1.0000 0.03490  0.79430  0.27280  Biso   1.000  N
  N49      1.0000 0.87237  0.57393  0.60613  Biso   1.000  N
  N50      1.0000 0.42607  0.29843  0.60613  Biso   1.000  N
  N51      1.0000 0.70157  0.12763  0.60613  Biso   1.000  N
  N52      1.0000 0.53903  0.90727  0.93947  Biso   1.000  N
  N53      1.0000 0.09273  0.63177  0.93947  Biso   1.000  N
  N54      1.0000 0.36823  0.46097  0.93947  Biso   1.000  N
  O1       1.0000 0.00000  0.00000  0.00000  Biso   1.000  O
  O2       1.0000 0.66667  0.33333  0.33333  Biso   1.000  O
  O3       1.0000 0.33333  0.66667  0.66667  Biso   1.000  O
  C55      1.0000 0.59300  0.68700  0.60760  Biso   1.000  C
  C56      1.0000 0.31300  0.90600  0.60760  Biso   1.000  C
  C57      1.0000 0.09400  0.40700  0.60760  Biso   1.000  C
  C58      1.0000 0.25967  0.02033  0.94093  Biso   1.000  C
  C59      1.0000 0.97967  0.23933  0.94093  Biso   1.000  C
  C60      1.0000 0.76067  0.74033  0.94093  Biso   1.000  C
  C61      1.0000 0.92633  0.35367  0.27427  Biso   1.000  C
  C62      1.0000 0.64633  0.57267  0.27427  Biso   1.000  C
  C63      1.0000 0.42733  0.07367  0.27427  Biso   1.000  C
  C64      1.0000 0.40700  0.31300  0.39240  Biso   1.000  C
  C65      1.0000 0.68700  0.09400  0.39240  Biso   1.000  C
  C66      1.0000 0.90600  0.59300  0.39240  Biso   1.000  C
  C67      1.0000 0.07367  0.64633  0.72573  Biso   1.000  C
  C68      1.0000 0.35367  0.42733  0.72573  Biso   1.000  C
  C69      1.0000 0.57267  0.92633  0.72573  Biso   1.000  C
  C70      1.0000 0.74033  0.97967  0.05907  Biso   1.000  C
  C71      1.0000 0.02033  0.76067  0.05907  Biso   1.000  C
  C72      1.0000 0.23933  0.25967  0.05907  Biso   1.000  C
  H55      1.0000 0.59860  0.75090  0.60110  Biso   1.000  H
  H56      1.0000 0.24910  0.84770  0.60110  Biso   1.000  H
  H57      1.0000 0.15230  0.40140  0.60110  Biso   1.000  H
  H58      1.0000 0.26527  0.08423  0.93443  Biso   1.000  H
  H59      1.0000 0.91577  0.18103  0.93443  Biso   1.000  H
  H60      1.0000 0.81897  0.73473  0.93443  Biso   1.000  H
  H61      1.0000 0.93193  0.41757  0.26777  Biso   1.000  H
  H62      1.0000 0.58243  0.51437  0.26777  Biso   1.000  H
  H63      1.0000 0.48563  0.06807  0.26777  Biso   1.000  H
  H64      1.0000 0.40140  0.24910  0.39890  Biso   1.000  H
  H65      1.0000 0.75090  0.15230  0.39890  Biso   1.000  H
  H66      1.0000 0.84770  0.59860  0.39890  Biso   1.000  H
  H67      1.0000 0.06807  0.58243  0.73223  Biso   1.000  H
  H68      1.0000 0.41757  0.48563  0.73223  Biso   1.000  H
  H69      1.0000 0.51437  0.93193  0.73223  Biso   1.000  H
  H70      1.0000 0.73473  0.91577  0.06557  Biso   1.000  H
  H71      1.0000 0.08423  0.81897  0.06557  Biso   1.000  H
  H72      1.0000 0.18103  0.26527  0.06557  Biso   1.000  H
  H73      1.0000 0.60360  0.66350  0.56440  Biso   1.000  H
  H74      1.0000 0.33650  0.94010  0.56440  Biso   1.000  H
  H75      1.0000 0.05990  0.39640  0.56440  Biso   1.000  H
  H76      1.0000 0.27027  0.99683  0.89773  Biso   1.000  H
  H77      1.0000 0.00317  0.27343  0.89773  Biso   1.000  H
  H78      1.0000 0.72657  0.72973  0.89773  Biso   1.000  H
  H79      1.0000 0.93693  0.33017  0.23107  Biso   1.000  H
  H80      1.0000 0.66983  0.60677  0.23107  Biso   1.000  H
  H81      1.0000 0.39323  0.06307  0.23107  Biso   1.000  H
  H82      1.0000 0.39640  0.33650  0.43560  Biso   1.000  H
  H83      1.0000 0.66350  0.05990  0.43560  Biso   1.000  H
  H84      1.0000 0.94010  0.60360  0.43560  Biso   1.000  H
  H85      1.0000 0.06307  0.66983  0.76893  Biso   1.000  H
  H86      1.0000 0.33017  0.39323  0.76893  Biso   1.000  H
  H87      1.0000 0.60677  0.93693  0.76893  Biso   1.000  H
  H88      1.0000 0.72973  0.00317  0.10227  Biso   1.000  H
  H89      1.0000 0.99683  0.72657  0.10227  Biso   1.000  H
  H90      1.0000 0.27343  0.27027  0.10227  Biso   1.000  H
  H91      1.0000 0.52780  0.64080  0.62460  Biso   1.000  H
  H92      1.0000 0.35920  0.88700  0.62460  Biso   1.000  H
  H93      1.0000 0.11300  0.47220  0.62460  Biso   1.000  H
  H94      1.0000 0.19447  0.97413  0.95793  Biso   1.000  H
  H95      1.0000 0.02587  0.22033  0.95793  Biso   1.000  H
  H96      1.0000 0.77967  0.80553  0.95793  Biso   1.000  H
  H97      1.0000 0.86113  0.30747  0.29127  Biso   1.000  H
  H98      1.0000 0.69253  0.55367  0.29127  Biso   1.000  H
  H99      1.0000 0.44633  0.13887  0.29127  Biso   1.000  H
  H100     1.0000 0.47220  0.35920  0.37540  Biso   1.000  H
  H101     1.0000 0.64080  0.11300  0.37540  Biso   1.000  H
  H102     1.0000 0.88700  0.52780  0.37540  Biso   1.000  H
  H103     1.0000 0.13887  0.69253  0.70873  Biso   1.000  H
  H104     1.0000 0.30747  0.44633  0.70873  Biso   1.000  H
  H105     1.0000 0.55367  0.86113  0.70873  Biso   1.000  H
  H106     1.0000 0.80553  0.02587  0.04207  Biso   1.000  H
  H107     1.0000 0.97413  0.77967  0.04207  Biso   1.000  H
  H108     1.0000 0.22033  0.19447  0.04207  Biso   1.000  H
