data_image0
_cell_length_a       9.3471
_cell_length_b       18.9283
_cell_length_c       12.4791
_cell_angle_alpha    90
_cell_angle_beta     101.718
_cell_angle_gamma    90

_symmetry_space_group_name_H-M    "P 1"
_symmetry_int_tables_number       1

loop_
  _symmetry_equiv_pos_as_xyz
  'x, y, z'

loop_
  _atom_site_label
  _atom_site_occupancy
  _atom_site_fract_x
  _atom_site_fract_y
  _atom_site_fract_z
  _atom_site_thermal_displace_type
  _atom_site_B_iso_or_equiv
  _atom_site_type_symbol
  Cu1      1.0000 0.04797  0.41884  0.53017  Biso   1.000  Cu
  Cu2      1.0000 0.54797  0.91883  0.53017  Biso   1.000  Cu
  Cu3      1.0000 0.95203  0.41884  0.96983  Biso   1.000  Cu
  Cu4      1.0000 0.45203  0.91883  0.96983  Biso   1.000  Cu
  Cu5      1.0000 0.95203  0.58116  0.46983  Biso   1.000  Cu
  Cu6      1.0000 0.45203  0.08116  0.46983  Biso   1.000  Cu
  Cu7      1.0000 0.04797  0.58116  0.03017  Biso   1.000  Cu
  Cu8      1.0000 0.54797  0.08116  0.03017  Biso   1.000  Cu
  S1       1.0000 0.90971  0.28933  0.68150  Biso   1.000  S
  S2       1.0000 0.40971  0.78933  0.68150  Biso   1.000  S
  S3       1.0000 0.09029  0.28933  0.81850  Biso   1.000  S
  S4       1.0000 0.59029  0.78933  0.81850  Biso   1.000  S
  S5       1.0000 0.09029  0.71067  0.31850  Biso   1.000  S
  S6       1.0000 0.59029  0.21067  0.31850  Biso   1.000  S
  S7       1.0000 0.90971  0.71067  0.18150  Biso   1.000  S
  S8       1.0000 0.40971  0.21067  0.18150  Biso   1.000  S
  O1       1.0000 0.92155  0.35520  0.62431  Biso   1.000  O
  O2       1.0000 0.42155  0.85520  0.62431  Biso   1.000  O
  O3       1.0000 0.07845  0.35520  0.87569  Biso   1.000  O
  O4       1.0000 0.57845  0.85520  0.87569  Biso   1.000  O
  O5       1.0000 0.07845  0.64480  0.37569  Biso   1.000  O
  O6       1.0000 0.57845  0.14480  0.37569  Biso   1.000  O
  O7       1.0000 0.92155  0.64480  0.12431  Biso   1.000  O
  O8       1.0000 0.42155  0.14480  0.12431  Biso   1.000  O
  O9       1.0000 0.93380  0.22689  0.62124  Biso   1.000  O
  O10      1.0000 0.43380  0.72689  0.62124  Biso   1.000  O
  O11      1.0000 0.06620  0.22689  0.87876  Biso   1.000  O
  O12      1.0000 0.56620  0.72689  0.87876  Biso   1.000  O
  O13      1.0000 0.06620  0.77311  0.37876  Biso   1.000  O
  O14      1.0000 0.56620  0.27311  0.37876  Biso   1.000  O
  O15      1.0000 0.93380  0.77311  0.12124  Biso   1.000  O
  O16      1.0000 0.43380  0.27311  0.12124  Biso   1.000  O
  O17      1.0000 0.78069  0.28690  0.72844  Biso   1.000  O
  O18      1.0000 0.28069  0.78690  0.72844  Biso   1.000  O
  O19      1.0000 0.21931  0.28690  0.77156  Biso   1.000  O
  O20      1.0000 0.71931  0.78690  0.77156  Biso   1.000  O
  O21      1.0000 0.21931  0.71310  0.27156  Biso   1.000  O
  O22      1.0000 0.71931  0.21310  0.27156  Biso   1.000  O
  O23      1.0000 0.78069  0.71310  0.22844  Biso   1.000  O
  O24      1.0000 0.28069  0.21310  0.22844  Biso   1.000  O
  N1       1.0000 0.12176  0.49728  0.64054  Biso   1.000  N
  N2       1.0000 0.62176  0.99728  0.64054  Biso   1.000  N
  N3       1.0000 0.87824  0.49728  0.85946  Biso   1.000  N
  N4       1.0000 0.37824  0.99728  0.85946  Biso   1.000  N
  N5       1.0000 0.87824  0.50272  0.35946  Biso   1.000  N
  N6       1.0000 0.37824  0.00272  0.35946  Biso   1.000  N
  N7       1.0000 0.12176  0.50272  0.14054  Biso   1.000  N
  N8       1.0000 0.62176  0.00272  0.14054  Biso   1.000  N
  N9       1.0000 0.09979  0.56503  0.60553  Biso   1.000  N
  N10      1.0000 0.59979  0.06503  0.60553  Biso   1.000  N
  N11      1.0000 0.90021  0.56503  0.89447  Biso   1.000  N
  N12      1.0000 0.40021  0.06503  0.89447  Biso   1.000  N
  N13      1.0000 0.90021  0.43497  0.39447  Biso   1.000  N
  N14      1.0000 0.40021  0.93497  0.39447  Biso   1.000  N
  N15      1.0000 0.09979  0.43497  0.10553  Biso   1.000  N
  N16      1.0000 0.59979  0.93497  0.10553  Biso   1.000  N
  N17      1.0000 0.22280  0.36085  0.53621  Biso   1.000  N
  N18      1.0000 0.72280  0.86085  0.53621  Biso   1.000  N
  N19      1.0000 0.77720  0.36085  0.96379  Biso   1.000  N
  N20      1.0000 0.27720  0.86085  0.96379  Biso   1.000  N
  N21      1.0000 0.77720  0.63915  0.46379  Biso   1.000  N
  N22      1.0000 0.27720  0.13915  0.46379  Biso   1.000  N
  N23      1.0000 0.22280  0.63915  0.03621  Biso   1.000  N
  N24      1.0000 0.72280  0.13915  0.03621  Biso   1.000  N
  C1       1.0000 0.21540  0.48390  0.73432  Biso   1.000  C
  C2       1.0000 0.71540  0.98390  0.73432  Biso   1.000  C
  C3       1.0000 0.78460  0.48390  0.76568  Biso   1.000  C
  C4       1.0000 0.28460  0.98390  0.76568  Biso   1.000  C
  C5       1.0000 0.78460  0.51610  0.26568  Biso   1.000  C
  C6       1.0000 0.28460  0.01610  0.26568  Biso   1.000  C
  C7       1.0000 0.21540  0.51610  0.23432  Biso   1.000  C
  C8       1.0000 0.71540  0.01610  0.23432  Biso   1.000  C
  H1       1.0000 0.22820  0.43660  0.75730  Biso   1.000  H
  H2       1.0000 0.72820  0.93660  0.75730  Biso   1.000  H
  H3       1.0000 0.77180  0.43660  0.74270  Biso   1.000  H
  H4       1.0000 0.27180  0.93660  0.74270  Biso   1.000  H
  H5       1.0000 0.77180  0.56340  0.24270  Biso   1.000  H
  H6       1.0000 0.27180  0.06340  0.24270  Biso   1.000  H
  H7       1.0000 0.22820  0.56340  0.25730  Biso   1.000  H
  H8       1.0000 0.72820  0.06340  0.25730  Biso   1.000  H
  C9       1.0000 0.29610  0.53596  0.80074  Biso   1.000  C
  C10      1.0000 0.79610  0.03596  0.80074  Biso   1.000  C
  C11      1.0000 0.70390  0.53596  0.69926  Biso   1.000  C
  C12      1.0000 0.20390  0.03596  0.69926  Biso   1.000  C
  C13      1.0000 0.70390  0.46404  0.19926  Biso   1.000  C
  C14      1.0000 0.20390  0.96404  0.19926  Biso   1.000  C
  C15      1.0000 0.29610  0.46404  0.30074  Biso   1.000  C
  C16      1.0000 0.79610  0.96404  0.30074  Biso   1.000  C
  C17      1.0000 0.27460  0.60456  0.76258  Biso   1.000  C
  C18      1.0000 0.77460  0.10456  0.76258  Biso   1.000  C
  C19      1.0000 0.72540  0.60456  0.73742  Biso   1.000  C
  C20      1.0000 0.22540  0.10456  0.73742  Biso   1.000  C
  C21      1.0000 0.72540  0.39544  0.23742  Biso   1.000  C
  C22      1.0000 0.22540  0.89544  0.23742  Biso   1.000  C
  C23      1.0000 0.27460  0.39544  0.26258  Biso   1.000  C
  C24      1.0000 0.77460  0.89544  0.26258  Biso   1.000  C
  H9       1.0000 0.32570  0.64240  0.80160  Biso   1.000  H
  H10      1.0000 0.82570  0.14240  0.80160  Biso   1.000  H
  H11      1.0000 0.67430  0.64240  0.69840  Biso   1.000  H
  H12      1.0000 0.17430  0.14240  0.69840  Biso   1.000  H
  H13      1.0000 0.67430  0.35760  0.19840  Biso   1.000  H
  H14      1.0000 0.17430  0.85760  0.19840  Biso   1.000  H
  H15      1.0000 0.32570  0.35760  0.30160  Biso   1.000  H
  H16      1.0000 0.82570  0.85760  0.30160  Biso   1.000  H
  C25      1.0000 0.17510  0.61607  0.66473  Biso   1.000  C
  C26      1.0000 0.67510  0.11607  0.66473  Biso   1.000  C
  C27      1.0000 0.82490  0.61607  0.83527  Biso   1.000  C
  C28      1.0000 0.32490  0.11607  0.83527  Biso   1.000  C
  C29      1.0000 0.82490  0.38393  0.33527  Biso   1.000  C
  C30      1.0000 0.32490  0.88393  0.33527  Biso   1.000  C
  C31      1.0000 0.17510  0.38393  0.16473  Biso   1.000  C
  C32      1.0000 0.67510  0.88393  0.16473  Biso   1.000  C
  H17      1.0000 0.16050  0.66270  0.63910  Biso   1.000  H
  H18      1.0000 0.66050  0.16270  0.63910  Biso   1.000  H
  H19      1.0000 0.83950  0.66270  0.86090  Biso   1.000  H
  H20      1.0000 0.33950  0.16270  0.86090  Biso   1.000  H
  H21      1.0000 0.83950  0.33730  0.36090  Biso   1.000  H
  H22      1.0000 0.33950  0.83730  0.36090  Biso   1.000  H
  H23      1.0000 0.16050  0.33730  0.13910  Biso   1.000  H
  H24      1.0000 0.66050  0.83730  0.13910  Biso   1.000  H
  C33      1.0000 0.40090  0.51707  0.90281  Biso   1.000  C
  C34      1.0000 0.90090  0.01707  0.90281  Biso   1.000  C
  C35      1.0000 0.59910  0.51707  0.59719  Biso   1.000  C
  C36      1.0000 0.09910  0.01707  0.59719  Biso   1.000  C
  C37      1.0000 0.59910  0.48293  0.09719  Biso   1.000  C
  C38      1.0000 0.09910  0.98293  0.09719  Biso   1.000  C
  C39      1.0000 0.40090  0.48293  0.40281  Biso   1.000  C
  C40      1.0000 0.90090  0.98293  0.40281  Biso   1.000  C
  C41      1.0000 0.38160  0.45565  0.96081  Biso   1.000  C
  C42      1.0000 0.88160  0.95565  0.96081  Biso   1.000  C
  C43      1.0000 0.61840  0.45565  0.53919  Biso   1.000  C
  C44      1.0000 0.11840  0.95565  0.53919  Biso   1.000  C
  C45      1.0000 0.61840  0.54435  0.03919  Biso   1.000  C
  C46      1.0000 0.11840  0.04435  0.03919  Biso   1.000  C
  C47      1.0000 0.38160  0.54435  0.46081  Biso   1.000  C
  C48      1.0000 0.88160  0.04435  0.46081  Biso   1.000  C
  H25      1.0000 0.30210  0.42560  0.93480  Biso   1.000  H
  H26      1.0000 0.80210  0.92560  0.93480  Biso   1.000  H
  H27      1.0000 0.69790  0.42560  0.56520  Biso   1.000  H
  H28      1.0000 0.19790  0.92560  0.56520  Biso   1.000  H
  H29      1.0000 0.69790  0.57440  0.06520  Biso   1.000  H
  H30      1.0000 0.19790  0.07440  0.06520  Biso   1.000  H
  H31      1.0000 0.30210  0.57440  0.43480  Biso   1.000  H
  H32      1.0000 0.80210  0.07440  0.43480  Biso   1.000  H
  C49      1.0000 0.52000  0.56094  0.94316  Biso   1.000  C
  C50      1.0000 0.02000  0.06094  0.94316  Biso   1.000  C
  C51      1.0000 0.48000  0.56094  0.55684  Biso   1.000  C
  C52      1.0000 0.98000  0.06094  0.55684  Biso   1.000  C
  C53      1.0000 0.48000  0.43906  0.05684  Biso   1.000  C
  C54      1.0000 0.98000  0.93906  0.05684  Biso   1.000  C
  C55      1.0000 0.52000  0.43906  0.44316  Biso   1.000  C
  C56      1.0000 0.02000  0.93906  0.44316  Biso   1.000  C
  H33      1.0000 0.53380  0.60230  0.90480  Biso   1.000  H
  H34      1.0000 0.03380  0.10230  0.90480  Biso   1.000  H
  H35      1.0000 0.46620  0.60230  0.59520  Biso   1.000  H
  H36      1.0000 0.96620  0.10230  0.59520  Biso   1.000  H
  H37      1.0000 0.46620  0.39770  0.09520  Biso   1.000  H
  H38      1.0000 0.96620  0.89770  0.09520  Biso   1.000  H
  H39      1.0000 0.53380  0.39770  0.40480  Biso   1.000  H
  H40      1.0000 0.03380  0.89770  0.40480  Biso   1.000  H
  C57      1.0000 0.32190  0.32623  0.56406  Biso   1.000  C
  C58      1.0000 0.82190  0.82623  0.56406  Biso   1.000  C
  C59      1.0000 0.67810  0.32623  0.93594  Biso   1.000  C
  C60      1.0000 0.17810  0.82623  0.93594  Biso   1.000  C
  C61      1.0000 0.67810  0.67377  0.43594  Biso   1.000  C
  C62      1.0000 0.17810  0.17377  0.43594  Biso   1.000  C
  C63      1.0000 0.32190  0.67377  0.06406  Biso   1.000  C
  C64      1.0000 0.82190  0.17377  0.06406  Biso   1.000  C
  C65      1.0000 0.44930  0.28146  0.60080  Biso   1.000  C
  C66      1.0000 0.94930  0.78146  0.60080  Biso   1.000  C
  C67      1.0000 0.55070  0.28146  0.89920  Biso   1.000  C
  C68      1.0000 0.05070  0.78146  0.89920  Biso   1.000  C
  C69      1.0000 0.55070  0.71854  0.39920  Biso   1.000  C
  C70      1.0000 0.05070  0.21854  0.39920  Biso   1.000  C
  C71      1.0000 0.44930  0.71854  0.10080  Biso   1.000  C
  C72      1.0000 0.94930  0.21854  0.10080  Biso   1.000  C
  H41      1.0000 0.52670  0.30910  0.64510  Biso   1.000  H
  H42      1.0000 0.02670  0.80910  0.64510  Biso   1.000  H
  H43      1.0000 0.47330  0.30910  0.85490  Biso   1.000  H
  H44      1.0000 0.97330  0.80910  0.85490  Biso   1.000  H
  H45      1.0000 0.47330  0.69090  0.35490  Biso   1.000  H
  H46      1.0000 0.97330  0.19090  0.35490  Biso   1.000  H
  H47      1.0000 0.52670  0.69090  0.14510  Biso   1.000  H
  H48      1.0000 0.02670  0.19090  0.14510  Biso   1.000  H
  H49      1.0000 0.48260  0.26270  0.53780  Biso   1.000  H
  H50      1.0000 0.98260  0.76270  0.53780  Biso   1.000  H
  H51      1.0000 0.51740  0.26270  0.96220  Biso   1.000  H
  H52      1.0000 0.01740  0.76270  0.96220  Biso   1.000  H
  H53      1.0000 0.51740  0.73730  0.46220  Biso   1.000  H
  H54      1.0000 0.01740  0.23730  0.46220  Biso   1.000  H
  H55      1.0000 0.48260  0.73730  0.03780  Biso   1.000  H
  H56      1.0000 0.98260  0.23730  0.03780  Biso   1.000  H
  H57      1.0000 0.42320  0.24270  0.64410  Biso   1.000  H
  H58      1.0000 0.92320  0.74270  0.64410  Biso   1.000  H
  H59      1.0000 0.57680  0.24270  0.85590  Biso   1.000  H
  H60      1.0000 0.07680  0.74270  0.85590  Biso   1.000  H
  H61      1.0000 0.57680  0.75730  0.35590  Biso   1.000  H
  H62      1.0000 0.07680  0.25730  0.35590  Biso   1.000  H
  H63      1.0000 0.42320  0.75730  0.14410  Biso   1.000  H
  H64      1.0000 0.92320  0.25730  0.14410  Biso   1.000  H
