data_image0
_cell_length_a       12.5703
_cell_length_b       13.7895
_cell_length_c       14.1629
_cell_angle_alpha    94.203
_cell_angle_beta     93.205
_cell_angle_gamma    107.835

_symmetry_space_group_name_H-M    "P 1"
_symmetry_int_tables_number       1

loop_
  _symmetry_equiv_pos_as_xyz
  'x, y, z'

loop_
  _atom_site_label
  _atom_site_occupancy
  _atom_site_fract_x
  _atom_site_fract_y
  _atom_site_fract_z
  _atom_site_thermal_displace_type
  _atom_site_B_iso_or_equiv
  _atom_site_type_symbol
  Cu1      1.0000 0.21412  0.18221  0.02312  Biso   1.000  Cu
  Cu2      1.0000 0.78588  0.81779  0.97688  Biso   1.000  Cu
  Cu3      1.0000 0.38379  0.17190  0.18579  Biso   1.000  Cu
  Cu4      1.0000 0.61621  0.82810  0.81421  Biso   1.000  Cu
  B1       1.0000 0.65040  0.96400  0.30030  Biso   1.000  B
  B2       1.0000 0.34960  0.03600  0.69970  Biso   1.000  B
  F1       1.0000 0.73740  0.05150  0.28230  Biso   1.000  F
  F2       1.0000 0.26260  0.94850  0.71770  Biso   1.000  F
  F3       1.0000 0.55110  0.97280  0.26160  Biso   1.000  F
  F4       1.0000 0.44890  0.02720  0.73840  Biso   1.000  F
  F5       1.0000 0.64880  0.95990  0.39640  Biso   1.000  F
  F6       1.0000 0.35120  0.04010  0.60360  Biso   1.000  F
  F7       1.0000 0.67060  0.88000  0.25560  Biso   1.000  F
  F8       1.0000 0.32940  0.12000  0.74440  Biso   1.000  F
  B3       1.0000 0.21490  0.48330  0.73390  Biso   1.000  B
  B4       1.0000 0.78510  0.51670  0.26610  Biso   1.000  B
  F9       1.0000 0.12630  0.43100  0.67600  Biso   1.000  F
  F10      1.0000 0.87370  0.56900  0.32400  Biso   1.000  F
  F11      1.0000 0.24980  0.43120  0.79850  Biso   1.000  F
  F12      1.0000 0.75020  0.56880  0.20150  Biso   1.000  F
  F13      1.0000 0.30680  0.51670  0.67390  Biso   1.000  F
  F14      1.0000 0.69320  0.48330  0.32610  Biso   1.000  F
  F15      1.0000 0.21860  0.57780  0.76960  Biso   1.000  F
  F16      1.0000 0.78140  0.42220  0.23040  Biso   1.000  F
  N1       1.0000 0.49220  0.17960  0.29670  Biso   1.000  N
  N2       1.0000 0.50780  0.82040  0.70330  Biso   1.000  N
  N3       1.0000 0.45110  0.13700  0.37480  Biso   1.000  N
  N4       1.0000 0.54890  0.86300  0.62520  Biso   1.000  N
  N5       1.0000 0.10400  0.17900  0.91400  Biso   1.000  N
  N6       1.0000 0.89600  0.82100  0.08600  Biso   1.000  N
  N7       1.0000 0.99400  0.15440  0.92860  Biso   1.000  N
  N8       1.0000 0.00600  0.84560  0.07140  Biso   1.000  N
  N9       1.0000 0.29340  0.07210  0.00110  Biso   1.000  N
  N10      1.0000 0.70660  0.92790  0.99890  Biso   1.000  N
  N11      1.0000 0.35920  0.06100  0.07630  Biso   1.000  N
  N12      1.0000 0.64080  0.93900  0.92370  Biso   1.000  N
  N13      1.0000 0.40680  0.31280  0.13670  Biso   1.000  N
  N14      1.0000 0.59320  0.68720  0.86330  Biso   1.000  N
  N15      1.0000 0.33250  0.31950  0.06680  Biso   1.000  N
  N16      1.0000 0.66750  0.68050  0.93320  Biso   1.000  N
  N17      1.0000 0.14530  0.13920  0.14800  Biso   1.000  N
  N18      1.0000 0.85470  0.86080  0.85200  Biso   1.000  N
  N19      1.0000 0.21890  0.13380  0.21910  Biso   1.000  N
  N20      1.0000 0.78110  0.86620  0.78090  Biso   1.000  N
  C1       1.0000 0.52260  0.14190  0.44920  Biso   1.000  C
  C2       1.0000 0.47740  0.85810  0.55080  Biso   1.000  C
  H1       1.0000 0.49330  0.11060  0.50290  Biso   1.000  H
  H2       1.0000 0.50670  0.88940  0.49710  Biso   1.000  H
  C3       1.0000 0.63910  0.19050  0.45310  Biso   1.000  C
  C4       1.0000 0.36090  0.80950  0.54690  Biso   1.000  C
  C5       1.0000 0.67660  0.23490  0.37380  Biso   1.000  C
  C6       1.0000 0.32340  0.76510  0.62620  Biso   1.000  C
  H3       1.0000 0.75320  0.27020  0.37130  Biso   1.000  H
  H4       1.0000 0.24680  0.72980  0.62870  Biso   1.000  H
  C7       1.0000 0.60080  0.22750  0.29660  Biso   1.000  C
  C8       1.0000 0.39920  0.77250  0.70340  Biso   1.000  C
  H5       1.0000 0.62770  0.25780  0.24170  Biso   1.000  H
  H6       1.0000 0.37230  0.74220  0.75830  Biso   1.000  H
  C9       1.0000 0.71520  0.18980  0.53670  Biso   1.000  C
  C10      1.0000 0.28480  0.81020  0.46330  Biso   1.000  C
  C11      1.0000 0.82910  0.24210  0.53740  Biso   1.000  C
  C12      1.0000 0.17090  0.75790  0.46260  Biso   1.000  C
  H7       1.0000 0.85600  0.27910  0.48590  Biso   1.000  H
  H8       1.0000 0.14400  0.72090  0.51410  Biso   1.000  H
  C13      1.0000 0.90350  0.24050  0.61270  Biso   1.000  C
  C14      1.0000 0.09650  0.75950  0.38730  Biso   1.000  C
  H9       1.0000 0.97990  0.27710  0.61170  Biso   1.000  H
  H10      1.0000 0.02010  0.72290  0.38830  Biso   1.000  H
  C15      1.0000 0.86760  0.18610  0.68940  Biso   1.000  C
  C16      1.0000 0.13240  0.81390  0.31060  Biso   1.000  C
  C17      1.0000 0.75560  0.13850  0.69040  Biso   1.000  C
  C18      1.0000 0.24440  0.86150  0.30960  Biso   1.000  C
  H11      1.0000 0.72850  0.10400  0.74320  Biso   1.000  H
  H12      1.0000 0.27150  0.89600  0.25680  Biso   1.000  H
  C19      1.0000 0.67990  0.13990  0.61480  Biso   1.000  C
  C20      1.0000 0.32010  0.86010  0.38520  Biso   1.000  C
  H13      1.0000 0.60310  0.10570  0.61760  Biso   1.000  H
  H14      1.0000 0.39690  0.89430  0.38240  Biso   1.000  H
  C21      1.0000 0.92270  0.15730  0.85660  Biso   1.000  C
  C22      1.0000 0.07730  0.84270  0.14340  Biso   1.000  C
  H15      1.0000 0.84630  0.14010  0.86760  Biso   1.000  H
  H16      1.0000 0.15370  0.85990  0.13240  Biso   1.000  H
  C23      1.0000 0.95200  0.18390  0.76620  Biso   1.000  C
  C24      1.0000 0.04800  0.81610  0.23380  Biso   1.000  C
  C25      1.0000 0.06390  0.20630  0.75310  Biso   1.000  C
  C26      1.0000 0.93610  0.79370  0.24690  Biso   1.000  C
  H17      1.0000 0.09100  0.22410  0.69420  Biso   1.000  H
  H18      1.0000 0.90900  0.77590  0.30580  Biso   1.000  H
  C27      1.0000 0.13650  0.20210  0.82960  Biso   1.000  C
  C28      1.0000 0.86350  0.79790  0.17040  Biso   1.000  C
  H19      1.0000 0.21300  0.21660  0.82030  Biso   1.000  H
  H20      1.0000 0.78700  0.78340  0.17970  Biso   1.000  H
  C29      1.0000 0.38610  0.97490  0.07960  Biso   1.000  C
  C30      1.0000 0.61390  0.02510  0.92040  Biso   1.000  C
  H21      1.0000 0.43320  0.96980  0.13160  Biso   1.000  H
  H22      1.0000 0.56680  0.03020  0.86840  Biso   1.000  H
  C31      1.0000 0.34870  0.89200  0.01040  Biso   1.000  C
  C32      1.0000 0.65130  0.10800  0.98960  Biso   1.000  C
  C33      1.0000 0.28680  0.90650  0.93160  Biso   1.000  C
  C34      1.0000 0.71320  0.09350  0.06840  Biso   1.000  C
  H23      1.0000 0.26190  0.85590  0.88010  Biso   1.000  H
  H24      1.0000 0.73810  0.14410  0.11990  Biso   1.000  H
  C35      1.0000 0.26270  0.99860  0.93140  Biso   1.000  C
  C36      1.0000 0.73730  0.00140  0.06860  Biso   1.000  C
  H25      1.0000 0.22160  0.00880  0.87760  Biso   1.000  H
  H26      1.0000 0.77840  0.99120  0.12240  Biso   1.000  H
  C37      1.0000 0.36940  0.79310  0.02350  Biso   1.000  C
  C38      1.0000 0.63060  0.20690  0.97650  Biso   1.000  C
  C39      1.0000 0.30610  0.70480  0.97220  Biso   1.000  C
  C40      1.0000 0.69390  0.29520  0.02780  Biso   1.000  C
  H27      1.0000 0.25240  0.70730  0.92430  Biso   1.000  H
  H28      1.0000 0.74760  0.29270  0.07570  Biso   1.000  H
  C41      1.0000 0.31950  0.61020  0.98950  Biso   1.000  C
  C42      1.0000 0.68050  0.38980  0.01050  Biso   1.000  C
  H29      1.0000 0.27550  0.55050  0.95260  Biso   1.000  H
  H30      1.0000 0.72450  0.44950  0.04740  Biso   1.000  H
  C43      1.0000 0.39670  0.60410  0.06010  Biso   1.000  C
  C44      1.0000 0.60330  0.39590  0.93990  Biso   1.000  C
  C45      1.0000 0.46580  0.69470  0.10740  Biso   1.000  C
  C46      1.0000 0.53420  0.30530  0.89260  Biso   1.000  C
  H31      1.0000 0.52320  0.69290  0.15210  Biso   1.000  H
  H32      1.0000 0.47680  0.30710  0.84790  Biso   1.000  H
  C47      1.0000 0.45240  0.78780  0.09050  Biso   1.000  C
  C48      1.0000 0.54760  0.21220  0.90950  Biso   1.000  C
  H33      1.0000 0.49960  0.84820  0.12450  Biso   1.000  H
  H34      1.0000 0.50040  0.15180  0.87550  Biso   1.000  H
  C49      1.0000 0.33260  0.41100  0.04240  Biso   1.000  C
  C50      1.0000 0.66740  0.58900  0.95760  Biso   1.000  C
  H35      1.0000 0.28100  0.41310  0.99260  Biso   1.000  H
  H36      1.0000 0.71900  0.58690  0.00740  Biso   1.000  H
  C51      1.0000 0.40440  0.50420  0.08600  Biso   1.000  C
  C52      1.0000 0.59560  0.49580  0.91400  Biso   1.000  C
  C53      1.0000 0.48110  0.49520  0.15580  Biso   1.000  C
  C54      1.0000 0.51890  0.50480  0.84420  Biso   1.000  C
  H37      1.0000 0.53410  0.55390  0.18760  Biso   1.000  H
  H38      1.0000 0.46590  0.44610  0.81240  Biso   1.000  H
  C55      1.0000 0.47900  0.39880  0.17820  Biso   1.000  C
  C56      1.0000 0.52100  0.60120  0.82180  Biso   1.000  C
  H39      1.0000 0.53200  0.39390  0.22570  Biso   1.000  H
  H40      1.0000 0.46800  0.60610  0.77430  Biso   1.000  H
  C57      1.0000 0.18330  0.10360  0.30160  Biso   1.000  C
  C58      1.0000 0.81670  0.89640  0.69840  Biso   1.000  C
  H41      1.0000 0.23690  0.10100  0.34960  Biso   1.000  H
  H42      1.0000 0.76310  0.89900  0.65040  Biso   1.000  H
  C59      1.0000 0.07070  0.07530  0.32150  Biso   1.000  C
  C60      1.0000 0.92930  0.92470  0.67850  Biso   1.000  C
  C61      1.0000 0.99700  0.08280  0.24850  Biso   1.000  C
  C62      1.0000 0.00300  0.91720  0.75150  Biso   1.000  C
  H43      1.0000 0.91990  0.06620  0.25630  Biso   1.000  H
  H44      1.0000 0.08010  0.93380  0.74370  Biso   1.000  H
  C63      1.0000 0.03760  0.11470  0.16430  Biso   1.000  C
  C64      1.0000 0.96240  0.88530  0.83570  Biso   1.000  C
  H45      1.0000 0.98630  0.11950  0.11540  Biso   1.000  H
  H46      1.0000 0.01370  0.88050  0.88460  Biso   1.000  H
  C65      1.0000 0.10820  0.01870  0.47970  Biso   1.000  C
  C66      1.0000 0.89180  0.98130  0.52030  Biso   1.000  C
  H47      1.0000 0.18390  0.03200  0.46750  Biso   1.000  H
  H48      1.0000 0.81610  0.96800  0.53250  Biso   1.000  H
  C67      1.0000 0.03490  0.03700  0.41390  Biso   1.000  C
  C68      1.0000 0.96510  0.96300  0.58610  Biso   1.000  C
  C69      1.0000 0.92780  0.01940  0.43550  Biso   1.000  C
  C70      1.0000 0.07220  0.98060  0.56450  Biso   1.000  C
  H49      1.0000 0.87620  0.03320  0.39210  Biso   1.000  H
  H50      1.0000 0.12380  0.96680  0.60790  Biso   1.000  H
  C71      1.0000 0.02520  0.50410  0.10870  Biso   1.000  C
  C72      1.0000 0.97480  0.49590  0.89130  Biso   1.000  C
  Cl1      1.0000 0.03310  0.38530  0.06720  Biso   1.000  Cl
  Cl2      1.0000 0.96690  0.61470  0.93280  Biso   1.000  Cl
  Cl3      1.0000 0.14370  0.57780  0.17990  Biso   1.000  Cl
  Cl4      1.0000 0.85630  0.42220  0.82010  Biso   1.000  Cl
  Cl5      1.0000 0.98880  0.56990  0.01850  Biso   1.000  Cl
  Cl6      1.0000 0.01120  0.43010  0.98150  Biso   1.000  Cl
  C73      1.0000 0.04680  0.48340  0.17630  Biso   1.000  C
  C74      1.0000 0.95320  0.51660  0.82370  Biso   1.000  C
  Cl7      1.0000 0.02900  0.35910  0.13000  Biso   1.000  Cl
  Cl8      1.0000 0.97100  0.64090  0.87000  Biso   1.000  Cl
  Cl9      1.0000 0.17990  0.53840  0.23470  Biso   1.000  Cl
  Cl10     1.0000 0.82010  0.46160  0.76530  Biso   1.000  Cl
  Cl11     1.0000 0.02000  0.55900  0.09100  Biso   1.000  Cl
  Cl12     1.0000 0.98000  0.44100  0.90900  Biso   1.000  Cl
  C75      1.0000 0.37000  0.36490  0.52720  Biso   1.000  C
  C76      1.0000 0.63000  0.63510  0.47280  Biso   1.000  C
  Cl13     1.0000 0.49160  0.35630  0.59520  Biso   1.000  Cl
  Cl14     1.0000 0.50840  0.64370  0.40480  Biso   1.000  Cl
  Cl15     1.0000 0.38710  0.36720  0.40910  Biso   1.000  Cl
  Cl16     1.0000 0.61290  0.63280  0.59090  Biso   1.000  Cl
  Cl17     1.0000 0.26320  0.25000  0.54370  Biso   1.000  Cl
  Cl18     1.0000 0.73680  0.75000  0.45630  Biso   1.000  Cl
  Cl19     1.0000 0.36690  0.28020  0.60370  Biso   1.000  Cl
  Cl20     1.0000 0.63310  0.71980  0.39630  Biso   1.000  Cl
  Cl21     1.0000 0.48200  0.39110  0.45420  Biso   1.000  Cl
  Cl22     1.0000 0.51800  0.60890  0.54580  Biso   1.000  Cl
  Cl23     1.0000 0.24300  0.33700  0.45460  Biso   1.000  Cl
  Cl24     1.0000 0.75700  0.66300  0.54540  Biso   1.000  Cl
