data_image0
_cell_length_a       9.5441
_cell_length_b       21.5841
_cell_length_c       9.2209
_cell_angle_alpha    90
_cell_angle_beta     116.219
_cell_angle_gamma    90

_symmetry_space_group_name_H-M    "P 1"
_symmetry_int_tables_number       1

loop_
  _symmetry_equiv_pos_as_xyz
  'x, y, z'

loop_
  _atom_site_label
  _atom_site_occupancy
  _atom_site_fract_x
  _atom_site_fract_y
  _atom_site_fract_z
  _atom_site_thermal_displace_type
  _atom_site_B_iso_or_equiv
  _atom_site_type_symbol
  Cu1      1.0000 0.80864  0.14593  0.95995  Biso   1.000  Cu
  Cu2      1.0000 0.19136  0.64593  0.54005  Biso   1.000  Cu
  Cu3      1.0000 0.19136  0.85407  0.04005  Biso   1.000  Cu
  Cu4      1.0000 0.80864  0.35407  0.45995  Biso   1.000  Cu
  Gd1      1.0000 0.14168  0.50846  0.87590  Biso   1.000  Gd
  Gd2      1.0000 0.85832  0.00846  0.62410  Biso   1.000  Gd
  Gd3      1.0000 0.85832  0.49154  0.12410  Biso   1.000  Gd
  Gd4      1.0000 0.14168  0.99154  0.37590  Biso   1.000  Gd
  C1       1.0000 0.92360  0.26730  0.97130  Biso   1.000  C
  C2       1.0000 0.07640  0.76730  0.52870  Biso   1.000  C
  C3       1.0000 0.07640  0.73270  0.02870  Biso   1.000  C
  C4       1.0000 0.92360  0.23270  0.47130  Biso   1.000  C
  H1       1.0000 0.84740  0.27630  0.00520  Biso   1.000  H
  H2       1.0000 0.15260  0.77630  0.49480  Biso   1.000  H
  H3       1.0000 0.15260  0.72370  0.99480  Biso   1.000  H
  H4       1.0000 0.84740  0.22370  0.50520  Biso   1.000  H
  C5       1.0000 0.00980  0.31640  0.95500  Biso   1.000  C
  C6       1.0000 0.99020  0.81640  0.54500  Biso   1.000  C
  C7       1.0000 0.99020  0.68360  0.04500  Biso   1.000  C
  C8       1.0000 0.00980  0.18360  0.45500  Biso   1.000  C
  C9       1.0000 0.12600  0.30210  0.90680  Biso   1.000  C
  C10      1.0000 0.87400  0.80210  0.59320  Biso   1.000  C
  C11      1.0000 0.87400  0.69790  0.09320  Biso   1.000  C
  C12      1.0000 0.12600  0.19790  0.40680  Biso   1.000  C
  H5       1.0000 0.18660  0.33330  0.89330  Biso   1.000  H
  H6       1.0000 0.81340  0.83330  0.60670  Biso   1.000  H
  H7       1.0000 0.81340  0.66670  0.10670  Biso   1.000  H
  H8       1.0000 0.18660  0.16670  0.39330  Biso   1.000  H
  C13      1.0000 0.14900  0.24110  0.87960  Biso   1.000  C
  C14      1.0000 0.85100  0.74110  0.62040  Biso   1.000  C
  C15      1.0000 0.85100  0.75890  0.12040  Biso   1.000  C
  C16      1.0000 0.14900  0.25890  0.37960  Biso   1.000  C
  H9       1.0000 0.22590  0.23060  0.84790  Biso   1.000  H
  H10      1.0000 0.77410  0.73060  0.65210  Biso   1.000  H
  H11      1.0000 0.77410  0.76940  0.15210  Biso   1.000  H
  H12      1.0000 0.22590  0.26940  0.34790  Biso   1.000  H
  C17      1.0000 0.05760  0.19560  0.89950  Biso   1.000  C
  C18      1.0000 0.94240  0.69560  0.60050  Biso   1.000  C
  C19      1.0000 0.94240  0.80440  0.10050  Biso   1.000  C
  C20      1.0000 0.05760  0.30440  0.39950  Biso   1.000  C
  H13      1.0000 0.07660  0.15450  0.88330  Biso   1.000  H
  H14      1.0000 0.92340  0.65450  0.61670  Biso   1.000  H
  H15      1.0000 0.92340  0.84550  0.11670  Biso   1.000  H
  H16      1.0000 0.07660  0.34550  0.38330  Biso   1.000  H
  C21      1.0000 0.97570  0.38050  0.98780  Biso   1.000  C
  C22      1.0000 0.02430  0.88050  0.51220  Biso   1.000  C
  C23      1.0000 0.02430  0.61950  0.01220  Biso   1.000  C
  C24      1.0000 0.97570  0.11950  0.48780  Biso   1.000  C
  C25      1.0000 0.62280  0.13260  0.12810  Biso   1.000  C
  C26      1.0000 0.37720  0.63260  0.37190  Biso   1.000  C
  C27      1.0000 0.37720  0.86740  0.87190  Biso   1.000  C
  C28      1.0000 0.62280  0.36740  0.62810  Biso   1.000  C
  H17      1.0000 0.70180  0.15640  0.20540  Biso   1.000  H
  H18      1.0000 0.29820  0.65640  0.29460  Biso   1.000  H
  H19      1.0000 0.29820  0.84360  0.79460  Biso   1.000  H
  H20      1.0000 0.70180  0.34360  0.70540  Biso   1.000  H
  C29      1.0000 0.49910  0.11560  0.15770  Biso   1.000  C
  C30      1.0000 0.50090  0.61560  0.34230  Biso   1.000  C
  C31      1.0000 0.50090  0.88440  0.84230  Biso   1.000  C
  C32      1.0000 0.49910  0.38440  0.65770  Biso   1.000  C
  H21      1.0000 0.49540  0.12740  0.25300  Biso   1.000  H
  H22      1.0000 0.50460  0.62740  0.24700  Biso   1.000  H
  H23      1.0000 0.50460  0.87260  0.74700  Biso   1.000  H
  H24      1.0000 0.49540  0.37260  0.75300  Biso   1.000  H
  C33      1.0000 0.38140  0.08100  0.04410  Biso   1.000  C
  C34      1.0000 0.61860  0.58100  0.45590  Biso   1.000  C
  C35      1.0000 0.61860  0.91900  0.95590  Biso   1.000  C
  C36      1.0000 0.38140  0.41900  0.54410  Biso   1.000  C
  H25      1.0000 0.29670  0.06860  0.06140  Biso   1.000  H
  H26      1.0000 0.70330  0.56860  0.43860  Biso   1.000  H
  H27      1.0000 0.70330  0.93140  0.93860  Biso   1.000  H
  H28      1.0000 0.29670  0.43140  0.56140  Biso   1.000  H
  C37      1.0000 0.39020  0.06480  0.90330  Biso   1.000  C
  C38      1.0000 0.60980  0.56480  0.59670  Biso   1.000  C
  C39      1.0000 0.60980  0.93520  0.09670  Biso   1.000  C
  C40      1.0000 0.39020  0.43520  0.40330  Biso   1.000  C
  C41      1.0000 0.51900  0.08260  0.88400  Biso   1.000  C
  C42      1.0000 0.48100  0.58260  0.61600  Biso   1.000  C
  C43      1.0000 0.48100  0.91740  0.11600  Biso   1.000  C
  C44      1.0000 0.51900  0.41740  0.38400  Biso   1.000  C
  H29      1.0000 0.52630  0.07070  0.79070  Biso   1.000  H
  H30      1.0000 0.47370  0.57070  0.70930  Biso   1.000  H
  H31      1.0000 0.47370  0.92930  0.20930  Biso   1.000  H
  H32      1.0000 0.52630  0.42930  0.29070  Biso   1.000  H
  C45      1.0000 0.25800  0.03000  0.76910  Biso   1.000  C
  C46      1.0000 0.74200  0.53000  0.73090  Biso   1.000  C
  C47      1.0000 0.74200  0.97000  0.23090  Biso   1.000  C
  C48      1.0000 0.25800  0.47000  0.26910  Biso   1.000  C
  C49      1.0000 0.50770  0.53540  0.01130  Biso   1.000  C
  C50      1.0000 0.49230  0.03540  0.48870  Biso   1.000  C
  C51      1.0000 0.49230  0.46460  0.98870  Biso   1.000  C
  C52      1.0000 0.50770  0.96460  0.51130  Biso   1.000  C
  C53      1.0000 0.97730  0.03420  0.00360  Biso   1.000  C
  C54      1.0000 0.02270  0.53420  0.49640  Biso   1.000  C
  C55      1.0000 0.02270  0.96580  0.99640  Biso   1.000  C
  C56      1.0000 0.97730  0.46580  0.50360  Biso   1.000  C
  N1       1.0000 0.94270  0.20791  0.94130  Biso   1.000  N
  N2       1.0000 0.05730  0.70791  0.55870  Biso   1.000  N
  N3       1.0000 0.05730  0.79209  0.05870  Biso   1.000  N
  N4       1.0000 0.94270  0.29209  0.44130  Biso   1.000  N
  N5       1.0000 0.63600  0.11700  0.99540  Biso   1.000  N
  N6       1.0000 0.36400  0.61700  0.50460  Biso   1.000  N
  N7       1.0000 0.36400  0.88300  0.00460  Biso   1.000  N
  N8       1.0000 0.63600  0.38300  0.49540  Biso   1.000  N
  O1       1.0000 0.03620  0.42457  0.94810  Biso   1.000  O
  O2       1.0000 0.96380  0.92457  0.55190  Biso   1.000  O
  O3       1.0000 0.96380  0.57543  0.05190  Biso   1.000  O
  O4       1.0000 0.03620  0.07543  0.44810  Biso   1.000  O
  O5       1.0000 0.88790  0.38744  0.05480  Biso   1.000  O
  O6       1.0000 0.11210  0.88744  0.44520  Biso   1.000  O
  O7       1.0000 0.11210  0.61256  0.94520  Biso   1.000  O
  O8       1.0000 0.88790  0.11256  0.55480  Biso   1.000  O
  O9       1.0000 0.28540  0.00472  0.66310  Biso   1.000  O
  O10      1.0000 0.71460  0.50472  0.83690  Biso   1.000  O
  O11      1.0000 0.71460  0.99528  0.33690  Biso   1.000  O
  O12      1.0000 0.28540  0.49528  0.16310  Biso   1.000  O
  O13      1.0000 0.13140  0.02911  0.77860  Biso   1.000  O
  O14      1.0000 0.86860  0.52911  0.72140  Biso   1.000  O
  O15      1.0000 0.86860  0.97089  0.22140  Biso   1.000  O
  O16      1.0000 0.13140  0.47089  0.27860  Biso   1.000  O
  O17      1.0000 0.38380  0.56643  0.94870  Biso   1.000  O
  O18      1.0000 0.61620  0.06643  0.55130  Biso   1.000  O
  O19      1.0000 0.61620  0.43357  0.05130  Biso   1.000  O
  O20      1.0000 0.38380  0.93357  0.44870  Biso   1.000  O
  O21      1.0000 0.64340  0.55661  0.09190  Biso   1.000  O
  O22      1.0000 0.35660  0.05661  0.40810  Biso   1.000  O
  O23      1.0000 0.35660  0.44339  0.90810  Biso   1.000  O
  O24      1.0000 0.64340  0.94339  0.59190  Biso   1.000  O
  O25      1.0000 0.88220  0.05829  0.87110  Biso   1.000  O
  O26      1.0000 0.11780  0.55829  0.62890  Biso   1.000  O
  O27      1.0000 0.11780  0.94171  0.12890  Biso   1.000  O
  O28      1.0000 0.88220  0.44171  0.37110  Biso   1.000  O
  O29      1.0000 0.03860  0.06102  0.13690  Biso   1.000  O
  O30      1.0000 0.96140  0.56102  0.36310  Biso   1.000  O
  O31      1.0000 0.96140  0.93898  0.86310  Biso   1.000  O
  O32      1.0000 0.03860  0.43898  0.63690  Biso   1.000  O
  O33      1.0000 0.60120  0.20150  0.54960  Biso   1.000  O
  O34      1.0000 0.39880  0.70150  0.95040  Biso   1.000  O
  O35      1.0000 0.39880  0.79850  0.45040  Biso   1.000  O
  O36      1.0000 0.60120  0.29850  0.04960  Biso   1.000  O
  H33      1.0000 0.54640  0.20670  0.60040  Biso   1.000  H
  H34      1.0000 0.45360  0.70670  0.89960  Biso   1.000  H
  H35      1.0000 0.45360  0.79330  0.39960  Biso   1.000  H
  H36      1.0000 0.54640  0.29330  0.10040  Biso   1.000  H
  H37      1.0000 0.60650  0.16250  0.54080  Biso   1.000  H
  H38      1.0000 0.39350  0.66250  0.95920  Biso   1.000  H
  H39      1.0000 0.39350  0.83750  0.45920  Biso   1.000  H
  H40      1.0000 0.60650  0.33750  0.04080  Biso   1.000  H
  O37      1.0000 0.46220  0.26530  0.25880  Biso   1.000  O
  O38      1.0000 0.53780  0.76530  0.24120  Biso   1.000  O
  O39      1.0000 0.53780  0.73470  0.74120  Biso   1.000  O
  O40      1.0000 0.46220  0.23470  0.75880  Biso   1.000  O
  H41      1.0000 0.38630  0.24190  0.20080  Biso   1.000  H
  H42      1.0000 0.61370  0.74190  0.29920  Biso   1.000  H
  H43      1.0000 0.61370  0.75810  0.79920  Biso   1.000  H
  H44      1.0000 0.38630  0.25810  0.70080  Biso   1.000  H
  H45      1.0000 0.51230  0.24510  0.34610  Biso   1.000  H
  H46      1.0000 0.48770  0.74510  0.15390  Biso   1.000  H
  H47      1.0000 0.48770  0.75490  0.65390  Biso   1.000  H
  H48      1.0000 0.51230  0.25490  0.84610  Biso   1.000  H
