data_image0
_cell_length_a       3.9006
_cell_length_b       6.928
_cell_length_c       7.7307
_cell_angle_alpha    107.693
_cell_angle_beta     99.426
_cell_angle_gamma    94.527

_symmetry_space_group_name_H-M    "P 1"
_symmetry_int_tables_number       1

loop_
  _symmetry_equiv_pos_as_xyz
  'x, y, z'

loop_
  _atom_site_label
  _atom_site_occupancy
  _atom_site_fract_x
  _atom_site_fract_y
  _atom_site_fract_z
  _atom_site_thermal_displace_type
  _atom_site_B_iso_or_equiv
  _atom_site_type_symbol
  Br1      1.0000 0.77913  0.83901  0.65087  Biso   1.000  Br
  Br2      1.0000 0.22087  0.16099  0.34913  Biso   1.000  Br
  Cu1      1.0000 0.30204  0.05443  0.63630  Biso   1.000  Cu
  Cu2      1.0000 0.69796  0.94557  0.36370  Biso   1.000  Cu
  N1       1.0000 0.42480  0.31880  0.85030  Biso   1.000  N
  N2       1.0000 0.57520  0.68120  0.14970  Biso   1.000  N
  C1       1.0000 0.31510  0.49350  0.83710  Biso   1.000  C
  C2       1.0000 0.68490  0.50650  0.16290  Biso   1.000  C
  H1       1.0000 0.18480  0.49460  0.72230  Biso   1.000  H
  H2       1.0000 0.81520  0.50540  0.27770  Biso   1.000  H
  C3       1.0000 0.61330  0.32950  0.01470  Biso   1.000  C
  C4       1.0000 0.38670  0.67050  0.98530  Biso   1.000  C
  H3       1.0000 0.70090  0.21010  0.02940  Biso   1.000  H
  H4       1.0000 0.29910  0.78990  0.97060  Biso   1.000  H
