data_image0
_cell_length_a       9.985
_cell_length_b       10.998
_cell_length_c       15.174
_cell_angle_alpha    87.89
_cell_angle_beta     76.73
_cell_angle_gamma    77.77

_symmetry_space_group_name_H-M    "P 1"
_symmetry_int_tables_number       1

loop_
  _symmetry_equiv_pos_as_xyz
  'x, y, z'

loop_
  _atom_site_label
  _atom_site_occupancy
  _atom_site_fract_x
  _atom_site_fract_y
  _atom_site_fract_z
  _atom_site_thermal_displace_type
  _atom_site_B_iso_or_equiv
  _atom_site_type_symbol
  I1       1.0000 0.08700  0.13830  0.43810  Biso   1.000  I
  I2       1.0000 0.91300  0.86170  0.56190  Biso   1.000  I
  I3       1.0000 0.15600  0.08590  0.01740  Biso   1.000  I
  I4       1.0000 0.84400  0.91410  0.98260  Biso   1.000  I
  Cu1      1.0000 0.07490  0.91620  0.41580  Biso   1.000  Cu
  Cu2      1.0000 0.92510  0.08380  0.58420  Biso   1.000  Cu
  Cu3      1.0000 0.90470  0.05690  0.08450  Biso   1.000  Cu
  Cu4      1.0000 0.09530  0.94310  0.91550  Biso   1.000  Cu
  P1       1.0000 0.26950  0.79540  0.41040  Biso   1.000  P
  P2       1.0000 0.73050  0.20460  0.58960  Biso   1.000  P
  P3       1.0000 0.78270  0.23810  0.09600  Biso   1.000  P
  P4       1.0000 0.21730  0.76190  0.90400  Biso   1.000  P
  N1       1.0000 0.96100  0.90580  0.32960  Biso   1.000  N
  N2       1.0000 0.03900  0.09420  0.67040  Biso   1.000  N
  N3       1.0000 0.90290  0.95230  0.19350  Biso   1.000  N
  N4       1.0000 0.09710  0.04770  0.80650  Biso   1.000  N
  N5       1.0000 0.04910  0.04780  0.24220  Biso   1.000  N
  N6       1.0000 0.95090  0.95220  0.75780  Biso   1.000  N
  C1       1.0000 0.36400  0.83290  0.48210  Biso   1.000  C
  C2       1.0000 0.63600  0.16710  0.51790  Biso   1.000  C
  C3       1.0000 0.29210  0.86350  0.56590  Biso   1.000  C
  C4       1.0000 0.70790  0.13650  0.43410  Biso   1.000  C
  C5       1.0000 0.36130  0.88860  0.62740  Biso   1.000  C
  C6       1.0000 0.63870  0.11140  0.37260  Biso   1.000  C
  C7       1.0000 0.49570  0.88750  0.60500  Biso   1.000  C
  C8       1.0000 0.50430  0.11250  0.39500  Biso   1.000  C
  C9       1.0000 0.56140  0.85910  0.51970  Biso   1.000  C
  C10      1.0000 0.43860  0.14090  0.48030  Biso   1.000  C
  C11      1.0000 0.49680  0.83260  0.45820  Biso   1.000  C
  C12      1.0000 0.50320  0.16740  0.54180  Biso   1.000  C
  C13      1.0000 0.25130  0.64620  0.44110  Biso   1.000  C
  C14      1.0000 0.74870  0.35380  0.55890  Biso   1.000  C
  C15      1.0000 0.32220  0.58280  0.49730  Biso   1.000  C
  C16      1.0000 0.67780  0.41720  0.50270  Biso   1.000  C
  C17      1.0000 0.30200  0.46990  0.51430  Biso   1.000  C
  C18      1.0000 0.69800  0.53010  0.48570  Biso   1.000  C
  C19      1.0000 0.21580  0.42370  0.47980  Biso   1.000  C
  C20      1.0000 0.78420  0.57630  0.52020  Biso   1.000  C
  C21      1.0000 0.14580  0.48970  0.42820  Biso   1.000  C
  C22      1.0000 0.85420  0.51030  0.57180  Biso   1.000  C
  C23      1.0000 0.16740  0.60060  0.40660  Biso   1.000  C
  C24      1.0000 0.83260  0.39940  0.59340  Biso   1.000  C
  C25      1.0000 0.39120  0.77070  0.31120  Biso   1.000  C
  C26      1.0000 0.60880  0.22930  0.68880  Biso   1.000  C
  C27      1.0000 0.48390  0.67000  0.28700  Biso   1.000  C
  C28      1.0000 0.51610  0.33000  0.71300  Biso   1.000  C
  C29      1.0000 0.57240  0.65800  0.21020  Biso   1.000  C
  C30      1.0000 0.42760  0.34200  0.78980  Biso   1.000  C
  C31      1.0000 0.56700  0.74380  0.15090  Biso   1.000  C
  C32      1.0000 0.43300  0.25620  0.84910  Biso   1.000  C
  C33      1.0000 0.48000  0.85230  0.17390  Biso   1.000  C
  C34      1.0000 0.52000  0.14770  0.82610  Biso   1.000  C
  C35      1.0000 0.39120  0.86330  0.25200  Biso   1.000  C
  C36      1.0000 0.60880  0.13670  0.74800  Biso   1.000  C
  C37      1.0000 0.88570  0.82630  0.33940  Biso   1.000  C
  C38      1.0000 0.11430  0.17370  0.66060  Biso   1.000  C
  C39      1.0000 0.81920  0.80730  0.27970  Biso   1.000  C
  C40      1.0000 0.18080  0.19270  0.72030  Biso   1.000  C
  C41      1.0000 0.83480  0.87330  0.20680  Biso   1.000  C
  C42      1.0000 0.16520  0.12670  0.79320  Biso   1.000  C
  C43      1.0000 0.96970  0.96880  0.25290  Biso   1.000  C
  C44      1.0000 0.03030  0.03120  0.74710  Biso   1.000  C
  C45      1.0000 0.84580  0.33860  0.14900  Biso   1.000  C
  C46      1.0000 0.15420  0.66140  0.85100  Biso   1.000  C
  C47      1.0000 0.90210  0.42980  0.10960  Biso   1.000  C
  C48      1.0000 0.09790  0.57020  0.89040  Biso   1.000  C
  C49      1.0000 0.95930  0.49980  0.15290  Biso   1.000  C
  C50      1.0000 0.04070  0.50020  0.84710  Biso   1.000  C
  C51      1.0000 0.96530  0.47930  0.23560  Biso   1.000  C
  C52      1.0000 0.03470  0.52070  0.76440  Biso   1.000  C
  C53      1.0000 0.90900  0.38770  0.27540  Biso   1.000  C
  C54      1.0000 0.09100  0.61230  0.72460  Biso   1.000  C
  C55      1.0000 0.85290  0.31860  0.23340  Biso   1.000  C
  C56      1.0000 0.14710  0.68140  0.76660  Biso   1.000  C
  C57      1.0000 0.61180  0.25330  0.14940  Biso   1.000  C
  C58      1.0000 0.38820  0.74670  0.85060  Biso   1.000  C
  C59      1.0000 0.54280  0.18640  0.12230  Biso   1.000  C
  C60      1.0000 0.45720  0.81360  0.87770  Biso   1.000  C
  C61      1.0000 0.40470  0.19440  0.16220  Biso   1.000  C
  C62      1.0000 0.59530  0.80560  0.83780  Biso   1.000  C
  C63      1.0000 0.34560  0.26750  0.22980  Biso   1.000  C
  C64      1.0000 0.65440  0.73250  0.77020  Biso   1.000  C
  C65      1.0000 0.41660  0.33210  0.25910  Biso   1.000  C
  C66      1.0000 0.58340  0.66790  0.74090  Biso   1.000  C
  C67      1.0000 0.54770  0.32730  0.22180  Biso   1.000  C
  C68      1.0000 0.45230  0.67270  0.77820  Biso   1.000  C
  C69      1.0000 0.76660  0.31000  0.99640  Biso   1.000  C
  C70      1.0000 0.23340  0.69000  0.00360  Biso   1.000  C
  C71      1.0000 0.82710  0.24930  0.92030  Biso   1.000  C
  C72      1.0000 0.17290  0.75070  0.07970  Biso   1.000  C
  C73      1.0000 0.80620  0.30090  0.84100  Biso   1.000  C
  C74      1.0000 0.19380  0.69910  0.15900  Biso   1.000  C
  C75      1.0000 0.73140  0.41250  0.84210  Biso   1.000  C
  C76      1.0000 0.26860  0.58750  0.15790  Biso   1.000  C
  C77      1.0000 0.66860  0.47230  0.91880  Biso   1.000  C
  C78      1.0000 0.33140  0.52770  0.08120  Biso   1.000  C
  C79      1.0000 0.68530  0.42190  0.99600  Biso   1.000  C
  C80      1.0000 0.31470  0.57810  0.00400  Biso   1.000  C
