data_image0
_cell_length_a       4.87
_cell_length_b       5.36
_cell_length_c       24.519
_cell_angle_alpha    90
_cell_angle_beta     91.07
_cell_angle_gamma    90

_symmetry_space_group_name_H-M    "P 1"
_symmetry_int_tables_number       1

loop_
  _symmetry_equiv_pos_as_xyz
  'x, y, z'

loop_
  _atom_site_label
  _atom_site_occupancy
  _atom_site_fract_x
  _atom_site_fract_y
  _atom_site_fract_z
  _atom_site_thermal_displace_type
  _atom_site_B_iso_or_equiv
  _atom_site_type_symbol
  Cu1      1.0000 0.75000  0.22405  0.25000  Biso   1.000  Cu
  Cu2      1.0000 0.25000  0.77595  0.75000  Biso   1.000  Cu
  N1       1.0000 0.71790  0.96960  0.32005  Biso   1.000  N
  N2       1.0000 0.78210  0.96960  0.17995  Biso   1.000  N
  N3       1.0000 0.28210  0.03040  0.67995  Biso   1.000  N
  N4       1.0000 0.21790  0.03040  0.82005  Biso   1.000  N
  C1       1.0000 0.53200  0.01510  0.35786  Biso   1.000  C
  C2       1.0000 0.96800  0.01510  0.14214  Biso   1.000  C
  C3       1.0000 0.46800  0.98490  0.64214  Biso   1.000  C
  C4       1.0000 0.03200  0.98490  0.85786  Biso   1.000  C
  H1       1.0000 0.42220  0.15640  0.35451  Biso   1.000  H
  H2       1.0000 0.07780  0.15640  0.14549  Biso   1.000  H
  H3       1.0000 0.57780  0.84360  0.64549  Biso   1.000  H
  H4       1.0000 0.92220  0.84360  0.85451  Biso   1.000  H
  C5       1.0000 0.49730  0.85920  0.40174  Biso   1.000  C
  C6       1.0000 0.00270  0.85920  0.09826  Biso   1.000  C
  C7       1.0000 0.50270  0.14080  0.59826  Biso   1.000  C
  C8       1.0000 0.99730  0.14080  0.90174  Biso   1.000  C
  N5       1.0000 0.64460  0.65140  0.40849  Biso   1.000  N
  N6       1.0000 0.85540  0.65140  0.09151  Biso   1.000  N
  N7       1.0000 0.35540  0.34860  0.59151  Biso   1.000  N
  N8       1.0000 0.14460  0.34860  0.90849  Biso   1.000  N
  C9       1.0000 0.83140  0.60840  0.37097  Biso   1.000  C
  C10      1.0000 0.66860  0.60840  0.12903  Biso   1.000  C
  C11      1.0000 0.16860  0.39160  0.62903  Biso   1.000  C
  C12      1.0000 0.33140  0.39160  0.87097  Biso   1.000  C
  H5       1.0000 0.94090  0.46680  0.37433  Biso   1.000  H
  H6       1.0000 0.55910  0.46680  0.12567  Biso   1.000  H
  H7       1.0000 0.05910  0.53320  0.62567  Biso   1.000  H
  H8       1.0000 0.44090  0.53320  0.87433  Biso   1.000  H
  C13      1.0000 0.86990  0.76520  0.32714  Biso   1.000  C
  C14      1.0000 0.63010  0.76520  0.17286  Biso   1.000  C
  C15      1.0000 0.13010  0.23480  0.67286  Biso   1.000  C
  C16      1.0000 0.36990  0.23480  0.82714  Biso   1.000  C
  H9       1.0000 0.00470  0.72740  0.30206  Biso   1.000  H
  H10      1.0000 0.49530  0.72740  0.19794  Biso   1.000  H
  H11      1.0000 0.99530  0.27260  0.69794  Biso   1.000  H
  H12      1.0000 0.50470  0.27260  0.80206  Biso   1.000  H
  C17      1.0000 0.28500  0.92180  0.44324  Biso   1.000  C
  C18      1.0000 0.21500  0.92180  0.05676  Biso   1.000  C
  C19      1.0000 0.71500  0.07820  0.55676  Biso   1.000  C
  C20      1.0000 0.78500  0.07820  0.94324  Biso   1.000  C
  O1       1.0000 0.16400  0.12290  0.44057  Biso   1.000  O
  O2       1.0000 0.33600  0.12290  0.05943  Biso   1.000  O
  O3       1.0000 0.83600  0.87710  0.55943  Biso   1.000  O
  O4       1.0000 0.66400  0.87710  0.94057  Biso   1.000  O
  N9       1.0000 0.24090  0.74930  0.48027  Biso   1.000  N
  N10      1.0000 0.25910  0.74930  0.01973  Biso   1.000  N
  N11      1.0000 0.75910  0.25070  0.51973  Biso   1.000  N
  N12      1.0000 0.74090  0.25070  0.98027  Biso   1.000  N
  H13      1.0000 0.31730  0.60720  0.47700  Biso   1.000  H
  H14      1.0000 0.18270  0.60720  0.02300  Biso   1.000  H
  H15      1.0000 0.68270  0.39280  0.52300  Biso   1.000  H
  H16      1.0000 0.81730  0.39280  0.97700  Biso   1.000  H
  H17      1.0000 0.13870  0.78970  0.50660  Biso   1.000  H
  H18      1.0000 0.36130  0.78970  0.99340  Biso   1.000  H
  H19      1.0000 0.86130  0.21030  0.49340  Biso   1.000  H
  H20      1.0000 0.63870  0.21030  0.00660  Biso   1.000  H
  N13      1.0000 0.36780  0.32050  0.24966  Biso   1.000  N
  N14      1.0000 0.13220  0.32050  0.25034  Biso   1.000  N
  N15      1.0000 0.63220  0.67950  0.75034  Biso   1.000  N
  N16      1.0000 0.86780  0.67950  0.74966  Biso   1.000  N
