data_image0
_cell_length_a       5.293
_cell_length_b       21.946
_cell_length_c       6.011
_cell_angle_alpha    90
_cell_angle_beta     96.21
_cell_angle_gamma    90

_symmetry_space_group_name_H-M    "P 1"
_symmetry_int_tables_number       1

loop_
  _symmetry_equiv_pos_as_xyz
  'x, y, z'

loop_
  _atom_site_label
  _atom_site_occupancy
  _atom_site_fract_x
  _atom_site_fract_y
  _atom_site_fract_z
  _atom_site_thermal_displace_type
  _atom_site_B_iso_or_equiv
  _atom_site_type_symbol
  Cu1      1.0000 0.24934  0.25000  0.74566  Biso   1.000  Cu
  Cu2      1.0000 0.75066  0.75000  0.25434  Biso   1.000  Cu
  S1       1.0000 0.92740  0.25000  0.44680  Biso   1.000  S
  S2       1.0000 0.07260  0.75000  0.55320  Biso   1.000  S
  C1       1.0000 0.07570  0.25000  0.22060  Biso   1.000  C
  C2       1.0000 0.92430  0.75000  0.77940  Biso   1.000  C
  N1       1.0000 0.16530  0.25000  0.05350  Biso   1.000  N
  N2       1.0000 0.83470  0.75000  0.94650  Biso   1.000  N
  N3       1.0000 0.46750  0.32739  0.70650  Biso   1.000  N
  N4       1.0000 0.53250  0.82739  0.29350  Biso   1.000  N
  N5       1.0000 0.53250  0.67261  0.29350  Biso   1.000  N
  N6       1.0000 0.46750  0.17261  0.70650  Biso   1.000  N
  C3       1.0000 0.43640  0.36209  0.52400  Biso   1.000  C
  C4       1.0000 0.56360  0.86209  0.47600  Biso   1.000  C
  C5       1.0000 0.56360  0.63791  0.47600  Biso   1.000  C
  C6       1.0000 0.43640  0.13791  0.52400  Biso   1.000  C
  H1       1.0000 0.29140  0.35510  0.42580  Biso   1.000  H
  H2       1.0000 0.70860  0.85510  0.57420  Biso   1.000  H
  H3       1.0000 0.70860  0.64490  0.57420  Biso   1.000  H
  H4       1.0000 0.29140  0.14490  0.42580  Biso   1.000  H
  C7       1.0000 0.60590  0.40778  0.48460  Biso   1.000  C
  C8       1.0000 0.39410  0.90778  0.51540  Biso   1.000  C
  C9       1.0000 0.39410  0.59222  0.51540  Biso   1.000  C
  C10      1.0000 0.60590  0.09222  0.48460  Biso   1.000  C
  N7       1.0000 0.81300  0.41927  0.62540  Biso   1.000  N
  N8       1.0000 0.18700  0.91927  0.37460  Biso   1.000  N
  N9       1.0000 0.18700  0.58073  0.37460  Biso   1.000  N
  N10      1.0000 0.81300  0.08073  0.62540  Biso   1.000  N
  C11      1.0000 0.84240  0.38510  0.80890  Biso   1.000  C
  C12      1.0000 0.15760  0.88510  0.19110  Biso   1.000  C
  C13      1.0000 0.15760  0.61490  0.19110  Biso   1.000  C
  C14      1.0000 0.84240  0.11490  0.80890  Biso   1.000  C
  H5       1.0000 0.98370  0.39120  0.89880  Biso   1.000  H
  H6       1.0000 0.01630  0.89120  0.10120  Biso   1.000  H
  H7       1.0000 0.01630  0.60880  0.10120  Biso   1.000  H
  H8       1.0000 0.98370  0.10880  0.89880  Biso   1.000  H
  C15      1.0000 0.67150  0.34040  0.85100  Biso   1.000  C
  C16      1.0000 0.32850  0.84040  0.14900  Biso   1.000  C
  C17      1.0000 0.32850  0.65960  0.14900  Biso   1.000  C
  C18      1.0000 0.67150  0.15960  0.85100  Biso   1.000  C
  H9       1.0000 0.68860  0.31660  0.96740  Biso   1.000  H
  H10      1.0000 0.31140  0.81660  0.03260  Biso   1.000  H
  H11      1.0000 0.31140  0.68340  0.03260  Biso   1.000  H
  H12      1.0000 0.68860  0.18340  0.96740  Biso   1.000  H
  C19      1.0000 0.55460  0.44608  0.27820  Biso   1.000  C
  C20      1.0000 0.44540  0.94608  0.72180  Biso   1.000  C
  C21      1.0000 0.44540  0.55392  0.72180  Biso   1.000  C
  C22      1.0000 0.55460  0.05392  0.27820  Biso   1.000  C
  O1       1.0000 0.34940  0.44195  0.16240  Biso   1.000  O
  O2       1.0000 0.65060  0.94195  0.83760  Biso   1.000  O
  O3       1.0000 0.65060  0.55805  0.83760  Biso   1.000  O
  O4       1.0000 0.34940  0.05805  0.16240  Biso   1.000  O
  N11      1.0000 0.73940  0.48310  0.23260  Biso   1.000  N
  N12      1.0000 0.26060  0.98310  0.76740  Biso   1.000  N
  N13      1.0000 0.26060  0.51690  0.76740  Biso   1.000  N
  N14      1.0000 0.73940  0.01690  0.23260  Biso   1.000  N
  H13      1.0000 0.73060  0.50430  0.11330  Biso   1.000  H
  H14      1.0000 0.26940  0.00430  0.88670  Biso   1.000  H
  H15      1.0000 0.26940  0.49570  0.88670  Biso   1.000  H
  H16      1.0000 0.73060  0.99570  0.11330  Biso   1.000  H
  H17      1.0000 0.87640  0.48740  0.31560  Biso   1.000  H
  H18      1.0000 0.12360  0.98740  0.68440  Biso   1.000  H
  H19      1.0000 0.12360  0.51260  0.68440  Biso   1.000  H
  H20      1.0000 0.87640  0.01260  0.31560  Biso   1.000  H
