data_image0
_cell_length_a       7.2543
_cell_length_b       7.7658
_cell_length_c       13.092
_cell_angle_alpha    90
_cell_angle_beta     103.24
_cell_angle_gamma    90

_symmetry_space_group_name_H-M    "P 1"
_symmetry_int_tables_number       1

loop_
  _symmetry_equiv_pos_as_xyz
  'x, y, z'

loop_
  _atom_site_label
  _atom_site_occupancy
  _atom_site_fract_x
  _atom_site_fract_y
  _atom_site_fract_z
  _atom_site_thermal_displace_type
  _atom_site_B_iso_or_equiv
  _atom_site_type_symbol
  Cu1      1.0000 0.54988  0.02564  0.10072  Biso   1.000  Cu
  Cu2      1.0000 0.45012  0.52564  0.39928  Biso   1.000  Cu
  Cu3      1.0000 0.45012  0.97436  0.89928  Biso   1.000  Cu
  Cu4      1.0000 0.54988  0.47436  0.60072  Biso   1.000  Cu
  C1       1.0000 0.16520  0.52190  0.85380  Biso   1.000  C
  C2       1.0000 0.83480  0.02190  0.64620  Biso   1.000  C
  C3       1.0000 0.83480  0.47810  0.14620  Biso   1.000  C
  C4       1.0000 0.16520  0.97810  0.35380  Biso   1.000  C
  H1       1.0000 0.17000  0.45700  0.80300  Biso   1.000  H
  H2       1.0000 0.83000  0.95700  0.69700  Biso   1.000  H
  H3       1.0000 0.83000  0.54300  0.19700  Biso   1.000  H
  H4       1.0000 0.17000  0.04300  0.30300  Biso   1.000  H
  C5       1.0000 0.08460  0.68270  0.84020  Biso   1.000  C
  C6       1.0000 0.91540  0.18270  0.65980  Biso   1.000  C
  C7       1.0000 0.91540  0.31730  0.15980  Biso   1.000  C
  C8       1.0000 0.08460  0.81730  0.34020  Biso   1.000  C
  H5       1.0000 0.03700  0.72700  0.77300  Biso   1.000  H
  H6       1.0000 0.96300  0.22700  0.72700  Biso   1.000  H
  H7       1.0000 0.96300  0.27300  0.22700  Biso   1.000  H
  H8       1.0000 0.03700  0.77300  0.27300  Biso   1.000  H
  C9       1.0000 0.08620  0.79070  0.92650  Biso   1.000  C
  C10      1.0000 0.91380  0.29070  0.57350  Biso   1.000  C
  C11      1.0000 0.91380  0.20930  0.07350  Biso   1.000  C
  C12      1.0000 0.08620  0.70930  0.42650  Biso   1.000  C
  H9       1.0000 0.04100  0.89400  0.91500  Biso   1.000  H
  H10      1.0000 0.95900  0.39400  0.58500  Biso   1.000  H
  H11      1.0000 0.95900  0.10600  0.08500  Biso   1.000  H
  H12      1.0000 0.04100  0.60600  0.41500  Biso   1.000  H
  C13      1.0000 0.16910  0.73370  0.02630  Biso   1.000  C
  C14      1.0000 0.83090  0.23370  0.47370  Biso   1.000  C
  C15      1.0000 0.83090  0.26630  0.97370  Biso   1.000  C
  C16      1.0000 0.16910  0.76630  0.52630  Biso   1.000  C
  H13      1.0000 0.18500  0.80400  0.08000  Biso   1.000  H
  H14      1.0000 0.81500  0.30400  0.42000  Biso   1.000  H
  H15      1.0000 0.81500  0.19600  0.92000  Biso   1.000  H
  H16      1.0000 0.18500  0.69600  0.58000  Biso   1.000  H
  C17      1.0000 0.24870  0.56900  0.04160  Biso   1.000  C
  C18      1.0000 0.75130  0.06900  0.45840  Biso   1.000  C
  C19      1.0000 0.75130  0.43100  0.95840  Biso   1.000  C
  C20      1.0000 0.24870  0.93100  0.54160  Biso   1.000  C
  C21      1.0000 0.24630  0.46200  0.95510  Biso   1.000  C
  C22      1.0000 0.75370  0.96200  0.54490  Biso   1.000  C
  C23      1.0000 0.75370  0.53800  0.04490  Biso   1.000  C
  C24      1.0000 0.24630  0.03800  0.45510  Biso   1.000  C
  C25      1.0000 0.32930  0.28920  0.97160  Biso   1.000  C
  C26      1.0000 0.67070  0.78920  0.52840  Biso   1.000  C
  C27      1.0000 0.67070  0.71080  0.02840  Biso   1.000  C
  C28      1.0000 0.32930  0.21080  0.47160  Biso   1.000  C
  C29      1.0000 0.33810  0.50810  0.14660  Biso   1.000  C
  C30      1.0000 0.66190  0.00810  0.35340  Biso   1.000  C
  C31      1.0000 0.66190  0.49190  0.85340  Biso   1.000  C
  C32      1.0000 0.33810  0.99190  0.64660  Biso   1.000  C
  N1       1.0000 0.40520  0.23310  0.06850  Biso   1.000  N
  N2       1.0000 0.59480  0.73310  0.43150  Biso   1.000  N
  N3       1.0000 0.59480  0.76690  0.93150  Biso   1.000  N
  N4       1.0000 0.40520  0.26690  0.56850  Biso   1.000  N
  N5       1.0000 0.40250  0.34570  0.15250  Biso   1.000  N
  N6       1.0000 0.59750  0.84570  0.34750  Biso   1.000  N
  N7       1.0000 0.59750  0.65430  0.84750  Biso   1.000  N
  N8       1.0000 0.40250  0.15430  0.65250  Biso   1.000  N
  H17      1.0000 0.46000  0.30300  0.20800  Biso   1.000  H
  H18      1.0000 0.54000  0.80300  0.29200  Biso   1.000  H
  H19      1.0000 0.54000  0.69700  0.79200  Biso   1.000  H
  H20      1.0000 0.46000  0.19700  0.70800  Biso   1.000  H
  O1       1.0000 0.33080  0.19330  0.89150  Biso   1.000  O
  O2       1.0000 0.66920  0.69330  0.60850  Biso   1.000  O
  O3       1.0000 0.66920  0.80670  0.10850  Biso   1.000  O
  O4       1.0000 0.33080  0.30670  0.39150  Biso   1.000  O
  O5       1.0000 0.35510  0.59820  0.22790  Biso   1.000  O
  O6       1.0000 0.64490  0.09820  0.27210  Biso   1.000  O
  O7       1.0000 0.64490  0.40180  0.77210  Biso   1.000  O
  O8       1.0000 0.35510  0.90180  0.72790  Biso   1.000  O
