data_image0
_cell_length_a       13.989
_cell_length_b       13.989
_cell_length_c       16.395
_cell_angle_alpha    90
_cell_angle_beta     90
_cell_angle_gamma    120

_symmetry_space_group_name_H-M    "P 1"
_symmetry_int_tables_number       1

loop_
  _symmetry_equiv_pos_as_xyz
  'x, y, z'

loop_
  _atom_site_label
  _atom_site_occupancy
  _atom_site_fract_x
  _atom_site_fract_y
  _atom_site_fract_z
  _atom_site_thermal_displace_type
  _atom_site_B_iso_or_equiv
  _atom_site_type_symbol
  N1       1.0000 0.00000  0.00000  0.21000  Biso   1.000  N
  N2       1.0000 0.00000  0.00000  0.29000  Biso   1.000  N
  N3       1.0000 0.00000  0.00000  0.79000  Biso   1.000  N
  N4       1.0000 0.00000  0.00000  0.71000  Biso   1.000  N
  C1       1.0000 0.00000  0.00000  0.14100  Biso   1.000  C
  C2       1.0000 0.00000  0.00000  0.35900  Biso   1.000  C
  C3       1.0000 0.00000  0.00000  0.85900  Biso   1.000  C
  C4       1.0000 0.00000  0.00000  0.64100  Biso   1.000  C
  C5       1.0000 0.00000  0.00000  0.04800  Biso   1.000  C
  C6       1.0000 0.00000  0.00000  0.45200  Biso   1.000  C
  C7       1.0000 0.00000  0.00000  0.95200  Biso   1.000  C
  C8       1.0000 0.00000  0.00000  0.54800  Biso   1.000  C
  Cu1      1.0000 0.66670  0.33330  0.42593  Biso   1.000  Cu
  Cu2      1.0000 0.33330  0.66670  0.07407  Biso   1.000  Cu
  Cu3      1.0000 0.33330  0.66670  0.57407  Biso   1.000  Cu
  Cu4      1.0000 0.66670  0.33330  0.92593  Biso   1.000  Cu
  I1       1.0000 0.66670  0.33330  0.26551  Biso   1.000  I
  I2       1.0000 0.33330  0.66670  0.23449  Biso   1.000  I
  I3       1.0000 0.33330  0.66670  0.73449  Biso   1.000  I
  I4       1.0000 0.66670  0.33330  0.76551  Biso   1.000  I
  N5       1.0000 0.54520  0.35870  0.47920  Biso   1.000  N
  N6       1.0000 0.64130  0.18650  0.47920  Biso   1.000  N
  N7       1.0000 0.81350  0.45480  0.47920  Biso   1.000  N
  N8       1.0000 0.35870  0.54520  0.02080  Biso   1.000  N
  N9       1.0000 0.45480  0.81350  0.02080  Biso   1.000  N
  N10      1.0000 0.18650  0.64130  0.02080  Biso   1.000  N
  N11      1.0000 0.45480  0.64130  0.52080  Biso   1.000  N
  N12      1.0000 0.35870  0.81350  0.52080  Biso   1.000  N
  N13      1.0000 0.18650  0.54520  0.52080  Biso   1.000  N
  N14      1.0000 0.64130  0.45480  0.97920  Biso   1.000  N
  N15      1.0000 0.54520  0.18650  0.97920  Biso   1.000  N
  N16      1.0000 0.81350  0.35870  0.97920  Biso   1.000  N
  N17      1.0000 0.45530  0.38830  0.57850  Biso   1.000  N
  N18      1.0000 0.61170  0.06700  0.57850  Biso   1.000  N
  N19      1.0000 0.93300  0.54470  0.57850  Biso   1.000  N
  N20      1.0000 0.38830  0.45530  0.92150  Biso   1.000  N
  N21      1.0000 0.54470  0.93300  0.92150  Biso   1.000  N
  N22      1.0000 0.06700  0.61170  0.92150  Biso   1.000  N
  N23      1.0000 0.54470  0.61170  0.42150  Biso   1.000  N
  N24      1.0000 0.38830  0.93300  0.42150  Biso   1.000  N
  N25      1.0000 0.06700  0.45530  0.42150  Biso   1.000  N
  N26      1.0000 0.61170  0.54470  0.07850  Biso   1.000  N
  N27      1.0000 0.45530  0.06700  0.07850  Biso   1.000  N
  N28      1.0000 0.93300  0.38830  0.07850  Biso   1.000  N
  C9       1.0000 0.44250  0.33170  0.45160  Biso   1.000  C
  C10      1.0000 0.66830  0.11080  0.45160  Biso   1.000  C
  C11      1.0000 0.88920  0.55750  0.45160  Biso   1.000  C
  C12      1.0000 0.33170  0.44250  0.04840  Biso   1.000  C
  C13      1.0000 0.55750  0.88920  0.04840  Biso   1.000  C
  C14      1.0000 0.11080  0.66830  0.04840  Biso   1.000  C
  C15      1.0000 0.55750  0.66830  0.54840  Biso   1.000  C
  C16      1.0000 0.33170  0.88920  0.54840  Biso   1.000  C
  C17      1.0000 0.11080  0.44250  0.54840  Biso   1.000  C
  C18      1.0000 0.66830  0.55750  0.95160  Biso   1.000  C
  C19      1.0000 0.44250  0.11080  0.95160  Biso   1.000  C
  C20      1.0000 0.88920  0.33170  0.95160  Biso   1.000  C
  C21      1.0000 0.39280  0.29170  0.37560  Biso   1.000  C
  C22      1.0000 0.70830  0.10110  0.37560  Biso   1.000  C
  C23      1.0000 0.89890  0.60720  0.37560  Biso   1.000  C
  C24      1.0000 0.29170  0.39280  0.12440  Biso   1.000  C
  C25      1.0000 0.60720  0.89890  0.12440  Biso   1.000  C
  C26      1.0000 0.10110  0.70830  0.12440  Biso   1.000  C
  C27      1.0000 0.60720  0.70830  0.62440  Biso   1.000  C
  C28      1.0000 0.29170  0.89890  0.62440  Biso   1.000  C
  C29      1.0000 0.10110  0.39280  0.62440  Biso   1.000  C
  C30      1.0000 0.70830  0.60720  0.87560  Biso   1.000  C
  C31      1.0000 0.39280  0.10110  0.87560  Biso   1.000  C
  C32      1.0000 0.89890  0.29170  0.87560  Biso   1.000  C
  H1       1.0000 0.43090  0.28110  0.33340  Biso   1.000  H
  H2       1.0000 0.71890  0.14980  0.33340  Biso   1.000  H
  H3       1.0000 0.85020  0.56910  0.33340  Biso   1.000  H
  H4       1.0000 0.28110  0.43090  0.16660  Biso   1.000  H
  H5       1.0000 0.56910  0.85020  0.16660  Biso   1.000  H
  H6       1.0000 0.14980  0.71890  0.16660  Biso   1.000  H
  H7       1.0000 0.56910  0.71890  0.66660  Biso   1.000  H
  H8       1.0000 0.28110  0.85020  0.66660  Biso   1.000  H
  H9       1.0000 0.14980  0.43090  0.66660  Biso   1.000  H
  H10      1.0000 0.71890  0.56910  0.83340  Biso   1.000  H
  H11      1.0000 0.43090  0.14980  0.83340  Biso   1.000  H
  H12      1.0000 0.85020  0.28110  0.83340  Biso   1.000  H
  C33      1.0000 0.28620  0.26890  0.36540  Biso   1.000  C
  C34      1.0000 0.73110  0.01730  0.36540  Biso   1.000  C
  C35      1.0000 0.98270  0.71380  0.36540  Biso   1.000  C
  C36      1.0000 0.26890  0.28620  0.13460  Biso   1.000  C
  C37      1.0000 0.71380  0.98270  0.13460  Biso   1.000  C
  C38      1.0000 0.01730  0.73110  0.13460  Biso   1.000  C
  C39      1.0000 0.71380  0.73110  0.63460  Biso   1.000  C
  C40      1.0000 0.26890  0.98270  0.63460  Biso   1.000  C
  C41      1.0000 0.01730  0.28620  0.63460  Biso   1.000  C
  C42      1.0000 0.73110  0.71380  0.86540  Biso   1.000  C
  C43      1.0000 0.28620  0.01730  0.86540  Biso   1.000  C
  C44      1.0000 0.98270  0.26890  0.86540  Biso   1.000  C
  H13      1.0000 0.25020  0.23930  0.31620  Biso   1.000  H
  H14      1.0000 0.76070  0.01090  0.31620  Biso   1.000  H
  H15      1.0000 0.98910  0.74980  0.31620  Biso   1.000  H
  H16      1.0000 0.23930  0.25020  0.18380  Biso   1.000  H
  H17      1.0000 0.74980  0.98910  0.18380  Biso   1.000  H
  H18      1.0000 0.01090  0.76070  0.18380  Biso   1.000  H
  H19      1.0000 0.74980  0.76070  0.68380  Biso   1.000  H
  H20      1.0000 0.23930  0.98910  0.68380  Biso   1.000  H
  H21      1.0000 0.01090  0.25020  0.68380  Biso   1.000  H
  H22      1.0000 0.76070  0.74980  0.81620  Biso   1.000  H
  H23      1.0000 0.25020  0.01090  0.81620  Biso   1.000  H
  H24      1.0000 0.98910  0.23930  0.81620  Biso   1.000  H
  C45      1.0000 0.23090  0.28960  0.42820  Biso   1.000  C
  C46      1.0000 0.71040  0.94130  0.42820  Biso   1.000  C
  C47      1.0000 0.05870  0.76910  0.42820  Biso   1.000  C
  C48      1.0000 0.28960  0.23090  0.07180  Biso   1.000  C
  C49      1.0000 0.76910  0.05870  0.07180  Biso   1.000  C
  C50      1.0000 0.94130  0.71040  0.07180  Biso   1.000  C
  C51      1.0000 0.76910  0.71040  0.57180  Biso   1.000  C
  C52      1.0000 0.28960  0.05870  0.57180  Biso   1.000  C
  C53      1.0000 0.94130  0.23090  0.57180  Biso   1.000  C
  C54      1.0000 0.71040  0.76910  0.92820  Biso   1.000  C
  C55      1.0000 0.23090  0.94130  0.92820  Biso   1.000  C
  C56      1.0000 0.05870  0.28960  0.92820  Biso   1.000  C
  H25      1.0000 0.15970  0.27620  0.41890  Biso   1.000  H
  H26      1.0000 0.72380  0.88350  0.41890  Biso   1.000  H
  H27      1.0000 0.11650  0.84030  0.41890  Biso   1.000  H
  H28      1.0000 0.27620  0.15970  0.08110  Biso   1.000  H
  H29      1.0000 0.84030  0.11650  0.08110  Biso   1.000  H
  H30      1.0000 0.88350  0.72380  0.08110  Biso   1.000  H
  H31      1.0000 0.84030  0.72380  0.58110  Biso   1.000  H
  H32      1.0000 0.27620  0.11650  0.58110  Biso   1.000  H
  H33      1.0000 0.88350  0.15970  0.58110  Biso   1.000  H
  H34      1.0000 0.72380  0.84030  0.91890  Biso   1.000  H
  H35      1.0000 0.15970  0.88350  0.91890  Biso   1.000  H
  H36      1.0000 0.11650  0.27620  0.91890  Biso   1.000  H
  C57      1.0000 0.27760  0.32820  0.50190  Biso   1.000  C
  C58      1.0000 0.67180  0.94940  0.50190  Biso   1.000  C
  C59      1.0000 0.05060  0.72240  0.50190  Biso   1.000  C
  C60      1.0000 0.32820  0.27760  0.99810  Biso   1.000  C
  C61      1.0000 0.72240  0.05060  0.99810  Biso   1.000  C
  C62      1.0000 0.94940  0.67180  0.99810  Biso   1.000  C
  C63      1.0000 0.72240  0.67180  0.49810  Biso   1.000  C
  C64      1.0000 0.32820  0.05060  0.49810  Biso   1.000  C
  C65      1.0000 0.94940  0.27760  0.49810  Biso   1.000  C
  C66      1.0000 0.67180  0.72240  0.00190  Biso   1.000  C
  C67      1.0000 0.27760  0.94940  0.00190  Biso   1.000  C
  C68      1.0000 0.05060  0.32820  0.00190  Biso   1.000  C
  H37      1.0000 0.23910  0.33970  0.54340  Biso   1.000  H
  H38      1.0000 0.66030  0.89940  0.54340  Biso   1.000  H
  H39      1.0000 0.10060  0.76090  0.54340  Biso   1.000  H
  H40      1.0000 0.33970  0.23910  0.95660  Biso   1.000  H
  H41      1.0000 0.76090  0.10060  0.95660  Biso   1.000  H
  H42      1.0000 0.89940  0.66030  0.95660  Biso   1.000  H
  H43      1.0000 0.76090  0.66030  0.45660  Biso   1.000  H
  H44      1.0000 0.33970  0.10060  0.45660  Biso   1.000  H
  H45      1.0000 0.89940  0.23910  0.45660  Biso   1.000  H
  H46      1.0000 0.66030  0.76090  0.04340  Biso   1.000  H
  H47      1.0000 0.23910  0.89940  0.04340  Biso   1.000  H
  H48      1.0000 0.10060  0.33970  0.04340  Biso   1.000  H
  C69      1.0000 0.38450  0.35020  0.51370  Biso   1.000  C
  C70      1.0000 0.64980  0.03430  0.51370  Biso   1.000  C
  C71      1.0000 0.96570  0.61550  0.51370  Biso   1.000  C
  C72      1.0000 0.35020  0.38450  0.98630  Biso   1.000  C
  C73      1.0000 0.61550  0.96570  0.98630  Biso   1.000  C
  C74      1.0000 0.03430  0.64980  0.98630  Biso   1.000  C
  C75      1.0000 0.61550  0.64980  0.48630  Biso   1.000  C
  C76      1.0000 0.35020  0.96570  0.48630  Biso   1.000  C
  C77      1.0000 0.03430  0.38450  0.48630  Biso   1.000  C
  C78      1.0000 0.64980  0.61550  0.01370  Biso   1.000  C
  C79      1.0000 0.38450  0.03430  0.01370  Biso   1.000  C
  C80      1.0000 0.96570  0.35020  0.01370  Biso   1.000  C
  C81      1.0000 0.54940  0.39330  0.55430  Biso   1.000  C
  C82      1.0000 0.60670  0.15610  0.55430  Biso   1.000  C
  C83      1.0000 0.84390  0.45060  0.55430  Biso   1.000  C
  C84      1.0000 0.39330  0.54940  0.94570  Biso   1.000  C
  C85      1.0000 0.45060  0.84390  0.94570  Biso   1.000  C
  C86      1.0000 0.15610  0.60670  0.94570  Biso   1.000  C
  C87      1.0000 0.45060  0.60670  0.44570  Biso   1.000  C
  C88      1.0000 0.39330  0.84390  0.44570  Biso   1.000  C
  C89      1.0000 0.15610  0.54940  0.44570  Biso   1.000  C
  C90      1.0000 0.60670  0.45060  0.05430  Biso   1.000  C
  C91      1.0000 0.54940  0.15610  0.05430  Biso   1.000  C
  C92      1.0000 0.84390  0.39330  0.05430  Biso   1.000  C
  H49      1.0000 0.61130  0.41870  0.58750  Biso   1.000  H
  H50      1.0000 0.58130  0.19260  0.58750  Biso   1.000  H
  H51      1.0000 0.80740  0.38870  0.58750  Biso   1.000  H
  H52      1.0000 0.41870  0.61130  0.91250  Biso   1.000  H
  H53      1.0000 0.38870  0.80740  0.91250  Biso   1.000  H
  H54      1.0000 0.19260  0.58130  0.91250  Biso   1.000  H
  H55      1.0000 0.38870  0.58130  0.41250  Biso   1.000  H
  H56      1.0000 0.41870  0.80740  0.41250  Biso   1.000  H
  H57      1.0000 0.19260  0.61130  0.41250  Biso   1.000  H
  H58      1.0000 0.58130  0.38870  0.08750  Biso   1.000  H
  H59      1.0000 0.61130  0.19260  0.08750  Biso   1.000  H
  H60      1.0000 0.80740  0.41870  0.08750  Biso   1.000  H
  C93      1.0000 0.43360  0.42200  0.65870  Biso   1.000  C
  C94      1.0000 0.57800  0.01160  0.65870  Biso   1.000  C
  C95      1.0000 0.98840  0.56640  0.65870  Biso   1.000  C
  C96      1.0000 0.42200  0.43360  0.84130  Biso   1.000  C
  C97      1.0000 0.56640  0.98840  0.84130  Biso   1.000  C
  C98      1.0000 0.01160  0.57800  0.84130  Biso   1.000  C
  C99      1.0000 0.56640  0.57800  0.34130  Biso   1.000  C
  C100     1.0000 0.42200  0.98840  0.34130  Biso   1.000  C
  C101     1.0000 0.01160  0.43360  0.34130  Biso   1.000  C
  C102     1.0000 0.57800  0.56640  0.15870  Biso   1.000  C
  C103     1.0000 0.43360  0.01160  0.15870  Biso   1.000  C
  C104     1.0000 0.98840  0.42200  0.15870  Biso   1.000  C
  H61      1.0000 0.40050  0.46780  0.65060  Biso   1.000  H
  H62      1.0000 0.53220  0.93270  0.65060  Biso   1.000  H
  H63      1.0000 0.06730  0.59950  0.65060  Biso   1.000  H
  H64      1.0000 0.46780  0.40050  0.84940  Biso   1.000  H
  H65      1.0000 0.59950  0.06730  0.84940  Biso   1.000  H
  H66      1.0000 0.93270  0.53220  0.84940  Biso   1.000  H
  H67      1.0000 0.59950  0.53220  0.34940  Biso   1.000  H
  H68      1.0000 0.46780  0.06730  0.34940  Biso   1.000  H
  H69      1.0000 0.93270  0.40050  0.34940  Biso   1.000  H
  H70      1.0000 0.53220  0.59950  0.15060  Biso   1.000  H
  H71      1.0000 0.40050  0.93270  0.15060  Biso   1.000  H
  H72      1.0000 0.06730  0.46780  0.15060  Biso   1.000  H
  H73      1.0000 0.50290  0.46550  0.68730  Biso   1.000  H
  H74      1.0000 0.53450  0.03740  0.68730  Biso   1.000  H
  H75      1.0000 0.96260  0.49710  0.68730  Biso   1.000  H
  H76      1.0000 0.46550  0.50290  0.81270  Biso   1.000  H
  H77      1.0000 0.49710  0.96260  0.81270  Biso   1.000  H
  H78      1.0000 0.03740  0.53450  0.81270  Biso   1.000  H
  H79      1.0000 0.49710  0.53450  0.31270  Biso   1.000  H
  H80      1.0000 0.46550  0.96260  0.31270  Biso   1.000  H
  H81      1.0000 0.03740  0.50290  0.31270  Biso   1.000  H
  H82      1.0000 0.53450  0.49710  0.18730  Biso   1.000  H
  H83      1.0000 0.50290  0.03740  0.18730  Biso   1.000  H
  H84      1.0000 0.96260  0.46550  0.18730  Biso   1.000  H
  C105     1.0000 0.35720  0.32270  0.71040  Biso   1.000  C
  C106     1.0000 0.67730  0.03450  0.71040  Biso   1.000  C
  C107     1.0000 0.96550  0.64280  0.71040  Biso   1.000  C
  C108     1.0000 0.32270  0.35720  0.78960  Biso   1.000  C
  C109     1.0000 0.64280  0.96550  0.78960  Biso   1.000  C
  C110     1.0000 0.03450  0.67730  0.78960  Biso   1.000  C
  C111     1.0000 0.64280  0.67730  0.28960  Biso   1.000  C
  C112     1.0000 0.32270  0.96550  0.28960  Biso   1.000  C
  C113     1.0000 0.03450  0.35720  0.28960  Biso   1.000  C
  C114     1.0000 0.67730  0.64280  0.21040  Biso   1.000  C
  C115     1.0000 0.35720  0.03450  0.21040  Biso   1.000  C
  C116     1.0000 0.96550  0.32270  0.21040  Biso   1.000  C
  H85      1.0000 0.39410  0.28180  0.72420  Biso   1.000  H
  H86      1.0000 0.71820  0.11230  0.72420  Biso   1.000  H
  H87      1.0000 0.88770  0.60590  0.72420  Biso   1.000  H
  H88      1.0000 0.28180  0.39410  0.77580  Biso   1.000  H
  H89      1.0000 0.60590  0.88770  0.77580  Biso   1.000  H
  H90      1.0000 0.11230  0.71820  0.77580  Biso   1.000  H
  H91      1.0000 0.60590  0.71820  0.27580  Biso   1.000  H
  H92      1.0000 0.28180  0.88770  0.27580  Biso   1.000  H
  H93      1.0000 0.11230  0.39410  0.27580  Biso   1.000  H
  H94      1.0000 0.71820  0.60590  0.22420  Biso   1.000  H
  H95      1.0000 0.39410  0.11230  0.22420  Biso   1.000  H
  H96      1.0000 0.88770  0.28180  0.22420  Biso   1.000  H
  H97      1.0000 0.29170  0.27430  0.67900  Biso   1.000  H
  H98      1.0000 0.72570  0.01740  0.67900  Biso   1.000  H
  H99      1.0000 0.98260  0.70830  0.67900  Biso   1.000  H
  H100     1.0000 0.27430  0.29170  0.82100  Biso   1.000  H
  H101     1.0000 0.70830  0.98260  0.82100  Biso   1.000  H
  H102     1.0000 0.01740  0.72570  0.82100  Biso   1.000  H
  H103     1.0000 0.70830  0.72570  0.32100  Biso   1.000  H
  H104     1.0000 0.27430  0.98260  0.32100  Biso   1.000  H
  H105     1.0000 0.01740  0.29170  0.32100  Biso   1.000  H
  H106     1.0000 0.72570  0.70830  0.17900  Biso   1.000  H
  H107     1.0000 0.29170  0.01740  0.17900  Biso   1.000  H
  H108     1.0000 0.98260  0.27430  0.17900  Biso   1.000  H
