data_image0
_cell_length_a       11.635
_cell_length_b       11.673
_cell_length_c       15.624
_cell_angle_alpha    90.322
_cell_angle_beta     91.196
_cell_angle_gamma    91.947

_symmetry_space_group_name_H-M    "P 1"
_symmetry_int_tables_number       1

loop_
  _symmetry_equiv_pos_as_xyz
  'x, y, z'

loop_
  _atom_site_label
  _atom_site_occupancy
  _atom_site_fract_x
  _atom_site_fract_y
  _atom_site_fract_z
  _atom_site_thermal_displace_type
  _atom_site_B_iso_or_equiv
  _atom_site_type_symbol
  I1       1.0000 0.91665  0.91526  0.37125  Biso   1.000  I
  I2       1.0000 0.08335  0.08474  0.62875  Biso   1.000  I
  I3       1.0000 0.56093  0.89333  0.23621  Biso   1.000  I
  I4       1.0000 0.43907  0.10667  0.76379  Biso   1.000  I
  I5       1.0000 0.66880  0.60562  0.40034  Biso   1.000  I
  I6       1.0000 0.33120  0.39438  0.59966  Biso   1.000  I
  I7       1.0000 0.85648  0.67289  0.15570  Biso   1.000  I
  I8       1.0000 0.14352  0.32711  0.84430  Biso   1.000  I
  Cu1      1.0000 0.65556  0.68558  0.24280  Biso   1.000  Cu
  Cu2      1.0000 0.34444  0.31442  0.75720  Biso   1.000  Cu
  Cu3      1.0000 0.85841  0.70114  0.32955  Biso   1.000  Cu
  Cu4      1.0000 0.14159  0.29886  0.67045  Biso   1.000  Cu
  Cu5      1.0000 0.79041  0.87137  0.22207  Biso   1.000  Cu
  Cu6      1.0000 0.20959  0.12863  0.77793  Biso   1.000  Cu
  Cu7      1.0000 0.69672  0.85291  0.37128  Biso   1.000  Cu
  Cu8      1.0000 0.30328  0.14709  0.62872  Biso   1.000  Cu
  N1       1.0000 0.39710  0.11260  0.52510  Biso   1.000  N
  N2       1.0000 0.60290  0.88740  0.47490  Biso   1.000  N
  N3       1.0000 0.53110  0.19600  0.44460  Biso   1.000  N
  N4       1.0000 0.46890  0.80400  0.55540  Biso   1.000  N
  N5       1.0000 0.03990  0.41690  0.39640  Biso   1.000  N
  N6       1.0000 0.96010  0.58310  0.60360  Biso   1.000  N
  N7       1.0000 0.97990  0.59010  0.36590  Biso   1.000  N
  N8       1.0000 0.02010  0.40990  0.63410  Biso   1.000  N
  N9       1.0000 0.55190  0.57770  0.17400  Biso   1.000  N
  N10      1.0000 0.44810  0.42230  0.82600  Biso   1.000  N
  N11      1.0000 0.39950  0.51460  0.09470  Biso   1.000  N
  N12      1.0000 0.60050  0.48540  0.90530  Biso   1.000  N
  N13      1.0000 0.96090  0.12740  0.08370  Biso   1.000  N
  N14      1.0000 0.03910  0.87260  0.91630  Biso   1.000  N
  N15      1.0000 0.84570  0.99040  0.14120  Biso   1.000  N
  N16      1.0000 0.15430  0.00960  0.85880  Biso   1.000  N
  C1       1.0000 0.35630  0.11410  0.43970  Biso   1.000  C
  C2       1.0000 0.64370  0.88590  0.56030  Biso   1.000  C
  C3       1.0000 0.25370  0.07350  0.40270  Biso   1.000  C
  C4       1.0000 0.74630  0.92650  0.59730  Biso   1.000  C
  H1       1.0000 0.19640  0.03820  0.43480  Biso   1.000  H
  H2       1.0000 0.80360  0.96180  0.56520  Biso   1.000  H
  C5       1.0000 0.24120  0.08790  0.31650  Biso   1.000  C
  C6       1.0000 0.75880  0.91210  0.68350  Biso   1.000  C
  H3       1.0000 0.17490  0.05770  0.28940  Biso   1.000  H
  H4       1.0000 0.82510  0.94230  0.71060  Biso   1.000  H
  C7       1.0000 0.32200  0.14500  0.26700  Biso   1.000  C
  C8       1.0000 0.67800  0.85500  0.73300  Biso   1.000  C
  H5       1.0000 0.30700  0.15580  0.20900  Biso   1.000  H
  H6       1.0000 0.69300  0.84420  0.79100  Biso   1.000  H
  C9       1.0000 0.42460  0.18590  0.30330  Biso   1.000  C
  C10      1.0000 0.57540  0.81410  0.69670  Biso   1.000  C
  H7       1.0000 0.48080  0.22250  0.27080  Biso   1.000  H
  H8       1.0000 0.51920  0.77750  0.72920  Biso   1.000  H
  C11      1.0000 0.44000  0.16970  0.39060  Biso   1.000  C
  C12      1.0000 0.56000  0.83030  0.60940  Biso   1.000  C
  C13      1.0000 0.49990  0.16230  0.52320  Biso   1.000  C
  C14      1.0000 0.50010  0.83770  0.47680  Biso   1.000  C
  H9       1.0000 0.54680  0.17310  0.57180  Biso   1.000  H
  H10      1.0000 0.45320  0.82690  0.42820  Biso   1.000  H
  C15      1.0000 0.64080  0.25370  0.42390  Biso   1.000  C
  C16      1.0000 0.35920  0.74630  0.57610  Biso   1.000  C
  H11      1.0000 0.62620  0.31790  0.38660  Biso   1.000  H
  H12      1.0000 0.37380  0.68210  0.61340  Biso   1.000  H
  H13      1.0000 0.67730  0.28360  0.47620  Biso   1.000  H
  H14      1.0000 0.32270  0.71640  0.52380  Biso   1.000  H
  C17      1.0000 0.71970  0.17590  0.38150  Biso   1.000  C
  C18      1.0000 0.28030  0.82410  0.61850  Biso   1.000  C
  H15      1.0000 0.73320  0.11130  0.41880  Biso   1.000  H
  H16      1.0000 0.26680  0.88870  0.58120  Biso   1.000  H
  H17      1.0000 0.68280  0.14630  0.32930  Biso   1.000  H
  H18      1.0000 0.31720  0.85370  0.67070  Biso   1.000  H
  C19      1.0000 0.83690  0.23310  0.35900  Biso   1.000  C
  C20      1.0000 0.16310  0.76690  0.64100  Biso   1.000  C
  H19      1.0000 0.82430  0.30700  0.33290  Biso   1.000  H
  H20      1.0000 0.17570  0.69300  0.66710  Biso   1.000  H
  H21      1.0000 0.87470  0.18580  0.31770  Biso   1.000  H
  H22      1.0000 0.12530  0.81420  0.68230  Biso   1.000  H
  C21      1.0000 0.91580  0.25010  0.43910  Biso   1.000  C
  C22      1.0000 0.08420  0.74990  0.56090  Biso   1.000  C
  H23      1.0000 0.92100  0.17700  0.46800  Biso   1.000  H
  H24      1.0000 0.07900  0.82300  0.53200  Biso   1.000  H
  H25      1.0000 0.87980  0.30250  0.47790  Biso   1.000  H
  H26      1.0000 0.12020  0.69750  0.52210  Biso   1.000  H
  C23      1.0000 0.03480  0.29520  0.42230  Biso   1.000  C
  C24      1.0000 0.96520  0.70480  0.57770  Biso   1.000  C
  H27      1.0000 0.06740  0.24930  0.37760  Biso   1.000  H
  H28      1.0000 0.93260  0.75070  0.62240  Biso   1.000  H
  H29      1.0000 0.08190  0.28670  0.47370  Biso   1.000  H
  H30      1.0000 0.91810  0.71330  0.52630  Biso   1.000  H
  C25      1.0000 0.13470  0.48050  0.37140  Biso   1.000  C
  C26      1.0000 0.86530  0.51950  0.62860  Biso   1.000  C
  C27      1.0000 0.24840  0.45230  0.36530  Biso   1.000  C
  C28      1.0000 0.75160  0.54770  0.63470  Biso   1.000  C
  H31      1.0000 0.27370  0.37970  0.37870  Biso   1.000  H
  H32      1.0000 0.72630  0.62030  0.62130  Biso   1.000  H
  C29      1.0000 0.32380  0.54090  0.33730  Biso   1.000  C
  C30      1.0000 0.67620  0.45910  0.66270  Biso   1.000  C
  H33      1.0000 0.40150  0.52660  0.33170  Biso   1.000  H
  H34      1.0000 0.59850  0.47340  0.66830  Biso   1.000  H
  C31      1.0000 0.28610  0.64550  0.31860  Biso   1.000  C
  C32      1.0000 0.71390  0.35450  0.68140  Biso   1.000  C
  H35      1.0000 0.33940  0.70130  0.30110  Biso   1.000  H
  H36      1.0000 0.66060  0.29870  0.69890  Biso   1.000  H
  C33      1.0000 0.17320  0.67450  0.32390  Biso   1.000  C
  C34      1.0000 0.82680  0.32550  0.67610  Biso   1.000  C
  H37      1.0000 0.14880  0.74740  0.31080  Biso   1.000  H
  H38      1.0000 0.85120  0.25260  0.68920  Biso   1.000  H
  C35      1.0000 0.09720  0.58660  0.35050  Biso   1.000  C
  C36      1.0000 0.90280  0.41340  0.64950  Biso   1.000  C
  C37      1.0000 0.95170  0.48790  0.39300  Biso   1.000  C
  C38      1.0000 0.04830  0.51210  0.60700  Biso   1.000  C
  H39      1.0000 0.87740  0.46620  0.40860  Biso   1.000  H
  H40      1.0000 0.12260  0.53380  0.59140  Biso   1.000  H
  C39      1.0000 0.56940  0.46150  0.15110  Biso   1.000  C
  C40      1.0000 0.43060  0.53850  0.84890  Biso   1.000  C
  C41      1.0000 0.65860  0.39130  0.16960  Biso   1.000  C
  C42      1.0000 0.34140  0.60870  0.83040  Biso   1.000  C
  H41      1.0000 0.72040  0.41590  0.20450  Biso   1.000  H
  H42      1.0000 0.27960  0.58410  0.79550  Biso   1.000  H
  C43      1.0000 0.65310  0.28590  0.13530  Biso   1.000  C
  C44      1.0000 0.34690  0.71410  0.86470  Biso   1.000  C
  H43      1.0000 0.71370  0.23770  0.14600  Biso   1.000  H
  H44      1.0000 0.28630  0.76230  0.85400  Biso   1.000  H
  C45      1.0000 0.56210  0.24580  0.08520  Biso   1.000  C
  C46      1.0000 0.43790  0.75420  0.91480  Biso   1.000  C
  H45      1.0000 0.56250  0.17150  0.06340  Biso   1.000  H
  H46      1.0000 0.43750  0.82850  0.93660  Biso   1.000  H
  C47      1.0000 0.47230  0.31170  0.06690  Biso   1.000  C
  C48      1.0000 0.52770  0.68830  0.93310  Biso   1.000  C
  H47      1.0000 0.41080  0.28440  0.03280  Biso   1.000  H
  H48      1.0000 0.58920  0.71560  0.96720  Biso   1.000  H
  C49      1.0000 0.47470  0.42620  0.10210  Biso   1.000  C
  C50      1.0000 0.52530  0.57380  0.89790  Biso   1.000  C
  C51      1.0000 0.45170  0.60130  0.13900  Biso   1.000  C
  C52      1.0000 0.54830  0.39870  0.86100  Biso   1.000  C
  H49      1.0000 0.41940  0.67270  0.14440  Biso   1.000  H
  H50      1.0000 0.58060  0.32730  0.85560  Biso   1.000  H
  C53      1.0000 0.28340  0.51460  0.06110  Biso   1.000  C
  C54      1.0000 0.71660  0.48540  0.93890  Biso   1.000  C
  H51      1.0000 0.28230  0.49090  0.00150  Biso   1.000  H
  H52      1.0000 0.71770  0.50910  0.99850  Biso   1.000  H
  H53      1.0000 0.25480  0.59150  0.06420  Biso   1.000  H
  H54      1.0000 0.74520  0.40850  0.93580  Biso   1.000  H
  C55      1.0000 0.20110  0.42900  0.11450  Biso   1.000  C
  C56      1.0000 0.79890  0.57100  0.88550  Biso   1.000  C
  H55      1.0000 0.22740  0.35120  0.10940  Biso   1.000  H
  H56      1.0000 0.77260  0.64880  0.89060  Biso   1.000  H
  H57      1.0000 0.20460  0.45030  0.17460  Biso   1.000  H
  H58      1.0000 0.79540  0.54970  0.82540  Biso   1.000  H
  C57      1.0000 0.08900  0.43320  0.08410  Biso   1.000  C
  C58      1.0000 0.91100  0.56680  0.91590  Biso   1.000  C
  H59      1.0000 0.08910  0.43570  0.02200  Biso   1.000  H
  H60      1.0000 0.91090  0.56430  0.97800  Biso   1.000  H
  H61      1.0000 0.05600  0.50330  0.10430  Biso   1.000  H
  H62      1.0000 0.94400  0.49670  0.89570  Biso   1.000  H
  C59      1.0000 0.01340  0.33090  0.11200  Biso   1.000  C
  C60      1.0000 0.98660  0.66910  0.88800  Biso   1.000  C
  H63      1.0000 0.01260  0.33000  0.17410  Biso   1.000  H
  H64      1.0000 0.98740  0.67000  0.82590  Biso   1.000  H
  H65      1.0000 0.93530  0.34240  0.09170  Biso   1.000  H
  H66      1.0000 0.06470  0.65760  0.90830  Biso   1.000  H
  C61      1.0000 0.04940  0.21600  0.08110  Biso   1.000  C
  C62      1.0000 0.95060  0.78400  0.91890  Biso   1.000  C
  H67      1.0000 0.07490  0.22340  0.02270  Biso   1.000  H
  H68      1.0000 0.92510  0.77660  0.97730  Biso   1.000  H
  H69      1.0000 0.11440  0.19270  0.11590  Biso   1.000  H
  H70      1.0000 0.88560  0.80730  0.88410  Biso   1.000  H
  C63      1.0000 0.87630  0.10390  0.02590  Biso   1.000  C
  C64      1.0000 0.12370  0.89610  0.97410  Biso   1.000  C
  C65      1.0000 0.85300  0.14670  0.94230  Biso   1.000  C
  C66      1.0000 0.14700  0.85330  0.05770  Biso   1.000  C
  H71      1.0000 0.90030  0.20320  0.91830  Biso   1.000  H
  H72      1.0000 0.09970  0.79680  0.08170  Biso   1.000  H
  C67      1.0000 0.76140  0.10310  0.89980  Biso   1.000  C
  C68      1.0000 0.23860  0.89690  0.10020  Biso   1.000  C
  H73      1.0000 0.74430  0.13160  0.84570  Biso   1.000  H
  H74      1.0000 0.25570  0.86840  0.15430  Biso   1.000  H
  C69      1.0000 0.68840  0.01510  0.93330  Biso   1.000  C
  C70      1.0000 0.31160  0.98490  0.06670  Biso   1.000  C
  H75      1.0000 0.62580  0.98670  0.90080  Biso   1.000  H
  H76      1.0000 0.37420  0.01330  0.09920  Biso   1.000  H
  C71      1.0000 0.70930  0.97200  0.01280  Biso   1.000  C
  C72      1.0000 0.29070  0.02800  0.98720  Biso   1.000  C
  H77      1.0000 0.66280  0.91370  0.03530  Biso   1.000  H
  H78      1.0000 0.33720  0.08630  0.96470  Biso   1.000  H
  C73      1.0000 0.80270  0.01870  0.05850  Biso   1.000  C
  C74      1.0000 0.19730  0.98130  0.94150  Biso   1.000  C
  C75      1.0000 0.93700  0.06020  0.15120  Biso   1.000  C
  C76      1.0000 0.06300  0.93980  0.84880  Biso   1.000  C
  H79      1.0000 0.98160  0.06270  0.20130  Biso   1.000  H
  H80      1.0000 0.01840  0.93730  0.79870  Biso   1.000  H
