data_image0
_cell_length_a       9.6669
_cell_length_b       28.873
_cell_length_c       13.072
_cell_angle_alpha    90
_cell_angle_beta     93.21
_cell_angle_gamma    90

_symmetry_space_group_name_H-M    "P 1"
_symmetry_int_tables_number       1

loop_
  _symmetry_equiv_pos_as_xyz
  'x, y, z'

loop_
  _atom_site_label
  _atom_site_occupancy
  _atom_site_fract_x
  _atom_site_fract_y
  _atom_site_fract_z
  _atom_site_thermal_displace_type
  _atom_site_B_iso_or_equiv
  _atom_site_type_symbol
  Cu1      1.0000 0.22305  0.71237  0.43528  Biso   1.000  Cu
  Cu2      1.0000 0.27695  0.21237  0.06472  Biso   1.000  Cu
  Cu3      1.0000 0.77695  0.28763  0.56472  Biso   1.000  Cu
  Cu4      1.0000 0.72305  0.78763  0.93528  Biso   1.000  Cu
  Cu5      1.0000 0.15354  0.46533  0.77926  Biso   1.000  Cu
  Cu6      1.0000 0.34646  0.96533  0.72074  Biso   1.000  Cu
  Cu7      1.0000 0.84646  0.53467  0.22074  Biso   1.000  Cu
  Cu8      1.0000 0.65354  0.03467  0.27926  Biso   1.000  Cu
  Cu9      1.0000 0.01011  0.47581  0.12236  Biso   1.000  Cu
  Cu10     1.0000 0.48989  0.97581  0.37764  Biso   1.000  Cu
  Cu11     1.0000 0.98989  0.52419  0.87764  Biso   1.000  Cu
  Cu12     1.0000 0.51011  0.02419  0.62236  Biso   1.000  Cu
  I1       1.0000 0.20149  0.47755  0.98040  Biso   1.000  I
  I2       1.0000 0.29851  0.97755  0.51960  Biso   1.000  I
  I3       1.0000 0.79851  0.52245  0.01960  Biso   1.000  I
  I4       1.0000 0.70149  0.02245  0.48040  Biso   1.000  I
  I5       1.0000 0.43714  0.70338  0.56845  Biso   1.000  I
  I6       1.0000 0.06286  0.20338  0.93155  Biso   1.000  I
  I7       1.0000 0.56286  0.29662  0.43155  Biso   1.000  I
  I8       1.0000 0.93714  0.79662  0.06845  Biso   1.000  I
  I9       1.0000 0.90897  0.48458  0.69939  Biso   1.000  I
  I10      1.0000 0.59103  0.98458  0.80061  Biso   1.000  I
  I11      1.0000 0.09103  0.51542  0.30061  Biso   1.000  I
  I12      1.0000 0.40897  0.01542  0.19939  Biso   1.000  I
  N1       1.0000 0.47590  0.09280  0.65220  Biso   1.000  N
  N2       1.0000 0.02410  0.59280  0.84780  Biso   1.000  N
  N3       1.0000 0.52410  0.90720  0.34780  Biso   1.000  N
  N4       1.0000 0.97590  0.40720  0.15220  Biso   1.000  N
  N5       1.0000 0.18990  0.39730  0.74370  Biso   1.000  N
  N6       1.0000 0.31010  0.89730  0.75630  Biso   1.000  N
  N7       1.0000 0.81010  0.60270  0.25630  Biso   1.000  N
  N8       1.0000 0.68990  0.10270  0.24370  Biso   1.000  N
  N9       1.0000 0.16580  0.78040  0.43350  Biso   1.000  N
  N10      1.0000 0.33420  0.28040  0.06650  Biso   1.000  N
  N11      1.0000 0.83420  0.21960  0.56650  Biso   1.000  N
  N12      1.0000 0.66580  0.71960  0.93350  Biso   1.000  N
  N13      1.0000 0.76870  0.81760  0.80150  Biso   1.000  N
  N14      1.0000 0.73130  0.31760  0.69850  Biso   1.000  N
  N15      1.0000 0.23130  0.18240  0.19850  Biso   1.000  N
  N16      1.0000 0.26870  0.68240  0.30150  Biso   1.000  N
  N17      1.0000 0.30860  0.50280  0.71300  Biso   1.000  N
  N18      1.0000 0.19140  0.00280  0.78700  Biso   1.000  N
  N19      1.0000 0.69140  0.49720  0.28700  Biso   1.000  N
  N20      1.0000 0.80860  0.99720  0.21300  Biso   1.000  N
  N21      1.0000 0.05190  0.67860  0.49110  Biso   1.000  N
  N22      1.0000 0.44810  0.17860  0.00890  Biso   1.000  N
  N23      1.0000 0.94810  0.32140  0.50890  Biso   1.000  N
  N24      1.0000 0.55190  0.82140  0.99110  Biso   1.000  N
  C1       1.0000 0.38880  0.10450  0.72420  Biso   1.000  C
  C2       1.0000 0.11120  0.60450  0.77580  Biso   1.000  C
  C3       1.0000 0.61120  0.89550  0.27580  Biso   1.000  C
  C4       1.0000 0.88880  0.39550  0.22420  Biso   1.000  C
  H1       1.0000 0.34620  0.08040  0.76060  Biso   1.000  H
  H2       1.0000 0.15380  0.58040  0.73940  Biso   1.000  H
  H3       1.0000 0.65380  0.91960  0.23940  Biso   1.000  H
  H4       1.0000 0.84620  0.41960  0.26060  Biso   1.000  H
  C5       1.0000 0.35780  0.14950  0.74810  Biso   1.000  C
  C6       1.0000 0.14220  0.64950  0.75190  Biso   1.000  C
  C7       1.0000 0.64220  0.85050  0.25190  Biso   1.000  C
  C8       1.0000 0.85780  0.35050  0.24810  Biso   1.000  C
  H5       1.0000 0.29450  0.15580  0.79930  Biso   1.000  H
  H6       1.0000 0.20550  0.65580  0.70070  Biso   1.000  H
  H7       1.0000 0.70550  0.84420  0.20070  Biso   1.000  H
  H8       1.0000 0.79450  0.34420  0.29930  Biso   1.000  H
  C9       1.0000 0.41810  0.18510  0.69830  Biso   1.000  C
  C10      1.0000 0.08190  0.68510  0.80170  Biso   1.000  C
  C11      1.0000 0.58190  0.81490  0.30170  Biso   1.000  C
  C12      1.0000 0.91810  0.31490  0.19830  Biso   1.000  C
  C13      1.0000 0.51150  0.17470  0.62330  Biso   1.000  C
  C14      1.0000 0.98850  0.67470  0.87670  Biso   1.000  C
  C15      1.0000 0.48850  0.82530  0.37670  Biso   1.000  C
  C16      1.0000 0.01150  0.32530  0.12330  Biso   1.000  C
  H9       1.0000 0.55700  0.19850  0.58790  Biso   1.000  H
  H10      1.0000 0.94300  0.69850  0.91210  Biso   1.000  H
  H11      1.0000 0.44300  0.80150  0.41210  Biso   1.000  H
  H12      1.0000 0.05700  0.30150  0.08790  Biso   1.000  H
  C17      1.0000 0.53540  0.12750  0.60230  Biso   1.000  C
  C18      1.0000 0.96460  0.62750  0.89770  Biso   1.000  C
  C19      1.0000 0.46460  0.87250  0.39770  Biso   1.000  C
  C20      1.0000 0.03540  0.37250  0.10230  Biso   1.000  C
  H13      1.0000 0.59650  0.11990  0.55040  Biso   1.000  H
  H14      1.0000 0.90350  0.61990  0.94960  Biso   1.000  H
  H15      1.0000 0.40350  0.88010  0.44960  Biso   1.000  H
  H16      1.0000 0.09650  0.38010  0.05040  Biso   1.000  H
  C21      1.0000 0.38640  0.23560  0.72380  Biso   1.000  C
  C22      1.0000 0.11360  0.73560  0.77620  Biso   1.000  C
  C23      1.0000 0.61360  0.76440  0.27620  Biso   1.000  C
  C24      1.0000 0.88640  0.26440  0.22380  Biso   1.000  C
  H17      1.0000 0.47150  0.25430  0.71790  Biso   1.000  H
  H18      1.0000 0.02850  0.75430  0.78210  Biso   1.000  H
  H19      1.0000 0.52850  0.74570  0.28210  Biso   1.000  H
  H20      1.0000 0.97150  0.24570  0.21790  Biso   1.000  H
  H21      1.0000 0.35980  0.23750  0.79580  Biso   1.000  H
  H22      1.0000 0.14020  0.73750  0.70420  Biso   1.000  H
  H23      1.0000 0.64020  0.76250  0.20420  Biso   1.000  H
  H24      1.0000 0.85980  0.26250  0.29580  Biso   1.000  H
  C25      1.0000 0.27300  0.25600  0.65570  Biso   1.000  C
  C26      1.0000 0.22700  0.75600  0.84430  Biso   1.000  C
  C27      1.0000 0.72700  0.74400  0.34430  Biso   1.000  C
  C28      1.0000 0.77300  0.24400  0.15570  Biso   1.000  C
  H25      1.0000 0.30090  0.25560  0.58390  Biso   1.000  H
  H26      1.0000 0.19910  0.75560  0.91610  Biso   1.000  H
  H27      1.0000 0.69910  0.74440  0.41610  Biso   1.000  H
  H28      1.0000 0.80090  0.24440  0.08390  Biso   1.000  H
  H29      1.0000 0.18850  0.23690  0.65940  Biso   1.000  H
  H30      1.0000 0.31150  0.73690  0.84060  Biso   1.000  H
  H31      1.0000 0.81150  0.76310  0.34060  Biso   1.000  H
  H32      1.0000 0.68850  0.26310  0.15940  Biso   1.000  H
  C29      1.0000 0.24080  0.30570  0.68630  Biso   1.000  C
  C30      1.0000 0.25920  0.80570  0.81370  Biso   1.000  C
  C31      1.0000 0.75920  0.69430  0.31370  Biso   1.000  C
  C32      1.0000 0.74080  0.19430  0.18630  Biso   1.000  C
  C33      1.0000 0.12700  0.31740  0.73970  Biso   1.000  C
  C34      1.0000 0.37300  0.81740  0.76030  Biso   1.000  C
  C35      1.0000 0.87300  0.68260  0.26030  Biso   1.000  C
  C36      1.0000 0.62700  0.18260  0.23970  Biso   1.000  C
  H33      1.0000 0.06330  0.29410  0.75790  Biso   1.000  H
  H34      1.0000 0.43670  0.79410  0.74210  Biso   1.000  H
  H35      1.0000 0.93670  0.70590  0.24210  Biso   1.000  H
  H36      1.0000 0.56330  0.20590  0.25790  Biso   1.000  H
  C37      1.0000 0.10590  0.36260  0.76640  Biso   1.000  C
  C38      1.0000 0.39410  0.86260  0.73360  Biso   1.000  C
  C39      1.0000 0.89410  0.63740  0.23360  Biso   1.000  C
  C40      1.0000 0.60590  0.13740  0.26640  Biso   1.000  C
  H37      1.0000 0.02670  0.36960  0.80340  Biso   1.000  H
  H38      1.0000 0.47330  0.86960  0.69660  Biso   1.000  H
  H39      1.0000 0.97330  0.63040  0.19660  Biso   1.000  H
  H40      1.0000 0.52670  0.13040  0.30340  Biso   1.000  H
  C41      1.0000 0.30010  0.38590  0.69230  Biso   1.000  C
  C42      1.0000 0.19990  0.88590  0.80770  Biso   1.000  C
  C43      1.0000 0.69990  0.61410  0.30770  Biso   1.000  C
  C44      1.0000 0.80010  0.11410  0.19230  Biso   1.000  C
  H41      1.0000 0.36280  0.40980  0.67630  Biso   1.000  H
  H42      1.0000 0.13720  0.90980  0.82370  Biso   1.000  H
  H43      1.0000 0.63720  0.59020  0.32370  Biso   1.000  H
  H44      1.0000 0.86280  0.09020  0.17630  Biso   1.000  H
  C45      1.0000 0.32980  0.34070  0.66020  Biso   1.000  C
  C46      1.0000 0.17020  0.84070  0.83980  Biso   1.000  C
  C47      1.0000 0.67020  0.65930  0.33980  Biso   1.000  C
  C48      1.0000 0.82980  0.15930  0.16020  Biso   1.000  C
  H45      1.0000 0.40820  0.33440  0.62180  Biso   1.000  H
  H46      1.0000 0.09180  0.83440  0.87820  Biso   1.000  H
  H47      1.0000 0.59180  0.66560  0.37820  Biso   1.000  H
  H48      1.0000 0.90820  0.16560  0.12180  Biso   1.000  H
  C49      1.0000 0.18220  0.80410  0.52190  Biso   1.000  C
  C50      1.0000 0.31780  0.30410  0.97810  Biso   1.000  C
  C51      1.0000 0.81780  0.19590  0.47810  Biso   1.000  C
  C52      1.0000 0.68220  0.69590  0.02190  Biso   1.000  C
  H49      1.0000 0.24340  0.79150  0.57410  Biso   1.000  H
  H50      1.0000 0.25660  0.29150  0.92590  Biso   1.000  H
  H51      1.0000 0.75660  0.20850  0.42590  Biso   1.000  H
  H52      1.0000 0.74340  0.70850  0.07410  Biso   1.000  H
  C53      1.0000 0.11760  0.84480  0.54220  Biso   1.000  C
  C54      1.0000 0.38240  0.34480  0.95780  Biso   1.000  C
  C55      1.0000 0.88240  0.15520  0.45780  Biso   1.000  C
  C56      1.0000 0.61760  0.65520  0.04220  Biso   1.000  C
  H53      1.0000 0.13490  0.85940  0.60680  Biso   1.000  H
  H54      1.0000 0.36510  0.35940  0.89320  Biso   1.000  H
  H55      1.0000 0.86510  0.14060  0.39320  Biso   1.000  H
  H56      1.0000 0.63490  0.64060  0.10680  Biso   1.000  H
  C57      1.0000 0.02650  0.86510  0.46900  Biso   1.000  C
  C58      1.0000 0.47350  0.36510  0.03100  Biso   1.000  C
  C59      1.0000 0.97350  0.13490  0.53100  Biso   1.000  C
  C60      1.0000 0.52650  0.63490  0.96900  Biso   1.000  C
  C61      1.0000 0.01250  0.84230  0.37490  Biso   1.000  C
  C62      1.0000 0.48750  0.34230  0.12510  Biso   1.000  C
  C63      1.0000 0.98750  0.15770  0.62510  Biso   1.000  C
  C64      1.0000 0.51250  0.65770  0.87490  Biso   1.000  C
  H57      1.0000 0.95610  0.85540  0.32050  Biso   1.000  H
  H58      1.0000 0.54390  0.35540  0.17950  Biso   1.000  H
  H59      1.0000 0.04390  0.14460  0.67950  Biso   1.000  H
  H60      1.0000 0.45610  0.64460  0.82050  Biso   1.000  H
  C65      1.0000 0.07970  0.80130  0.36080  Biso   1.000  C
  C66      1.0000 0.42030  0.30130  0.13920  Biso   1.000  C
  C67      1.0000 0.92030  0.19870  0.63920  Biso   1.000  C
  C68      1.0000 0.57970  0.69870  0.86080  Biso   1.000  C
  H61      1.0000 0.06550  0.78630  0.29630  Biso   1.000  H
  H62      1.0000 0.43450  0.28630  0.20370  Biso   1.000  H
  H63      1.0000 0.93450  0.21370  0.70370  Biso   1.000  H
  H64      1.0000 0.56550  0.71370  0.79630  Biso   1.000  H
  C69      1.0000 0.94160  0.90640  0.48970  Biso   1.000  C
  C70      1.0000 0.55840  0.40640  0.01030  Biso   1.000  C
  C71      1.0000 0.05840  0.09360  0.51030  Biso   1.000  C
  C72      1.0000 0.44160  0.59360  0.98970  Biso   1.000  C
  H65      1.0000 0.93580  0.92660  0.42850  Biso   1.000  H
  H66      1.0000 0.56420  0.42660  0.07150  Biso   1.000  H
  H67      1.0000 0.06420  0.07340  0.57150  Biso   1.000  H
  H68      1.0000 0.43580  0.57340  0.92850  Biso   1.000  H
  H69      1.0000 0.98620  0.92420  0.54730  Biso   1.000  H
  H70      1.0000 0.51380  0.42420  0.95270  Biso   1.000  H
  H71      1.0000 0.01380  0.07580  0.45270  Biso   1.000  H
  H72      1.0000 0.48620  0.57580  0.04730  Biso   1.000  H
  C73      1.0000 0.79650  0.89220  0.51640  Biso   1.000  C
  C74      1.0000 0.70350  0.39220  0.98360  Biso   1.000  C
  C75      1.0000 0.20350  0.10780  0.48360  Biso   1.000  C
  C76      1.0000 0.29650  0.60780  0.01640  Biso   1.000  C
  H73      1.0000 0.73890  0.92040  0.51970  Biso   1.000  H
  H74      1.0000 0.76110  0.42040  0.98030  Biso   1.000  H
  H75      1.0000 0.26110  0.07960  0.48030  Biso   1.000  H
  H76      1.0000 0.23890  0.57960  0.01970  Biso   1.000  H
  H77      1.0000 0.75580  0.87270  0.46020  Biso   1.000  H
  H78      1.0000 0.74420  0.37270  0.03980  Biso   1.000  H
  H79      1.0000 0.24420  0.12730  0.53980  Biso   1.000  H
  H80      1.0000 0.25580  0.62730  0.96020  Biso   1.000  H
  C77      1.0000 0.78810  0.86620  0.61550  Biso   1.000  C
  C78      1.0000 0.71190  0.36620  0.88450  Biso   1.000  C
  C79      1.0000 0.21190  0.13380  0.38450  Biso   1.000  C
  C80      1.0000 0.28810  0.63380  0.11550  Biso   1.000  C
  C81      1.0000 0.82490  0.88680  0.70950  Biso   1.000  C
  C82      1.0000 0.67510  0.38680  0.79050  Biso   1.000  C
  C83      1.0000 0.17510  0.11320  0.29050  Biso   1.000  C
  C84      1.0000 0.32490  0.61320  0.20950  Biso   1.000  C
  H81      1.0000 0.85820  0.91780  0.71250  Biso   1.000  H
  H82      1.0000 0.64180  0.41780  0.78750  Biso   1.000  H
  H83      1.0000 0.14180  0.08220  0.28750  Biso   1.000  H
  H84      1.0000 0.35820  0.58220  0.21250  Biso   1.000  H
  C85      1.0000 0.81210  0.86160  0.79820  Biso   1.000  C
  C86      1.0000 0.68790  0.36160  0.70180  Biso   1.000  C
  C87      1.0000 0.18790  0.13840  0.20180  Biso   1.000  C
  C88      1.0000 0.31210  0.63840  0.29820  Biso   1.000  C
  H85      1.0000 0.83600  0.87650  0.86160  Biso   1.000  H
  H86      1.0000 0.66400  0.37650  0.63840  Biso   1.000  H
  H87      1.0000 0.16400  0.12350  0.13840  Biso   1.000  H
  H88      1.0000 0.33600  0.62350  0.36160  Biso   1.000  H
  C89      1.0000 0.73870  0.79750  0.70990  Biso   1.000  C
  C90      1.0000 0.76130  0.29750  0.79010  Biso   1.000  C
  C91      1.0000 0.26130  0.20250  0.29010  Biso   1.000  C
  C92      1.0000 0.23870  0.70250  0.20990  Biso   1.000  C
  H89      1.0000 0.70870  0.76610  0.70850  Biso   1.000  H
  H90      1.0000 0.79130  0.26610  0.79150  Biso   1.000  H
  H91      1.0000 0.29130  0.23390  0.29150  Biso   1.000  H
  H92      1.0000 0.20870  0.73390  0.20850  Biso   1.000  H
  C93      1.0000 0.74970  0.82040  0.61830  Biso   1.000  C
  C94      1.0000 0.75030  0.32040  0.88170  Biso   1.000  C
  C95      1.0000 0.25030  0.17960  0.38170  Biso   1.000  C
  C96      1.0000 0.24970  0.67960  0.11830  Biso   1.000  C
  H93      1.0000 0.73040  0.80420  0.55590  Biso   1.000  H
  H94      1.0000 0.76960  0.30420  0.94410  Biso   1.000  H
  H95      1.0000 0.26960  0.19580  0.44410  Biso   1.000  H
  H96      1.0000 0.23040  0.69580  0.05590  Biso   1.000  H
  C97      1.0000 0.43130  0.51060  0.76200  Biso   1.000  C
  C98      1.0000 0.06870  0.01060  0.73800  Biso   1.000  C
  C99      1.0000 0.56870  0.48940  0.23800  Biso   1.000  C
  C100     1.0000 0.93130  0.98940  0.26200  Biso   1.000  C
  H97      1.0000 0.44580  0.49840  0.82920  Biso   1.000  H
  H98      1.0000 0.05420  0.99840  0.67080  Biso   1.000  H
  H99      1.0000 0.55420  0.50160  0.17080  Biso   1.000  H
  H100     1.0000 0.94580  0.00160  0.32920  Biso   1.000  H
  C101     1.0000 0.53700  0.53480  0.72310  Biso   1.000  C
  C102     1.0000 0.96300  0.03480  0.77690  Biso   1.000  C
  C103     1.0000 0.46300  0.46520  0.27690  Biso   1.000  C
  C104     1.0000 0.03700  0.96520  0.22310  Biso   1.000  C
  H101     1.0000 0.62100  0.53950  0.76290  Biso   1.000  H
  H102     1.0000 0.87900  0.03950  0.73710  Biso   1.000  H
  H103     1.0000 0.37900  0.46050  0.23710  Biso   1.000  H
  H104     1.0000 0.12100  0.96050  0.26290  Biso   1.000  H
  C105     1.0000 0.52030  0.55250  0.62320  Biso   1.000  C
  C106     1.0000 0.97970  0.05250  0.87680  Biso   1.000  C
  C107     1.0000 0.47970  0.44750  0.37680  Biso   1.000  C
  C108     1.0000 0.02030  0.94750  0.12320  Biso   1.000  C
  C109     1.0000 0.39390  0.54360  0.57180  Biso   1.000  C
  C110     1.0000 0.10610  0.04360  0.92820  Biso   1.000  C
  C111     1.0000 0.60610  0.45640  0.42820  Biso   1.000  C
  C112     1.0000 0.89390  0.95640  0.07180  Biso   1.000  C
  H105     1.0000 0.37700  0.55470  0.50380  Biso   1.000  H
  H106     1.0000 0.12300  0.05470  0.99620  Biso   1.000  H
  H107     1.0000 0.62300  0.44530  0.49620  Biso   1.000  H
  H108     1.0000 0.87700  0.94530  0.00380  Biso   1.000  H
  C113     1.0000 0.29270  0.51910  0.61740  Biso   1.000  C
  C114     1.0000 0.20730  0.01910  0.88260  Biso   1.000  C
  C115     1.0000 0.70730  0.48090  0.38260  Biso   1.000  C
  C116     1.0000 0.79270  0.98090  0.11740  Biso   1.000  C
  H109     1.0000 0.20760  0.51360  0.57950  Biso   1.000  H
  H110     1.0000 0.29240  0.01360  0.92050  Biso   1.000  H
  H111     1.0000 0.79240  0.48640  0.42050  Biso   1.000  H
  H112     1.0000 0.70760  0.98640  0.07950  Biso   1.000  H
  C117     1.0000 0.63440  0.57820  0.57130  Biso   1.000  C
  C118     1.0000 0.86560  0.07820  0.92870  Biso   1.000  C
  C119     1.0000 0.36560  0.42180  0.42870  Biso   1.000  C
  C120     1.0000 0.13440  0.92180  0.07130  Biso   1.000  C
  H113     1.0000 0.59120  0.59890  0.51830  Biso   1.000  H
  H114     1.0000 0.90880  0.09890  0.98170  Biso   1.000  H
  H115     1.0000 0.40880  0.40110  0.48170  Biso   1.000  H
  H116     1.0000 0.09120  0.90110  0.01830  Biso   1.000  H
  H117     1.0000 0.69130  0.55530  0.53600  Biso   1.000  H
  H118     1.0000 0.80870  0.05530  0.96400  Biso   1.000  H
  H119     1.0000 0.30870  0.44470  0.46400  Biso   1.000  H
  H120     1.0000 0.19130  0.94470  0.03600  Biso   1.000  H
  C121     1.0000 0.72960  0.60690  0.64340  Biso   1.000  C
  C122     1.0000 0.77040  0.10690  0.85660  Biso   1.000  C
  C123     1.0000 0.27040  0.39310  0.35660  Biso   1.000  C
  C124     1.0000 0.22960  0.89310  0.14340  Biso   1.000  C
  H121     1.0000 0.67340  0.63010  0.67840  Biso   1.000  H
  H122     1.0000 0.82660  0.13010  0.82160  Biso   1.000  H
  H123     1.0000 0.32660  0.36990  0.32160  Biso   1.000  H
  H124     1.0000 0.17340  0.86990  0.17840  Biso   1.000  H
  H125     1.0000 0.77320  0.58630  0.69650  Biso   1.000  H
  H126     1.0000 0.72680  0.08630  0.80350  Biso   1.000  H
  H127     1.0000 0.22680  0.41370  0.30350  Biso   1.000  H
  H128     1.0000 0.27320  0.91370  0.19650  Biso   1.000  H
  C125     1.0000 0.83980  0.63130  0.59000  Biso   1.000  C
  C126     1.0000 0.66020  0.13130  0.91000  Biso   1.000  C
  C127     1.0000 0.16020  0.36870  0.41000  Biso   1.000  C
  C128     1.0000 0.33980  0.86870  0.09000  Biso   1.000  C
  C129     1.0000 0.84880  0.67930  0.59010  Biso   1.000  C
  C130     1.0000 0.65120  0.17930  0.90990  Biso   1.000  C
  C131     1.0000 0.15120  0.32070  0.40990  Biso   1.000  C
  C132     1.0000 0.34880  0.82070  0.09010  Biso   1.000  C
  H129     1.0000 0.78220  0.69730  0.62320  Biso   1.000  H
  H130     1.0000 0.71780  0.19730  0.87680  Biso   1.000  H
  H131     1.0000 0.21780  0.30270  0.37680  Biso   1.000  H
  H132     1.0000 0.28220  0.80270  0.12320  Biso   1.000  H
  C133     1.0000 0.95650  0.70100  0.54130  Biso   1.000  C
  C134     1.0000 0.54350  0.20100  0.95870  Biso   1.000  C
  C135     1.0000 0.04350  0.29900  0.45870  Biso   1.000  C
  C136     1.0000 0.45650  0.79900  0.04130  Biso   1.000  C
  H133     1.0000 0.96170  0.73380  0.54420  Biso   1.000  H
  H134     1.0000 0.53830  0.23380  0.95580  Biso   1.000  H
  H135     1.0000 0.03830  0.26620  0.45580  Biso   1.000  H
  H136     1.0000 0.46170  0.76620  0.04420  Biso   1.000  H
  C137     1.0000 0.93920  0.60810  0.53560  Biso   1.000  C
  C138     1.0000 0.56080  0.10810  0.96440  Biso   1.000  C
  C139     1.0000 0.06080  0.39190  0.46440  Biso   1.000  C
  C140     1.0000 0.43920  0.89190  0.03560  Biso   1.000  C
  H137     1.0000 0.93690  0.57520  0.53190  Biso   1.000  H
  H138     1.0000 0.56310  0.07520  0.96810  Biso   1.000  H
  H139     1.0000 0.06310  0.42480  0.46810  Biso   1.000  H
  H140     1.0000 0.43690  0.92480  0.03190  Biso   1.000  H
  C141     1.0000 0.04020  0.63180  0.48710  Biso   1.000  C
  C142     1.0000 0.45980  0.13180  0.01290  Biso   1.000  C
  C143     1.0000 0.95980  0.36820  0.51290  Biso   1.000  C
  C144     1.0000 0.54020  0.86820  0.98710  Biso   1.000  C
  H141     1.0000 0.10430  0.61480  0.44940  Biso   1.000  H
  H142     1.0000 0.39570  0.11480  0.05060  Biso   1.000  H
  H143     1.0000 0.89570  0.38520  0.55060  Biso   1.000  H
  H144     1.0000 0.60430  0.88520  0.94940  Biso   1.000  H
