data_image0
_cell_length_a       13.4355
_cell_length_b       13.4355
_cell_length_c       10.724
_cell_angle_alpha    90
_cell_angle_beta     90
_cell_angle_gamma    90

_symmetry_space_group_name_H-M    "P 1"
_symmetry_int_tables_number       1

loop_
  _symmetry_equiv_pos_as_xyz
  'x, y, z'

loop_
  _atom_site_label
  _atom_site_occupancy
  _atom_site_fract_x
  _atom_site_fract_y
  _atom_site_fract_z
  _atom_site_thermal_displace_type
  _atom_site_B_iso_or_equiv
  _atom_site_type_symbol
  Cu1      1.0000 0.65974  0.80098  0.16238  Biso   1.000  Cu
  Cu2      1.0000 0.84026  0.69902  0.16238  Biso   1.000  Cu
  Cu3      1.0000 0.19902  0.15974  0.66238  Biso   1.000  Cu
  Cu4      1.0000 0.30098  0.34026  0.66238  Biso   1.000  Cu
  Cu5      1.0000 0.34026  0.19902  0.83762  Biso   1.000  Cu
  Cu6      1.0000 0.15974  0.30098  0.83762  Biso   1.000  Cu
  Cu7      1.0000 0.80098  0.84026  0.33762  Biso   1.000  Cu
  Cu8      1.0000 0.69902  0.65974  0.33762  Biso   1.000  Cu
  I1       1.0000 0.67858  0.61423  0.11048  Biso   1.000  I
  I2       1.0000 0.82142  0.88577  0.11048  Biso   1.000  I
  I3       1.0000 0.38577  0.17858  0.61048  Biso   1.000  I
  I4       1.0000 0.11423  0.32142  0.61048  Biso   1.000  I
  I5       1.0000 0.32142  0.38577  0.88952  Biso   1.000  I
  I6       1.0000 0.17858  0.11423  0.88952  Biso   1.000  I
  I7       1.0000 0.61423  0.82142  0.38952  Biso   1.000  I
  I8       1.0000 0.88577  0.67858  0.38952  Biso   1.000  I
  N1       1.0000 0.54580  0.84570  0.05580  Biso   1.000  N
  N2       1.0000 0.95420  0.65430  0.05580  Biso   1.000  N
  N3       1.0000 0.15430  0.04580  0.55580  Biso   1.000  N
  N4       1.0000 0.34570  0.45420  0.55580  Biso   1.000  N
  N5       1.0000 0.45420  0.15430  0.94420  Biso   1.000  N
  N6       1.0000 0.04580  0.34570  0.94420  Biso   1.000  N
  N7       1.0000 0.84570  0.95420  0.44420  Biso   1.000  N
  N8       1.0000 0.65430  0.54580  0.44420  Biso   1.000  N
  N9       1.0000 0.45520  0.85040  0.09910  Biso   1.000  N
  N10      1.0000 0.04480  0.64960  0.09910  Biso   1.000  N
  N11      1.0000 0.14960  0.95520  0.59910  Biso   1.000  N
  N12      1.0000 0.35040  0.54480  0.59910  Biso   1.000  N
  N13      1.0000 0.54480  0.14960  0.90090  Biso   1.000  N
  N14      1.0000 0.95520  0.35040  0.90090  Biso   1.000  N
  N15      1.0000 0.85040  0.04480  0.40090  Biso   1.000  N
  N16      1.0000 0.64960  0.45520  0.40090  Biso   1.000  N
  N17      1.0000 0.39580  0.88010  0.00600  Biso   1.000  N
  N18      1.0000 0.10420  0.61990  0.00600  Biso   1.000  N
  N19      1.0000 0.11990  0.89580  0.50600  Biso   1.000  N
  N20      1.0000 0.38010  0.60420  0.50600  Biso   1.000  N
  N21      1.0000 0.60420  0.11990  0.99400  Biso   1.000  N
  N22      1.0000 0.89580  0.38010  0.99400  Biso   1.000  N
  N23      1.0000 0.88010  0.10420  0.49400  Biso   1.000  N
  N24      1.0000 0.61990  0.39580  0.49400  Biso   1.000  N
  C1       1.0000 0.54570  0.87250  0.93240  Biso   1.000  C
  C2       1.0000 0.95430  0.62750  0.93240  Biso   1.000  C
  C3       1.0000 0.12750  0.04570  0.43240  Biso   1.000  C
  C4       1.0000 0.37250  0.45430  0.43240  Biso   1.000  C
  C5       1.0000 0.45430  0.12750  0.06760  Biso   1.000  C
  C6       1.0000 0.04570  0.37250  0.06760  Biso   1.000  C
  C7       1.0000 0.87250  0.95430  0.56760  Biso   1.000  C
  C8       1.0000 0.62750  0.54570  0.56760  Biso   1.000  C
  C9       1.0000 0.62270  0.87880  0.84510  Biso   1.000  C
  C10      1.0000 0.87730  0.62120  0.84510  Biso   1.000  C
  C11      1.0000 0.12120  0.12270  0.34510  Biso   1.000  C
  C12      1.0000 0.37880  0.37730  0.34510  Biso   1.000  C
  C13      1.0000 0.37730  0.12120  0.15490  Biso   1.000  C
  C14      1.0000 0.12270  0.37880  0.15490  Biso   1.000  C
  C15      1.0000 0.87880  0.87730  0.65490  Biso   1.000  C
  C16      1.0000 0.62120  0.62270  0.65490  Biso   1.000  C
  H1       1.0000 0.68890  0.86410  0.86650  Biso   1.000  H
  H2       1.0000 0.81110  0.63590  0.86650  Biso   1.000  H
  H3       1.0000 0.13590  0.18890  0.36650  Biso   1.000  H
  H4       1.0000 0.36410  0.31110  0.36650  Biso   1.000  H
  H5       1.0000 0.31110  0.13590  0.13350  Biso   1.000  H
  H6       1.0000 0.18890  0.36410  0.13350  Biso   1.000  H
  H7       1.0000 0.86410  0.81110  0.63350  Biso   1.000  H
  H8       1.0000 0.63590  0.68890  0.63350  Biso   1.000  H
  C17      1.0000 0.59670  0.90770  0.72670  Biso   1.000  C
  C18      1.0000 0.90330  0.59230  0.72670  Biso   1.000  C
  C19      1.0000 0.09230  0.09670  0.22670  Biso   1.000  C
  C20      1.0000 0.40770  0.40330  0.22670  Biso   1.000  C
  C21      1.0000 0.40330  0.09230  0.27330  Biso   1.000  C
  C22      1.0000 0.09670  0.40770  0.27330  Biso   1.000  C
  C23      1.0000 0.90770  0.90330  0.77330  Biso   1.000  C
  C24      1.0000 0.59230  0.59670  0.77330  Biso   1.000  C
  H9       1.0000 0.64630  0.91180  0.66490  Biso   1.000  H
  H10      1.0000 0.85370  0.58820  0.66490  Biso   1.000  H
  H11      1.0000 0.08820  0.14630  0.16490  Biso   1.000  H
  H12      1.0000 0.41180  0.35370  0.16490  Biso   1.000  H
  H13      1.0000 0.35370  0.08820  0.33510  Biso   1.000  H
  H14      1.0000 0.14630  0.41180  0.33510  Biso   1.000  H
  H15      1.0000 0.91180  0.85370  0.83510  Biso   1.000  H
  H16      1.0000 0.58820  0.64630  0.83510  Biso   1.000  H
  C25      1.0000 0.49890  0.93110  0.69580  Biso   1.000  C
  C26      1.0000 0.00110  0.56890  0.69580  Biso   1.000  C
  C27      1.0000 0.06890  0.99890  0.19580  Biso   1.000  C
  C28      1.0000 0.43110  0.50110  0.19580  Biso   1.000  C
  C29      1.0000 0.50110  0.06890  0.30420  Biso   1.000  C
  C30      1.0000 0.99890  0.43110  0.30420  Biso   1.000  C
  C31      1.0000 0.93110  0.00110  0.80420  Biso   1.000  C
  C32      1.0000 0.56890  0.49890  0.80420  Biso   1.000  C
  H17      1.0000 0.48440  0.95120  0.61390  Biso   1.000  H
  H18      1.0000 0.01560  0.54880  0.61390  Biso   1.000  H
  H19      1.0000 0.04880  0.98440  0.11390  Biso   1.000  H
  H20      1.0000 0.45120  0.51560  0.11390  Biso   1.000  H
  H21      1.0000 0.51560  0.04880  0.38610  Biso   1.000  H
  H22      1.0000 0.98440  0.45120  0.38610  Biso   1.000  H
  H23      1.0000 0.95120  0.01560  0.88610  Biso   1.000  H
  H24      1.0000 0.54880  0.48440  0.88610  Biso   1.000  H
  C33      1.0000 0.42350  0.92570  0.78050  Biso   1.000  C
  C34      1.0000 0.07650  0.57430  0.78050  Biso   1.000  C
  C35      1.0000 0.07430  0.92350  0.28050  Biso   1.000  C
  C36      1.0000 0.42570  0.57650  0.28050  Biso   1.000  C
  C37      1.0000 0.57650  0.07430  0.21950  Biso   1.000  C
  C38      1.0000 0.92350  0.42570  0.21950  Biso   1.000  C
  C39      1.0000 0.92570  0.07650  0.71950  Biso   1.000  C
  C40      1.0000 0.57430  0.42350  0.71950  Biso   1.000  C
  H25      1.0000 0.35770  0.94200  0.75880  Biso   1.000  H
  H26      1.0000 0.14230  0.55800  0.75880  Biso   1.000  H
  H27      1.0000 0.05800  0.85770  0.25880  Biso   1.000  H
  H28      1.0000 0.44200  0.64230  0.25880  Biso   1.000  H
  H29      1.0000 0.64230  0.05800  0.24120  Biso   1.000  H
  H30      1.0000 0.85770  0.44200  0.24120  Biso   1.000  H
  H31      1.0000 0.94200  0.14230  0.74120  Biso   1.000  H
  H32      1.0000 0.55800  0.35770  0.74120  Biso   1.000  H
  C41      1.0000 0.44780  0.89530  0.89940  Biso   1.000  C
  C42      1.0000 0.05220  0.60470  0.89940  Biso   1.000  C
  C43      1.0000 0.10470  0.94780  0.39940  Biso   1.000  C
  C44      1.0000 0.39530  0.55220  0.39940  Biso   1.000  C
  C45      1.0000 0.55220  0.10470  0.10060  Biso   1.000  C
  C46      1.0000 0.94780  0.39530  0.10060  Biso   1.000  C
  C47      1.0000 0.89530  0.05220  0.60060  Biso   1.000  C
  C48      1.0000 0.60470  0.44780  0.60060  Biso   1.000  C
  C49      1.0000 0.28740  0.88890  0.02720  Biso   1.000  C
  C50      1.0000 0.21260  0.61110  0.02720  Biso   1.000  C
  C51      1.0000 0.11110  0.78740  0.52720  Biso   1.000  C
  C52      1.0000 0.38890  0.71260  0.52720  Biso   1.000  C
  C53      1.0000 0.71260  0.11110  0.97280  Biso   1.000  C
  C54      1.0000 0.78740  0.38890  0.97280  Biso   1.000  C
  C55      1.0000 0.88890  0.21260  0.47280  Biso   1.000  C
  C56      1.0000 0.61110  0.28740  0.47280  Biso   1.000  C
  C57      1.0000 0.23500  0.80000  0.98300  Biso   1.000  C
  C58      1.0000 0.26500  0.70000  0.98300  Biso   1.000  C
  C59      1.0000 0.20000  0.73500  0.48300  Biso   1.000  C
  C60      1.0000 0.30000  0.76500  0.48300  Biso   1.000  C
  C61      1.0000 0.76500  0.20000  0.01700  Biso   1.000  C
  C62      1.0000 0.73500  0.30000  0.01700  Biso   1.000  C
  C63      1.0000 0.80000  0.26500  0.51700  Biso   1.000  C
  C64      1.0000 0.70000  0.23500  0.51700  Biso   1.000  C
  C65      1.0000 0.24400  0.78800  0.06500  Biso   1.000  C
  C66      1.0000 0.25600  0.71200  0.06500  Biso   1.000  C
  C67      1.0000 0.21200  0.74400  0.56500  Biso   1.000  C
  C68      1.0000 0.28800  0.75600  0.56500  Biso   1.000  C
  C69      1.0000 0.75600  0.21200  0.93500  Biso   1.000  C
  C70      1.0000 0.74400  0.28800  0.93500  Biso   1.000  C
  C71      1.0000 0.78800  0.25600  0.43500  Biso   1.000  C
  C72      1.0000 0.71200  0.24400  0.43500  Biso   1.000  C
