data_image0
_cell_length_a       14.117
_cell_length_b       20.191
_cell_length_c       21.811
_cell_angle_alpha    85.828
_cell_angle_beta     82.536
_cell_angle_gamma    78.003

_symmetry_space_group_name_H-M    "P 1"
_symmetry_int_tables_number       1

loop_
  _symmetry_equiv_pos_as_xyz
  'x, y, z'

loop_
  _atom_site_label
  _atom_site_occupancy
  _atom_site_fract_x
  _atom_site_fract_y
  _atom_site_fract_z
  _atom_site_thermal_displace_type
  _atom_site_B_iso_or_equiv
  _atom_site_type_symbol
  P1       1.0000 0.01110  0.49589  0.25041  Biso   1.000  P
  P2       1.0000 0.98890  0.50411  0.74959  Biso   1.000  P
  W1       1.0000 0.15514  0.55756  0.12080  Biso   1.000  W
  W2       1.0000 0.84486  0.44244  0.87920  Biso   1.000  W
  W3       1.0000 0.24449  0.52912  0.26466  Biso   1.000  W
  W4       1.0000 0.75551  0.47088  0.73534  Biso   1.000  W
  W5       1.0000 0.05778  0.66477  0.24079  Biso   1.000  W
  W6       1.0000 0.94222  0.33523  0.75921  Biso   1.000  W
  W7       1.0000 0.20361  0.35430  0.27562  Biso   1.000  W
  W8       1.0000 0.79639  0.64570  0.72438  Biso   1.000  W
  W9       1.0000 0.97751  0.32490  0.25641  Biso   1.000  W
  W10      1.0000 0.02249  0.67510  0.74359  Biso   1.000  W
  W11      1.0000 0.11721  0.38410  0.13080  Biso   1.000  W
  W12      1.0000 0.88279  0.61590  0.86920  Biso   1.000  W
  W13      1.0000 0.87123  0.43905  0.38309  Biso   1.000  W
  W14      1.0000 0.12877  0.56095  0.61691  Biso   1.000  W
  W15      1.0000 0.90756  0.60246  0.37423  Biso   1.000  W
  W16      1.0000 0.09244  0.39754  0.62577  Biso   1.000  W
  W17      1.0000 0.09480  0.46984  0.39874  Biso   1.000  W
  W18      1.0000 0.90520  0.53016  0.60126  Biso   1.000  W
  W19      1.0000 0.81665  0.63316  0.22004  Biso   1.000  W
  W20      1.0000 0.18335  0.36684  0.77996  Biso   1.000  W
  W21      1.0000 0.77778  0.46891  0.22960  Biso   1.000  W
  W22      1.0000 0.22222  0.53109  0.77040  Biso   1.000  W
  W23      1.0000 0.91726  0.52528  0.10496  Biso   1.000  W
  W24      1.0000 0.08274  0.47472  0.89504  Biso   1.000  W
  Cu1      1.0000 0.50640  0.41438  0.24365  Biso   1.000  Cu
  Cu2      1.0000 0.49360  0.58562  0.75635  Biso   1.000  Cu
  Cu3      1.0000 0.45000  0.41231  0.74834  Biso   1.000  Cu
  Cu4      1.0000 0.55000  0.58769  0.25166  Biso   1.000  Cu
  Cu5      1.0000 0.01032  0.05730  0.48824  Biso   1.000  Cu
  Cu6      1.0000 0.98968  0.94270  0.51176  Biso   1.000  Cu
  Cu7      1.0000 0.24380  0.00269  0.55801  Biso   1.000  Cu
  Cu8      1.0000 0.75620  0.99731  0.44199  Biso   1.000  Cu
  Cu9      1.0000 0.26900  0.94222  0.46438  Biso   1.000  Cu
  Cu10     1.0000 0.73100  0.05778  0.53562  Biso   1.000  Cu
  Cu11     1.0000 0.51670  0.96481  0.45099  Biso   1.000  Cu
  Cu12     1.0000 0.48330  0.03519  0.54901  Biso   1.000  Cu
  Cu13     1.0000 0.00903  0.05750  0.98587  Biso   1.000  Cu
  Cu14     1.0000 0.99097  0.94250  0.01413  Biso   1.000  Cu
  Cu15     1.0000 0.73480  0.05550  0.05164  Biso   1.000  Cu
  Cu16     1.0000 0.26520  0.94450  0.94836  Biso   1.000  Cu
  Cu17     1.0000 0.74480  0.99775  0.95805  Biso   1.000  Cu
  Cu18     1.0000 0.25520  0.00225  0.04195  Biso   1.000  Cu
  Cu19     1.0000 0.49570  0.03307  0.04850  Biso   1.000  Cu
  Cu20     1.0000 0.50430  0.96693  0.95150  Biso   1.000  Cu
  O1       1.0000 0.15250  0.39120  0.35070  Biso   1.000  O
  O2       1.0000 0.84750  0.60880  0.64930  Biso   1.000  O
  O3       1.0000 0.05600  0.42150  0.23600  Biso   1.000  O
  O4       1.0000 0.94400  0.57850  0.76400  Biso   1.000  O
  O5       1.0000 0.11750  0.64470  0.15800  Biso   1.000  O
  O6       1.0000 0.88250  0.35530  0.84200  Biso   1.000  O
  O7       1.0000 0.10500  0.29900  0.28400  Biso   1.000  O
  O8       1.0000 0.89500  0.70100  0.71600  Biso   1.000  O
  O9       1.0000 0.83810  0.53230  0.40470  Biso   1.000  O
  O10      1.0000 0.16190  0.46770  0.59530  Biso   1.000  O
  O11      1.0000 0.04290  0.31980  0.17360  Biso   1.000  O
  O12      1.0000 0.95710  0.68020  0.82640  Biso   1.000  O
  O13      1.0000 0.84110  0.61020  0.13730  Biso   1.000  O
  O14      1.0000 0.15890  0.38980  0.86270  Biso   1.000  O
  O15      1.0000 0.79420  0.46420  0.31570  Biso   1.000  O
  O16      1.0000 0.20580  0.53580  0.68430  Biso   1.000  O
  O17      1.0000 0.08560  0.54120  0.23060  Biso   1.000  O
  O18      1.0000 0.91440  0.45880  0.76940  Biso   1.000  O
  O19      1.0000 0.18170  0.51710  0.34330  Biso   1.000  O
  O20      1.0000 0.81830  0.48290  0.65670  Biso   1.000  O
  O21      1.0000 0.73330  0.56650  0.23590  Biso   1.000  O
  O22      1.0000 0.26670  0.43350  0.76410  Biso   1.000  O
  O23      1.0000 0.81160  0.48220  0.14520  Biso   1.000  O
  O24      1.0000 0.18840  0.51780  0.85480  Biso   1.000  O
  O25      1.0000 0.91930  0.51930  0.21840  Biso   1.000  O
  O26      1.0000 0.08070  0.48070  0.78160  Biso   1.000  O
  O27      1.0000 0.86820  0.38370  0.22750  Biso   1.000  O
  O28      1.0000 0.13180  0.61630  0.77250  Biso   1.000  O
  O29      1.0000 0.98460  0.49980  0.32030  Biso   1.000  O
  O30      1.0000 0.01540  0.50020  0.67970  Biso   1.000  O
  O31      1.0000 0.25890  0.54140  0.17710  Biso   1.000  O
  O32      1.0000 0.74110  0.45860  0.82290  Biso   1.000  O
  O33      1.0000 0.25810  0.43450  0.25570  Biso   1.000  O
  O34      1.0000 0.74190  0.56550  0.74430  Biso   1.000  O
  O35      1.0000 0.79510  0.40460  0.43830  Biso   1.000  O
  O36      1.0000 0.20490  0.59540  0.56170  Biso   1.000  O
  O37      1.0000 0.00540  0.43640  0.10720  Biso   1.000  O
  O38      1.0000 0.99460  0.56360  0.89280  Biso   1.000  O
  O39      1.0000 0.73080  0.70510  0.21610  Biso   1.000  O
  O40      1.0000 0.26920  0.29490  0.78390  Biso   1.000  O
  O41      1.0000 0.36000  0.53480  0.27620  Biso   1.000  O
  O42      1.0000 0.64000  0.46520  0.72380  Biso   1.000  O
  O43      1.0000 0.66840  0.44560  0.23180  Biso   1.000  O
  O44      1.0000 0.33160  0.55440  0.76820  Biso   1.000  O
  O45      1.0000 0.84840  0.66230  0.42400  Biso   1.000  O
  O46      1.0000 0.15160  0.33770  0.57600  Biso   1.000  O
  O47      1.0000 0.17120  0.34120  0.06640  Biso   1.000  O
  O48      1.0000 0.82880  0.65880  0.93360  Biso   1.000  O
  O49      1.0000 0.83150  0.62030  0.30690  Biso   1.000  O
  O50      1.0000 0.16850  0.37970  0.69310  Biso   1.000  O
  O51      1.0000 0.94260  0.24870  0.26530  Biso   1.000  O
  O52      1.0000 0.05740  0.75130  0.73470  Biso   1.000  O
  O53      1.0000 0.18250  0.62360  0.26710  Biso   1.000  O
  O54      1.0000 0.81750  0.37640  0.73290  Biso   1.000  O
  O55      1.0000 0.30140  0.29510  0.29460  Biso   1.000  O
  O56      1.0000 0.69860  0.70490  0.70540  Biso   1.000  O
  O57      1.0000 0.21360  0.34490  0.18830  Biso   1.000  O
  O58      1.0000 0.78640  0.65510  0.81170  Biso   1.000  O
  O59      1.0000 0.93450  0.66660  0.21380  Biso   1.000  O
  O60      1.0000 0.06550  0.33340  0.78620  Biso   1.000  O
  O61      1.0000 0.93370  0.36300  0.33440  Biso   1.000  O
  O62      1.0000 0.06630  0.63700  0.66560  Biso   1.000  O
  O63      1.0000 0.01310  0.55680  0.41710  Biso   1.000  O
  O64      1.0000 0.98690  0.44320  0.58290  Biso   1.000  O
  O65      1.0000 0.22230  0.57960  0.05380  Biso   1.000  O
  O66      1.0000 0.77770  0.42040  0.94620  Biso   1.000  O
  O67      1.0000 0.03400  0.56290  0.09720  Biso   1.000  O
  O68      1.0000 0.96600  0.43710  0.90280  Biso   1.000  O
  O69      1.0000 0.06290  0.74780  0.23960  Biso   1.000  O
  O70      1.0000 0.93710  0.25220  0.76040  Biso   1.000  O
  O71      1.0000 0.17540  0.46140  0.12200  Biso   1.000  O
  O72      1.0000 0.82460  0.53860  0.87800  Biso   1.000  O
  O73      1.0000 0.99830  0.64480  0.32200  Biso   1.000  O
  O74      1.0000 0.00170  0.35520  0.67800  Biso   1.000  O
  O75      1.0000 0.98040  0.42950  0.42460  Biso   1.000  O
  O76      1.0000 0.01960  0.57050  0.57540  Biso   1.000  O
  O77      1.0000 0.88000  0.53490  0.02410  Biso   1.000  O
  O78      1.0000 0.12000  0.46510  0.97590  Biso   1.000  O
  O79      1.0000 0.16440  0.45000  0.46600  Biso   1.000  O
  O80      1.0000 0.83560  0.55000  0.53400  Biso   1.000  O
  O81      1.0000 0.03910  0.04050  0.40400  Biso   1.000  O
  O82      1.0000 0.96090  0.95950  0.59600  Biso   1.000  O
  O83      1.0000 0.29410  0.01830  0.41790  Biso   1.000  O
  O84      1.0000 0.70590  0.98170  0.58210  Biso   1.000  O
  O85      1.0000 0.21420  0.92770  0.60460  Biso   1.000  O
  O86      1.0000 0.78580  0.07230  0.39540  Biso   1.000  O
  O87      1.0000 0.55310  0.04280  0.40730  Biso   1.000  O
  O88      1.0000 0.44690  0.95720  0.59270  Biso   1.000  O
  O89      1.0000 0.02250  0.03980  0.90290  Biso   1.000  O
  O90      1.0000 0.97750  0.96020  0.09710  Biso   1.000  O
  O91      1.0000 0.76570  0.07390  0.91010  Biso   1.000  O
  O92      1.0000 0.23430  0.92610  0.08990  Biso   1.000  O
  O93      1.0000 0.71790  0.97770  0.10020  Biso   1.000  O
  O94      1.0000 0.28210  0.02230  0.89980  Biso   1.000  O
  O95      1.0000 0.46840  0.95360  0.09450  Biso   1.000  O
  O96      1.0000 0.53160  0.04640  0.90550  Biso   1.000  O
  O97      1.0000 0.79100  0.38230  0.57390  Biso   1.000  O
  O98      1.0000 0.20900  0.61770  0.42610  Biso   1.000  O
  O99      1.0000 0.81680  0.37240  0.07030  Biso   1.000  O
  O100     1.0000 0.18320  0.62760  0.92970  Biso   1.000  O
  C1       1.0000 0.37870  0.40470  0.87950  Biso   1.000  C
  C2       1.0000 0.62130  0.59530  0.12050  Biso   1.000  C
  H1       1.0000 0.31900  0.40310  0.86660  Biso   1.000  H
  H2       1.0000 0.68100  0.59690  0.13340  Biso   1.000  H
  C3       1.0000 0.38650  0.40690  0.94270  Biso   1.000  C
  C4       1.0000 0.61350  0.59310  0.05730  Biso   1.000  C
  H3       1.0000 0.33200  0.40680  0.97170  Biso   1.000  H
  H4       1.0000 0.66800  0.59320  0.02830  Biso   1.000  H
  C5       1.0000 0.47640  0.40930  0.96220  Biso   1.000  C
  C6       1.0000 0.52360  0.59070  0.03780  Biso   1.000  C
  C7       1.0000 0.55840  0.40950  0.91860  Biso   1.000  C
  C8       1.0000 0.44160  0.59050  0.08140  Biso   1.000  C
  H5       1.0000 0.61810  0.41110  0.93150  Biso   1.000  H
  H6       1.0000 0.38190  0.58890  0.06850  Biso   1.000  H
  C9       1.0000 0.55060  0.40720  0.85540  Biso   1.000  C
  C10      1.0000 0.44940  0.59280  0.14460  Biso   1.000  C
  H7       1.0000 0.60510  0.40730  0.82650  Biso   1.000  H
  H8       1.0000 0.39490  0.59270  0.17350  Biso   1.000  H
  N1       1.0000 0.46070  0.40480  0.83590  Biso   1.000  N
  N2       1.0000 0.53930  0.59520  0.16410  Biso   1.000  N
  C11      1.0000 0.40790  0.41230  0.13480  Biso   1.000  C
  C12      1.0000 0.59210  0.58770  0.86520  Biso   1.000  C
  H9       1.0000 0.35280  0.41230  0.16330  Biso   1.000  H
  H10      1.0000 0.64720  0.58770  0.83670  Biso   1.000  H
  C13      1.0000 0.40150  0.41060  0.07130  Biso   1.000  C
  C14      1.0000 0.59850  0.58940  0.92870  Biso   1.000  C
  H11      1.0000 0.34210  0.40940  0.05760  Biso   1.000  H
  H12      1.0000 0.65790  0.59060  0.94240  Biso   1.000  H
  C15      1.0000 0.48470  0.41070  0.02830  Biso   1.000  C
  C16      1.0000 0.51530  0.58930  0.97170  Biso   1.000  C
  C17      1.0000 0.57440  0.41250  0.04890  Biso   1.000  C
  C18      1.0000 0.42560  0.58750  0.95110  Biso   1.000  C
  H13      1.0000 0.62950  0.41250  0.02050  Biso   1.000  H
  H14      1.0000 0.37050  0.58750  0.97950  Biso   1.000  H
  C19      1.0000 0.58070  0.41420  0.11250  Biso   1.000  C
  C20      1.0000 0.41930  0.58580  0.88750  Biso   1.000  C
  H15      1.0000 0.64010  0.41540  0.12620  Biso   1.000  H
  H16      1.0000 0.35990  0.58460  0.87380  Biso   1.000  H
  N3       1.0000 0.49750  0.41420  0.15550  Biso   1.000  N
  N4       1.0000 0.50250  0.58580  0.84450  Biso   1.000  N
  C21      1.0000 0.40890  0.40380  0.36800  Biso   1.000  C
  C22      1.0000 0.59110  0.59620  0.63200  Biso   1.000  C
  H17      1.0000 0.35420  0.40190  0.34920  Biso   1.000  H
  H18      1.0000 0.64580  0.59810  0.65080  Biso   1.000  H
  C23      1.0000 0.40170  0.40630  0.43170  Biso   1.000  C
  C24      1.0000 0.59830  0.59370  0.56830  Biso   1.000  C
  H19      1.0000 0.34230  0.40600  0.45560  Biso   1.000  H
  H20      1.0000 0.65770  0.59400  0.54440  Biso   1.000  H
  C25      1.0000 0.48300  0.40930  0.45980  Biso   1.000  C
  C26      1.0000 0.51700  0.59070  0.54020  Biso   1.000  C
  C27      1.0000 0.57140  0.40970  0.42420  Biso   1.000  C
  C28      1.0000 0.42860  0.59030  0.57580  Biso   1.000  C
  H21      1.0000 0.62610  0.41170  0.44310  Biso   1.000  H
  H22      1.0000 0.37390  0.58830  0.55690  Biso   1.000  H
  C29      1.0000 0.57860  0.40710  0.36060  Biso   1.000  C
  C30      1.0000 0.42140  0.59290  0.63940  Biso   1.000  C
  H23      1.0000 0.63800  0.40740  0.33670  Biso   1.000  H
  H24      1.0000 0.36200  0.59260  0.66330  Biso   1.000  H
  N5       1.0000 0.49730  0.40420  0.33250  Biso   1.000  N
  N6       1.0000 0.50270  0.59580  0.66750  Biso   1.000  N
  C31      1.0000 0.37680  0.41800  0.63000  Biso   1.000  C
  C32      1.0000 0.62320  0.58200  0.37000  Biso   1.000  C
  H25      1.0000 0.31610  0.42190  0.65340  Biso   1.000  H
  H26      1.0000 0.68390  0.57810  0.34660  Biso   1.000  H
  C33      1.0000 0.38430  0.41680  0.56560  Biso   1.000  C
  C34      1.0000 0.61570  0.58320  0.43440  Biso   1.000  C
  H27      1.0000 0.32860  0.42000  0.54610  Biso   1.000  H
  H28      1.0000 0.67140  0.58000  0.45390  Biso   1.000  H
  C35      1.0000 0.47550  0.41080  0.53040  Biso   1.000  C
  C36      1.0000 0.52450  0.58920  0.46960  Biso   1.000  C
  C37      1.0000 0.55920  0.40600  0.55980  Biso   1.000  C
  C38      1.0000 0.44080  0.59400  0.44020  Biso   1.000  C
  H29      1.0000 0.61990  0.40200  0.53640  Biso   1.000  H
  H30      1.0000 0.38010  0.59800  0.46360  Biso   1.000  H
  C39      1.0000 0.55160  0.40710  0.62420  Biso   1.000  C
  C40      1.0000 0.44840  0.59290  0.37580  Biso   1.000  C
  H31      1.0000 0.60730  0.40390  0.64370  Biso   1.000  H
  H32      1.0000 0.39270  0.59610  0.35630  Biso   1.000  H
  N7       1.0000 0.46040  0.41310  0.65930  Biso   1.000  N
  N8       1.0000 0.53960  0.58690  0.34070  Biso   1.000  N
  C41      1.0000 0.04090  0.98220  0.38350  Biso   1.000  C
  C42      1.0000 0.95910  0.01780  0.61650  Biso   1.000  C
  C43      1.0000 0.06100  0.96940  0.32190  Biso   1.000  C
  C44      1.0000 0.93900  0.03060  0.67810  Biso   1.000  C
  H33      1.0000 0.07400  0.00360  0.29310  Biso   1.000  H
  H34      1.0000 0.92600  0.99640  0.70690  Biso   1.000  H
  C45      1.0000 0.06180  0.90610  0.30260  Biso   1.000  C
  C46      1.0000 0.93820  0.09390  0.69740  Biso   1.000  C
  H35      1.0000 0.07550  0.89740  0.26070  Biso   1.000  H
  H36      1.0000 0.92450  0.10260  0.73930  Biso   1.000  H
  C47      1.0000 0.04260  0.85570  0.34500  Biso   1.000  C
  C48      1.0000 0.95740  0.14430  0.65500  Biso   1.000  C
  H37      1.0000 0.04310  0.81270  0.33190  Biso   1.000  H
  H38      1.0000 0.95690  0.18730  0.66810  Biso   1.000  H
  C49      1.0000 0.02250  0.86850  0.40670  Biso   1.000  C
  C50      1.0000 0.97750  0.13150  0.59330  Biso   1.000  C
  N9       1.0000 0.97840  0.06820  0.57400  Biso   1.000  N
  N10      1.0000 0.02160  0.93180  0.42600  Biso   1.000  N
  C51      1.0000 0.00460  0.81780  0.45680  Biso   1.000  C
  C52      1.0000 0.99540  0.18220  0.54320  Biso   1.000  C
  C53      1.0000 0.00780  0.75060  0.45020  Biso   1.000  C
  C54      1.0000 0.99220  0.24940  0.54980  Biso   1.000  C
  H39      1.0000 0.02450  0.73270  0.41120  Biso   1.000  H
  H40      1.0000 0.97550  0.26730  0.58880  Biso   1.000  H
  C55      1.0000 0.98660  0.70990  0.50060  Biso   1.000  C
  C56      1.0000 0.01340  0.29010  0.49940  Biso   1.000  C
  H41      1.0000 0.98880  0.66410  0.49610  Biso   1.000  H
  H42      1.0000 0.01120  0.33590  0.50390  Biso   1.000  H
  C57      1.0000 0.96220  0.73620  0.55780  Biso   1.000  C
  C58      1.0000 0.03780  0.26380  0.44220  Biso   1.000  C
  C59      1.0000 0.95900  0.80340  0.56450  Biso   1.000  C
  C60      1.0000 0.04100  0.19660  0.43550  Biso   1.000  C
  H43      1.0000 0.94230  0.82140  0.60340  Biso   1.000  H
  H44      1.0000 0.05770  0.17860  0.39660  Biso   1.000  H
  N11      1.0000 0.01980  0.15580  0.48600  Biso   1.000  N
  N12      1.0000 0.98020  0.84420  0.51400  Biso   1.000  N
  C61      1.0000 0.28370  0.07870  0.44280  Biso   1.000  C
  C62      1.0000 0.71630  0.92130  0.55720  Biso   1.000  C
  C63      1.0000 0.29420  0.13720  0.40860  Biso   1.000  C
  C64      1.0000 0.70580  0.86280  0.59140  Biso   1.000  C
  H45      1.0000 0.30970  0.13630  0.36590  Biso   1.000  H
  H46      1.0000 0.69030  0.86370  0.63410  Biso   1.000  H
  C65      1.0000 0.28200  0.19720  0.43760  Biso   1.000  C
  C66      1.0000 0.71800  0.80280  0.56240  Biso   1.000  C
  H47      1.0000 0.28910  0.23680  0.41450  Biso   1.000  H
  H48      1.0000 0.71090  0.76320  0.58550  Biso   1.000  H
  C67      1.0000 0.25910  0.19860  0.50080  Biso   1.000  C
  C68      1.0000 0.74090  0.80140  0.49920  Biso   1.000  C
  H49      1.0000 0.25080  0.23910  0.52050  Biso   1.000  H
  H50      1.0000 0.74920  0.76090  0.47950  Biso   1.000  H
  C69      1.0000 0.24860  0.14000  0.53500  Biso   1.000  C
  C70      1.0000 0.75140  0.86000  0.46500  Biso   1.000  C
  N13      1.0000 0.26090  0.08010  0.50600  Biso   1.000  N
  N14      1.0000 0.73910  0.91990  0.49400  Biso   1.000  N
  C71      1.0000 0.22370  0.13430  0.60320  Biso   1.000  C
  C72      1.0000 0.77630  0.86570  0.39680  Biso   1.000  C
  C73      1.0000 0.20550  0.18710  0.64280  Biso   1.000  C
  C74      1.0000 0.79450  0.81290  0.35720  Biso   1.000  C
  H51      1.0000 0.20860  0.23080  0.62710  Biso   1.000  H
  H52      1.0000 0.79140  0.76920  0.37290  Biso   1.000  H
  C75      1.0000 0.18250  0.17500  0.70560  Biso   1.000  C
  C76      1.0000 0.81750  0.82500  0.29440  Biso   1.000  C
  H53      1.0000 0.17030  0.21060  0.73220  Biso   1.000  H
  H54      1.0000 0.82970  0.78940  0.26780  Biso   1.000  H
  C77      1.0000 0.17780  0.11010  0.72880  Biso   1.000  C
  C78      1.0000 0.82220  0.88990  0.27120  Biso   1.000  C
  H55      1.0000 0.16230  0.10200  0.77100  Biso   1.000  H
  H56      1.0000 0.83770  0.89800  0.22900  Biso   1.000  H
  C79      1.0000 0.19600  0.05740  0.68920  Biso   1.000  C
  C80      1.0000 0.80400  0.94260  0.31080  Biso   1.000  C
  H57      1.0000 0.19290  0.01370  0.70480  Biso   1.000  H
  H58      1.0000 0.80710  0.98630  0.29520  Biso   1.000  H
  N15      1.0000 0.21900  0.06940  0.62650  Biso   1.000  N
  N16      1.0000 0.78100  0.93060  0.37350  Biso   1.000  N
  C81      1.0000 0.21220  0.87090  0.57890  Biso   1.000  C
  C82      1.0000 0.78780  0.12910  0.42110  Biso   1.000  C
  C83      1.0000 0.19280  0.81460  0.61270  Biso   1.000  C
  C84      1.0000 0.80720  0.18540  0.38730  Biso   1.000  C
  H59      1.0000 0.17700  0.81600  0.65540  Biso   1.000  H
  H60      1.0000 0.82300  0.18400  0.34460  Biso   1.000  H
  C85      1.0000 0.19650  0.75620  0.58370  Biso   1.000  C
  C86      1.0000 0.80350  0.24380  0.41630  Biso   1.000  C
  H61      1.0000 0.18320  0.71790  0.60670  Biso   1.000  H
  H62      1.0000 0.81680  0.28210  0.39330  Biso   1.000  H
  C87      1.0000 0.21970  0.75420  0.52100  Biso   1.000  C
  C88      1.0000 0.78030  0.24580  0.47900  Biso   1.000  C
  H63      1.0000 0.22220  0.71440  0.50130  Biso   1.000  H
  H64      1.0000 0.77780  0.28560  0.49870  Biso   1.000  H
  C89      1.0000 0.23920  0.81050  0.48730  Biso   1.000  C
  C90      1.0000 0.76080  0.18950  0.51270  Biso   1.000  C
  N17      1.0000 0.23540  0.86880  0.51620  Biso   1.000  N
  N18      1.0000 0.76460  0.13120  0.48380  Biso   1.000  N
  C91      1.0000 0.26530  0.81340  0.42140  Biso   1.000  C
  C92      1.0000 0.73470  0.18660  0.57860  Biso   1.000  C
  C93      1.0000 0.26930  0.76240  0.38340  Biso   1.000  C
  C94      1.0000 0.73070  0.23760  0.61660  Biso   1.000  C
  H65      1.0000 0.25700  0.72080  0.39980  Biso   1.000  H
  H66      1.0000 0.74300  0.27920  0.60020  Biso   1.000  H
  C95      1.0000 0.29120  0.77210  0.32140  Biso   1.000  C
  C96      1.0000 0.70880  0.22790  0.67860  Biso   1.000  C
  H67      1.0000 0.29390  0.73710  0.29530  Biso   1.000  H
  H68      1.0000 0.70610  0.26290  0.70470  Biso   1.000  H
  C97      1.0000 0.30910  0.83280  0.29740  Biso   1.000  C
  C98      1.0000 0.69090  0.16720  0.70260  Biso   1.000  C
  H69      1.0000 0.32410  0.83940  0.25490  Biso   1.000  H
  H70      1.0000 0.67590  0.16060  0.74510  Biso   1.000  H
  C99      1.0000 0.30510  0.88380  0.33540  Biso   1.000  C
  C100     1.0000 0.69490  0.11620  0.66460  Biso   1.000  C
  H71      1.0000 0.31740  0.92540  0.31890  Biso   1.000  H
  H72      1.0000 0.68260  0.07460  0.68110  Biso   1.000  H
  N19      1.0000 0.28320  0.87410  0.39740  Biso   1.000  N
  N20      1.0000 0.71680  0.12590  0.60260  Biso   1.000  N
  C101     1.0000 0.54220  0.10190  0.43090  Biso   1.000  C
  C102     1.0000 0.45780  0.89810  0.56910  Biso   1.000  C
  C103     1.0000 0.55510  0.15720  0.39360  Biso   1.000  C
  C104     1.0000 0.44490  0.84280  0.60640  Biso   1.000  C
  H73      1.0000 0.57270  0.15270  0.35130  Biso   1.000  H
  H74      1.0000 0.42730  0.84730  0.64870  Biso   1.000  H
  C105     1.0000 0.54220  0.21880  0.41820  Biso   1.000  C
  C106     1.0000 0.45780  0.78120  0.58180  Biso   1.000  C
  H75      1.0000 0.55100  0.25660  0.39270  Biso   1.000  H
  H76      1.0000 0.44900  0.74340  0.60730  Biso   1.000  H
  C107     1.0000 0.51640  0.22540  0.48010  Biso   1.000  C
  C108     1.0000 0.48360  0.77460  0.51990  Biso   1.000  C
  H77      1.0000 0.50760  0.26750  0.49690  Biso   1.000  H
  H78      1.0000 0.49240  0.73250  0.50310  Biso   1.000  H
  C109     1.0000 0.50350  0.17010  0.51740  Biso   1.000  C
  C110     1.0000 0.49650  0.82990  0.48260  Biso   1.000  C
  N21      1.0000 0.48360  0.89160  0.50720  Biso   1.000  N
  N22      1.0000 0.51640  0.10840  0.49280  Biso   1.000  N
  C111     1.0000 0.47540  0.17410  0.58430  Biso   1.000  C
  C112     1.0000 0.52460  0.82590  0.41570  Biso   1.000  C
  C113     1.0000 0.46200  0.23100  0.61630  Biso   1.000  C
  C114     1.0000 0.53800  0.76900  0.38370  Biso   1.000  C
  H79      1.0000 0.46960  0.27190  0.59560  Biso   1.000  H
  H80      1.0000 0.53040  0.72810  0.40440  Biso   1.000  H
  C115     1.0000 0.43760  0.22850  0.67850  Biso   1.000  C
  C116     1.0000 0.56240  0.77150  0.32150  Biso   1.000  C
  H81      1.0000 0.42850  0.26760  0.70050  Biso   1.000  H
  H82      1.0000 0.57150  0.73240  0.29950  Biso   1.000  H
  C117     1.0000 0.42650  0.16900  0.70870  Biso   1.000  C
  C118     1.0000 0.57350  0.83100  0.29130  Biso   1.000  C
  H83      1.0000 0.40980  0.16730  0.75140  Biso   1.000  H
  H84      1.0000 0.59020  0.83270  0.24860  Biso   1.000  H
  C119     1.0000 0.43980  0.11200  0.67680  Biso   1.000  C
  C120     1.0000 0.56020  0.88800  0.32320  Biso   1.000  C
  H85      1.0000 0.43220  0.07120  0.69750  Biso   1.000  H
  H86      1.0000 0.56780  0.92880  0.30250  Biso   1.000  H
  N23      1.0000 0.53570  0.88540  0.38550  Biso   1.000  N
  N24      1.0000 0.46430  0.11460  0.61450  Biso   1.000  N
  C121     1.0000 0.01970  0.98000  0.88350  Biso   1.000  C
  C122     1.0000 0.98030  0.02000  0.11650  Biso   1.000  C
  C123     1.0000 0.02960  0.96610  0.82230  Biso   1.000  C
  C124     1.0000 0.97040  0.03390  0.17770  Biso   1.000  C
  H87      1.0000 0.03850  0.99980  0.79190  Biso   1.000  H
  H88      1.0000 0.96150  0.00020  0.20810  Biso   1.000  H
  C125     1.0000 0.02640  0.90260  0.80570  Biso   1.000  C
  C126     1.0000 0.97360  0.09740  0.19430  Biso   1.000  C
  H89      1.0000 0.03310  0.89320  0.76400  Biso   1.000  H
  H90      1.0000 0.96690  0.10680  0.23600  Biso   1.000  H
  C127     1.0000 0.01330  0.85310  0.85030  Biso   1.000  C
  C128     1.0000 0.98670  0.14690  0.14970  Biso   1.000  C
  H91      1.0000 0.01110  0.80990  0.83900  Biso   1.000  H
  H92      1.0000 0.98890  0.19010  0.16100  Biso   1.000  H
  C129     1.0000 0.00340  0.86700  0.91150  Biso   1.000  C
  C130     1.0000 0.99660  0.13300  0.08850  Biso   1.000  C
  N25      1.0000 0.99340  0.06960  0.07190  Biso   1.000  N
  N26      1.0000 0.00660  0.93040  0.92810  Biso   1.000  N
  C131     1.0000 0.99300  0.81740  0.96360  Biso   1.000  C
  C132     1.0000 0.00700  0.18260  0.03640  Biso   1.000  C
  C133     1.0000 0.99280  0.75070  0.95840  Biso   1.000  C
  C134     1.0000 0.00720  0.24930  0.04160  Biso   1.000  C
  H93      1.0000 0.00120  0.73300  0.91940  Biso   1.000  H
  H94      1.0000 0.99880  0.26700  0.08060  Biso   1.000  H
  C135     1.0000 0.98040  0.71000  0.01000  Biso   1.000  C
  C136     1.0000 0.01960  0.29000  0.99000  Biso   1.000  C
  H95      1.0000 0.98030  0.66440  0.00640  Biso   1.000  H
  H96      1.0000 0.01970  0.33560  0.99360  Biso   1.000  H
  C137     1.0000 0.96810  0.73600  0.06700  Biso   1.000  C
  C138     1.0000 0.03190  0.26400  0.93300  Biso   1.000  C
  H97      1.0000 0.95950  0.70820  0.10230  Biso   1.000  H
  H98      1.0000 0.04050  0.29180  0.89770  Biso   1.000  H
  C139     1.0000 0.96830  0.80270  0.07230  Biso   1.000  C
  C140     1.0000 0.03170  0.19730  0.92770  Biso   1.000  C
  H99      1.0000 0.96000  0.82040  0.11130  Biso   1.000  H
  H100     1.0000 0.04000  0.17960  0.88870  Biso   1.000  H
  N27      1.0000 0.01930  0.15660  0.97940  Biso   1.000  N
  N28      1.0000 0.98070  0.84340  0.02060  Biso   1.000  N
  C141     1.0000 0.77270  0.12980  0.93530  Biso   1.000  C
  C142     1.0000 0.22730  0.87020  0.06470  Biso   1.000  C
  C143     1.0000 0.78670  0.18700  0.90120  Biso   1.000  C
  C144     1.0000 0.21330  0.81300  0.09880  Biso   1.000  C
  H101     1.0000 0.79590  0.18680  0.85820  Biso   1.000  H
  H102     1.0000 0.20410  0.81320  0.14180  Biso   1.000  H
  C145     1.0000 0.78700  0.24460  0.93000  Biso   1.000  C
  C146     1.0000 0.21300  0.75540  0.07000  Biso   1.000  C
  H103     1.0000 0.79650  0.28360  0.90670  Biso   1.000  H
  H104     1.0000 0.20350  0.71640  0.09330  Biso   1.000  H
  C147     1.0000 0.77350  0.24500  0.99300  Biso   1.000  C
  C148     1.0000 0.22650  0.75500  0.00700  Biso   1.000  C
  H105     1.0000 0.77380  0.28430  0.01270  Biso   1.000  H
  H106     1.0000 0.22620  0.71570  0.98730  Biso   1.000  H
  C149     1.0000 0.75960  0.18790  0.02720  Biso   1.000  C
  C150     1.0000 0.24040  0.81210  0.97280  Biso   1.000  C
  N29      1.0000 0.75920  0.13030  0.99830  Biso   1.000  N
  N30      1.0000 0.24080  0.86970  0.00170  Biso   1.000  N
  C151     1.0000 0.74540  0.18250  0.09470  Biso   1.000  C
  C152     1.0000 0.25460  0.81750  0.90530  Biso   1.000  C
  C153     1.0000 0.74570  0.23230  0.13190  Biso   1.000  C
  C154     1.0000 0.25430  0.76770  0.86810  Biso   1.000  C
  H107     1.0000 0.75460  0.27460  0.11500  Biso   1.000  H
  H108     1.0000 0.24540  0.72540  0.88500  Biso   1.000  H
  C155     1.0000 0.73320  0.22140  0.19340  Biso   1.000  C
  C156     1.0000 0.26680  0.77860  0.80660  Biso   1.000  C
  H109     1.0000 0.73330  0.25600  0.21930  Biso   1.000  H
  H110     1.0000 0.26670  0.74400  0.78070  Biso   1.000  H
  C157     1.0000 0.72040  0.16060  0.21780  Biso   1.000  C
  C158     1.0000 0.27960  0.83940  0.78220  Biso   1.000  C
  H111     1.0000 0.71180  0.15300  0.26050  Biso   1.000  H
  H112     1.0000 0.28820  0.84700  0.73950  Biso   1.000  H
  C159     1.0000 0.72010  0.11080  0.18050  Biso   1.000  C
  C160     1.0000 0.27990  0.88920  0.81950  Biso   1.000  C
  H113     1.0000 0.71120  0.06850  0.19740  Biso   1.000  H
  H114     1.0000 0.28880  0.93150  0.80260  Biso   1.000  H
  N31      1.0000 0.73260  0.12170  0.11900  Biso   1.000  N
  N32      1.0000 0.26740  0.87830  0.88100  Biso   1.000  N
  C161     1.0000 0.72200  0.91790  0.07460  Biso   1.000  C
  C162     1.0000 0.27800  0.08210  0.92540  Biso   1.000  C
  C163     1.0000 0.71690  0.85790  0.10790  Biso   1.000  C
  C164     1.0000 0.28310  0.14210  0.89210  Biso   1.000  C
  H115     1.0000 0.70890  0.85690  0.15090  Biso   1.000  H
  H116     1.0000 0.29110  0.14310  0.84910  Biso   1.000  H
  C165     1.0000 0.72350  0.79940  0.07750  Biso   1.000  C
  C166     1.0000 0.27650  0.20060  0.92250  Biso   1.000  C
  H117     1.0000 0.72000  0.75880  0.10000  Biso   1.000  H
  H118     1.0000 0.28000  0.24120  0.90000  Biso   1.000  H
  C167     1.0000 0.73530  0.80090  0.01370  Biso   1.000  C
  C168     1.0000 0.26470  0.19910  0.98630  Biso   1.000  C
  H119     1.0000 0.73980  0.76130  0.99320  Biso   1.000  H
  H120     1.0000 0.26020  0.23870  0.00680  Biso   1.000  H
  C169     1.0000 0.74050  0.86080  0.98040  Biso   1.000  C
  C170     1.0000 0.25950  0.13920  0.01960  Biso   1.000  C
  N33      1.0000 0.73380  0.91940  0.01090  Biso   1.000  N
  N34      1.0000 0.26620  0.08060  0.98910  Biso   1.000  N
  C171     1.0000 0.75360  0.86930  0.91290  Biso   1.000  C
  C172     1.0000 0.24640  0.13070  0.08710  Biso   1.000  C
  C173     1.0000 0.76480  0.81750  0.87360  Biso   1.000  C
  C174     1.0000 0.23520  0.18250  0.12640  Biso   1.000  C
  H121     1.0000 0.76380  0.77370  0.88960  Biso   1.000  H
  H122     1.0000 0.23620  0.22630  0.11040  Biso   1.000  H
  C175     1.0000 0.77750  0.83040  0.81090  Biso   1.000  C
  C176     1.0000 0.22250  0.16960  0.18910  Biso   1.000  C
  H123     1.0000 0.78510  0.79530  0.78430  Biso   1.000  H
  H124     1.0000 0.21490  0.20470  0.21570  Biso   1.000  H
  C177     1.0000 0.77900  0.89500  0.78750  Biso   1.000  C
  C178     1.0000 0.22100  0.10500  0.21250  Biso   1.000  C
  H125     1.0000 0.78760  0.90370  0.74490  Biso   1.000  H
  H126     1.0000 0.21240  0.09630  0.25510  Biso   1.000  H
  C179     1.0000 0.76780  0.94670  0.82670  Biso   1.000  C
  C180     1.0000 0.23220  0.05330  0.17330  Biso   1.000  C
  H127     1.0000 0.76880  0.99060  0.81080  Biso   1.000  H
  H128     1.0000 0.23120  0.00940  0.18920  Biso   1.000  H
  N35      1.0000 0.75510  0.93380  0.88940  Biso   1.000  N
  N36      1.0000 0.24490  0.06620  0.11060  Biso   1.000  N
  C181     1.0000 0.47170  0.89490  0.06890  Biso   1.000  C
  C182     1.0000 0.52830  0.10510  0.93110  Biso   1.000  C
  C183     1.0000 0.46300  0.83940  0.10610  Biso   1.000  C
  C184     1.0000 0.53700  0.16060  0.89390  Biso   1.000  C
  H129     1.0000 0.45240  0.84280  0.14890  Biso   1.000  H
  H130     1.0000 0.54760  0.15720  0.85110  Biso   1.000  H
  C185     1.0000 0.46890  0.77910  0.08120  Biso   1.000  C
  C186     1.0000 0.53110  0.22090  0.91880  Biso   1.000  C
  H131     1.0000 0.46280  0.74100  0.10680  Biso   1.000  H
  H132     1.0000 0.53720  0.25900  0.89320  Biso   1.000  H
  C187     1.0000 0.48400  0.77420  0.01900  Biso   1.000  C
  C188     1.0000 0.51600  0.22580  0.98100  Biso   1.000  C
  H133     1.0000 0.48820  0.73270  0.00190  Biso   1.000  H
  H134     1.0000 0.51180  0.26730  0.99810  Biso   1.000  H
  C189     1.0000 0.49300  0.82970  0.98190  Biso   1.000  C
  C190     1.0000 0.50700  0.17030  0.01810  Biso   1.000  C
  N37      1.0000 0.51320  0.11000  0.99320  Biso   1.000  N
  N38      1.0000 0.48680  0.89000  0.00680  Biso   1.000  N
  C191     1.0000 0.50780  0.83090  0.91560  Biso   1.000  C
  C192     1.0000 0.49220  0.16910  0.08440  Biso   1.000  C
  C193     1.0000 0.52000  0.77420  0.88480  Biso   1.000  C
  C194     1.0000 0.48000  0.22580  0.11520  Biso   1.000  C
  H135     1.0000 0.51740  0.73300  0.90650  Biso   1.000  H
  H136     1.0000 0.48260  0.26700  0.09350  Biso   1.000  H
  C195     1.0000 0.53400  0.77680  0.82290  Biso   1.000  C
  C196     1.0000 0.46600  0.22320  0.17710  Biso   1.000  C
  H137     1.0000 0.54250  0.73740  0.80150  Biso   1.000  H
  H138     1.0000 0.45750  0.26260  0.19850  Biso   1.000  H
  C197     1.0000 0.53700  0.83610  0.79170  Biso   1.000  C
  C198     1.0000 0.46300  0.16390  0.20830  Biso   1.000  C
  H139     1.0000 0.54770  0.83780  0.74870  Biso   1.000  H
  H140     1.0000 0.45230  0.16220  0.25130  Biso   1.000  H
  C199     1.0000 0.52600  0.89280  0.82250  Biso   1.000  C
  C200     1.0000 0.47400  0.10720  0.17750  Biso   1.000  C
  H141     1.0000 0.52780  0.93400  0.80080  Biso   1.000  H
  H142     1.0000 0.47220  0.06600  0.19920  Biso   1.000  H
  N39      1.0000 0.48920  0.10980  0.11560  Biso   1.000  N
  N40      1.0000 0.51080  0.89020  0.88440  Biso   1.000  N
