data_image0
_cell_length_a       4.041
_cell_length_b       15.523
_cell_length_c       20.032
_cell_angle_alpha    73.949
_cell_angle_beta     86.989
_cell_angle_gamma    86.287

_symmetry_space_group_name_H-M    "P 1"
_symmetry_int_tables_number       1

loop_
  _symmetry_equiv_pos_as_xyz
  'x, y, z'

loop_
  _atom_site_label
  _atom_site_occupancy
  _atom_site_fract_x
  _atom_site_fract_y
  _atom_site_fract_z
  _atom_site_thermal_displace_type
  _atom_site_B_iso_or_equiv
  _atom_site_type_symbol
  I1       1.0000 0.77825  0.83536  0.06046  Biso   1.000  I
  I2       1.0000 0.22175  0.16464  0.93953  Biso   1.000  I
  I3       1.0000 0.38231  0.67710  0.93381  Biso   1.000  I
  I4       1.0000 0.61769  0.32290  0.06619  Biso   1.000  I
  Cu1      1.0000 0.84739  0.78313  0.94441  Biso   1.000  Cu
  Cu2      1.0000 0.15261  0.21687  0.05559  Biso   1.000  Cu
  Cu3      1.0000 0.31584  0.73166  0.04884  Biso   1.000  Cu
  Cu4      1.0000 0.68416  0.26834  0.95116  Biso   1.000  Cu
  N1       1.0000 0.89380  0.89660  0.86400  Biso   1.000  N
  N2       1.0000 0.10620  0.10340  0.13600  Biso   1.000  N
  N3       1.0000 0.28090  0.61530  0.12690  Biso   1.000  N
  N4       1.0000 0.71910  0.38470  0.87310  Biso   1.000  N
  C1       1.0000 0.76690  0.97660  0.86850  Biso   1.000  C
  C2       1.0000 0.23310  0.02340  0.13150  Biso   1.000  C
  H1       1.0000 0.63360  0.97860  0.90740  Biso   1.000  H
  H2       1.0000 0.36640  0.02140  0.09260  Biso   1.000  H
  C3       1.0000 0.82220  0.05630  0.81900  Biso   1.000  C
  C4       1.0000 0.17780  0.94370  0.18100  Biso   1.000  C
  H3       1.0000 0.72690  0.10980  0.82520  Biso   1.000  H
  H4       1.0000 0.27310  0.89020  0.17480  Biso   1.000  H
  C5       1.0000 0.01770  0.05720  0.76030  Biso   1.000  C
  C6       1.0000 0.98230  0.94280  0.23970  Biso   1.000  C
  C7       1.0000 0.14050  0.97360  0.75440  Biso   1.000  C
  C8       1.0000 0.85950  0.02640  0.24560  Biso   1.000  C
  H5       1.0000 0.26800  0.96940  0.71530  Biso   1.000  H
  H6       1.0000 0.73200  0.03060  0.28470  Biso   1.000  H
  C9       1.0000 0.07360  0.89750  0.80620  Biso   1.000  C
  C10      1.0000 0.92640  0.10250  0.19380  Biso   1.000  C
  H7       1.0000 0.15950  0.84280  0.80050  Biso   1.000  H
  H8       1.0000 0.84050  0.15720  0.19950  Biso   1.000  H
  C11      1.0000 0.10430  0.14250  0.70880  Biso   1.000  C
  C12      1.0000 0.89570  0.85750  0.29120  Biso   1.000  C
  C13      1.0000 0.07120  0.22320  0.72580  Biso   1.000  C
  C14      1.0000 0.92880  0.77680  0.27420  Biso   1.000  C
  H9       1.0000 0.98910  0.22370  0.76990  Biso   1.000  H
  H10      1.0000 0.01090  0.77630  0.23010  Biso   1.000  H
  C15      1.0000 0.15640  0.30310  0.67920  Biso   1.000  C
  C16      1.0000 0.84360  0.69690  0.32080  Biso   1.000  C
  H11      1.0000 0.12940  0.35660  0.69180  Biso   1.000  H
  H12      1.0000 0.87060  0.64340  0.30820  Biso   1.000  H
  C17      1.0000 0.28340  0.30280  0.61320  Biso   1.000  C
  C18      1.0000 0.71660  0.69720  0.38680  Biso   1.000  C
  C19      1.0000 0.32350  0.22290  0.59570  Biso   1.000  C
  C20      1.0000 0.67650  0.77710  0.40430  Biso   1.000  C
  H13      1.0000 0.41210  0.22220  0.55200  Biso   1.000  H
  H14      1.0000 0.58790  0.77780  0.44800  Biso   1.000  H
  C21      1.0000 0.23280  0.14380  0.64270  Biso   1.000  C
  C22      1.0000 0.76720  0.85620  0.35730  Biso   1.000  C
  H15      1.0000 0.25820  0.09050  0.62990  Biso   1.000  H
  H16      1.0000 0.74180  0.90950  0.37010  Biso   1.000  H
  C23      1.0000 0.37820  0.38890  0.56350  Biso   1.000  C
  C24      1.0000 0.62180  0.61110  0.43650  Biso   1.000  C
  C25      1.0000 0.37370  0.60630  0.19200  Biso   1.000  C
  C26      1.0000 0.62630  0.39370  0.80800  Biso   1.000  C
  H17      1.0000 0.46150  0.65530  0.20160  Biso   1.000  H
  H18      1.0000 0.53850  0.34470  0.79840  Biso   1.000  H
  C27      1.0000 0.34650  0.52820  0.24570  Biso   1.000  C
  C28      1.0000 0.65350  0.47180  0.75430  Biso   1.000  C
  H19      1.0000 0.41600  0.52520  0.28980  Biso   1.000  H
  H20      1.0000 0.58400  0.47480  0.71020  Biso   1.000  H
  C29      1.0000 0.21400  0.45460  0.23250  Biso   1.000  C
  C30      1.0000 0.78600  0.54540  0.76750  Biso   1.000  C
  C31      1.0000 0.11540  0.46430  0.16560  Biso   1.000  C
  C32      1.0000 0.88460  0.53570  0.83440  Biso   1.000  C
  H21      1.0000 0.02580  0.41650  0.15450  Biso   1.000  H
  H22      1.0000 0.97420  0.58350  0.84550  Biso   1.000  H
  C33      1.0000 0.14920  0.54390  0.11570  Biso   1.000  C
  C34      1.0000 0.85080  0.45610  0.88430  Biso   1.000  C
  H23      1.0000 0.07650  0.54870  0.07150  Biso   1.000  H
  H24      1.0000 0.92350  0.45130  0.92850  Biso   1.000  H
  C35      1.0000 0.18380  0.36760  0.28630  Biso   1.000  C
  C36      1.0000 0.81620  0.63240  0.71370  Biso   1.000  C
  C37      1.0000 0.26990  0.28790  0.26980  Biso   1.000  C
  C38      1.0000 0.73010  0.71210  0.73020  Biso   1.000  C
  H25      1.0000 0.35180  0.28990  0.22520  Biso   1.000  H
  H26      1.0000 0.64820  0.71010  0.77480  Biso   1.000  H
  C39      1.0000 0.23750  0.20640  0.31760  Biso   1.000  C
  C40      1.0000 0.76250  0.79360  0.68240  Biso   1.000  C
  H27      1.0000 0.29870  0.15370  0.30560  Biso   1.000  H
  H28      1.0000 0.70130  0.84630  0.69440  Biso   1.000  H
  C41      1.0000 0.11290  0.20270  0.38420  Biso   1.000  C
  C42      1.0000 0.88710  0.79730  0.61580  Biso   1.000  C
  C43      1.0000 0.02230  0.28210  0.40150  Biso   1.000  C
  C44      1.0000 0.97770  0.71790  0.59850  Biso   1.000  C
  H29      1.0000 0.93340  0.28000  0.44560  Biso   1.000  H
  H30      1.0000 0.06660  0.72000  0.55440  Biso   1.000  H
  C45      1.0000 0.06380  0.36380  0.35330  Biso   1.000  C
  C46      1.0000 0.93620  0.63620  0.64670  Biso   1.000  C
  H31      1.0000 0.01130  0.41670  0.36580  Biso   1.000  H
  H32      1.0000 0.98870  0.58330  0.63420  Biso   1.000  H
  C47      1.0000 0.06580  0.11390  0.43510  Biso   1.000  C
  C48      1.0000 0.93420  0.88610  0.56490  Biso   1.000  C
  O1       1.0000 0.50250  0.38570  0.50450  Biso   1.000  O
  O2       1.0000 0.49750  0.61430  0.49550  Biso   1.000  O
  O3       1.0000 0.33870  0.45930  0.58140  Biso   1.000  O
  O4       1.0000 0.66130  0.54070  0.41860  Biso   1.000  O
  H33      1.0000 0.39900  0.50150  0.54930  Biso   1.000  H
  H34      1.0000 0.60100  0.49850  0.45070  Biso   1.000  H
  O5       1.0000 0.91290  0.11270  0.49210  Biso   1.000  O
  O6       1.0000 0.08710  0.88730  0.50790  Biso   1.000  O
  H35      1.0000 0.89970  0.06060  0.51580  Biso   1.000  H
  H36      1.0000 0.10030  0.93940  0.48420  Biso   1.000  H
  O7       1.0000 0.17130  0.04410  0.41900  Biso   1.000  O
  O8       1.0000 0.82870  0.95590  0.58100  Biso   1.000  O
