data_image0
_cell_length_a       38.739
_cell_length_b       3.8356
_cell_length_c       15.689
_cell_angle_alpha    90
_cell_angle_beta     98.413
_cell_angle_gamma    90

_symmetry_space_group_name_H-M    "P 1"
_symmetry_int_tables_number       1

loop_
  _symmetry_equiv_pos_as_xyz
  'x, y, z'

loop_
  _atom_site_label
  _atom_site_occupancy
  _atom_site_fract_x
  _atom_site_fract_y
  _atom_site_fract_z
  _atom_site_thermal_displace_type
  _atom_site_B_iso_or_equiv
  _atom_site_type_symbol
  Br1      1.0000 0.78150  0.98670  0.09951  Biso   1.000  Br
  Br2      1.0000 0.21850  0.98670  0.40049  Biso   1.000  Br
  Br3      1.0000 0.28150  0.48670  0.09951  Biso   1.000  Br
  Br4      1.0000 0.71850  0.48670  0.40049  Biso   1.000  Br
  Br5      1.0000 0.21850  0.01330  0.90049  Biso   1.000  Br
  Br6      1.0000 0.78150  0.01330  0.59951  Biso   1.000  Br
  Br7      1.0000 0.71850  0.51330  0.90049  Biso   1.000  Br
  Br8      1.0000 0.28150  0.51330  0.59951  Biso   1.000  Br
  Cu1      1.0000 0.77703  0.49200  0.99750  Biso   1.000  Cu
  Cu2      1.0000 0.22297  0.49200  0.50250  Biso   1.000  Cu
  Cu3      1.0000 0.27703  0.99200  0.99750  Biso   1.000  Cu
  Cu4      1.0000 0.72297  0.99200  0.50250  Biso   1.000  Cu
  Cu5      1.0000 0.22297  0.50800  0.00250  Biso   1.000  Cu
  Cu6      1.0000 0.77703  0.50800  0.49750  Biso   1.000  Cu
  Cu7      1.0000 0.72297  0.00800  0.00250  Biso   1.000  Cu
  Cu8      1.0000 0.27703  0.00800  0.49750  Biso   1.000  Cu
  O1       1.0000 0.99810  0.39870  0.60520  Biso   1.000  O
  O2       1.0000 0.00190  0.39870  0.89480  Biso   1.000  O
  O3       1.0000 0.49810  0.89870  0.60520  Biso   1.000  O
  O4       1.0000 0.50190  0.89870  0.89480  Biso   1.000  O
  O5       1.0000 0.00190  0.60130  0.39480  Biso   1.000  O
  O6       1.0000 0.99810  0.60130  0.10520  Biso   1.000  O
  O7       1.0000 0.50190  0.10130  0.39480  Biso   1.000  O
  O8       1.0000 0.49810  0.10130  0.10520  Biso   1.000  O
  O9       1.0000 0.95765  0.16300  0.50620  Biso   1.000  O
  O10      1.0000 0.04235  0.16300  0.99380  Biso   1.000  O
  O11      1.0000 0.45765  0.66300  0.50620  Biso   1.000  O
  O12      1.0000 0.54235  0.66300  0.99380  Biso   1.000  O
  O13      1.0000 0.04235  0.83700  0.49380  Biso   1.000  O
  O14      1.0000 0.95765  0.83700  0.00620  Biso   1.000  O
  O15      1.0000 0.54235  0.33700  0.49380  Biso   1.000  O
  O16      1.0000 0.45765  0.33700  0.00620  Biso   1.000  O
  H1       1.0000 0.97380  0.15940  0.47860  Biso   1.000  H
  H2       1.0000 0.02620  0.15940  0.02140  Biso   1.000  H
  H3       1.0000 0.47380  0.65940  0.47860  Biso   1.000  H
  H4       1.0000 0.52620  0.65940  0.02140  Biso   1.000  H
  H5       1.0000 0.02620  0.84060  0.52140  Biso   1.000  H
  H6       1.0000 0.97380  0.84060  0.97860  Biso   1.000  H
  H7       1.0000 0.52620  0.34060  0.52140  Biso   1.000  H
  H8       1.0000 0.47380  0.34060  0.97860  Biso   1.000  H
  N1       1.0000 0.81406  0.46000  0.91930  Biso   1.000  N
  N2       1.0000 0.18594  0.46000  0.58070  Biso   1.000  N
  N3       1.0000 0.31406  0.96000  0.91930  Biso   1.000  N
  N4       1.0000 0.68594  0.96000  0.58070  Biso   1.000  N
  N5       1.0000 0.18594  0.54000  0.08070  Biso   1.000  N
  N6       1.0000 0.81406  0.54000  0.41930  Biso   1.000  N
  N7       1.0000 0.68594  0.04000  0.08070  Biso   1.000  N
  N8       1.0000 0.31406  0.04000  0.41930  Biso   1.000  N
  C1       1.0000 0.80770  0.54930  0.83680  Biso   1.000  C
  C2       1.0000 0.19230  0.54930  0.66320  Biso   1.000  C
  C3       1.0000 0.30770  0.04930  0.83680  Biso   1.000  C
  C4       1.0000 0.69230  0.04930  0.66320  Biso   1.000  C
  C5       1.0000 0.19230  0.45070  0.16320  Biso   1.000  C
  C6       1.0000 0.80770  0.45070  0.33680  Biso   1.000  C
  C7       1.0000 0.69230  0.95070  0.16320  Biso   1.000  C
  C8       1.0000 0.30770  0.95070  0.33680  Biso   1.000  C
  H9       1.0000 0.78570  0.63500  0.81550  Biso   1.000  H
  H10      1.0000 0.21430  0.63500  0.68450  Biso   1.000  H
  H11      1.0000 0.28570  0.13500  0.81550  Biso   1.000  H
  H12      1.0000 0.71430  0.13500  0.68450  Biso   1.000  H
  H13      1.0000 0.21430  0.36500  0.18450  Biso   1.000  H
  H14      1.0000 0.78570  0.36500  0.31550  Biso   1.000  H
  H15      1.0000 0.71430  0.86500  0.18450  Biso   1.000  H
  H16      1.0000 0.28570  0.86500  0.31550  Biso   1.000  H
  C9       1.0000 0.83184  0.52230  0.78090  Biso   1.000  C
  C10      1.0000 0.16816  0.52230  0.71910  Biso   1.000  C
  C11      1.0000 0.33184  0.02230  0.78090  Biso   1.000  C
  C12      1.0000 0.66816  0.02230  0.71910  Biso   1.000  C
  C13      1.0000 0.16816  0.47770  0.21910  Biso   1.000  C
  C14      1.0000 0.83184  0.47770  0.28090  Biso   1.000  C
  C15      1.0000 0.66816  0.97770  0.21910  Biso   1.000  C
  C16      1.0000 0.33184  0.97770  0.28090  Biso   1.000  C
  H17      1.0000 0.82580  0.58270  0.72330  Biso   1.000  H
  H18      1.0000 0.17420  0.58270  0.77670  Biso   1.000  H
  H19      1.0000 0.32580  0.08270  0.72330  Biso   1.000  H
  H20      1.0000 0.67420  0.08270  0.77670  Biso   1.000  H
  H21      1.0000 0.17420  0.41730  0.27670  Biso   1.000  H
  H22      1.0000 0.82580  0.41730  0.22330  Biso   1.000  H
  H23      1.0000 0.67420  0.91730  0.27670  Biso   1.000  H
  H24      1.0000 0.32580  0.91730  0.22330  Biso   1.000  H
  C17      1.0000 0.86557  0.40330  0.81150  Biso   1.000  C
  C18      1.0000 0.13443  0.40330  0.68850  Biso   1.000  C
  C19      1.0000 0.36557  0.90330  0.81150  Biso   1.000  C
  C20      1.0000 0.63443  0.90330  0.68850  Biso   1.000  C
  C21      1.0000 0.13443  0.59670  0.18850  Biso   1.000  C
  C22      1.0000 0.86557  0.59670  0.31150  Biso   1.000  C
  C23      1.0000 0.63443  0.09670  0.18850  Biso   1.000  C
  C24      1.0000 0.36557  0.09670  0.31150  Biso   1.000  C
  C25      1.0000 0.87220  0.31320  0.89780  Biso   1.000  C
  C26      1.0000 0.12780  0.31320  0.60220  Biso   1.000  C
  C27      1.0000 0.37220  0.81320  0.89780  Biso   1.000  C
  C28      1.0000 0.62780  0.81320  0.60220  Biso   1.000  C
  C29      1.0000 0.12780  0.68680  0.10220  Biso   1.000  C
  C30      1.0000 0.87220  0.68680  0.39780  Biso   1.000  C
  C31      1.0000 0.62780  0.18680  0.10220  Biso   1.000  C
  C32      1.0000 0.37220  0.18680  0.39780  Biso   1.000  C
  H25      1.0000 0.89420  0.23260  0.92130  Biso   1.000  H
  H26      1.0000 0.10580  0.23260  0.57870  Biso   1.000  H
  H27      1.0000 0.39420  0.73260  0.92130  Biso   1.000  H
  H28      1.0000 0.60580  0.73260  0.57870  Biso   1.000  H
  H29      1.0000 0.10580  0.76740  0.07870  Biso   1.000  H
  H30      1.0000 0.89420  0.76740  0.42130  Biso   1.000  H
  H31      1.0000 0.60580  0.26740  0.07870  Biso   1.000  H
  H32      1.0000 0.39420  0.26740  0.42130  Biso   1.000  H
  C33      1.0000 0.84631  0.34290  0.94900  Biso   1.000  C
  C34      1.0000 0.15369  0.34290  0.55100  Biso   1.000  C
  C35      1.0000 0.34631  0.84290  0.94900  Biso   1.000  C
  C36      1.0000 0.65369  0.84290  0.55100  Biso   1.000  C
  C37      1.0000 0.15369  0.65710  0.05100  Biso   1.000  C
  C38      1.0000 0.84631  0.65710  0.44900  Biso   1.000  C
  C39      1.0000 0.65369  0.15710  0.05100  Biso   1.000  C
  C40      1.0000 0.34631  0.15710  0.44900  Biso   1.000  C
  H33      1.0000 0.85140  0.27890  0.00660  Biso   1.000  H
  H34      1.0000 0.14860  0.27890  0.49340  Biso   1.000  H
  H35      1.0000 0.35140  0.77890  0.00660  Biso   1.000  H
  H36      1.0000 0.64860  0.77890  0.49340  Biso   1.000  H
  H37      1.0000 0.14860  0.72110  0.99340  Biso   1.000  H
  H38      1.0000 0.85140  0.72110  0.50660  Biso   1.000  H
  H39      1.0000 0.64860  0.22110  0.99340  Biso   1.000  H
  H40      1.0000 0.35140  0.22110  0.50660  Biso   1.000  H
  C41      1.0000 0.89198  0.37170  0.75280  Biso   1.000  C
  C42      1.0000 0.10802  0.37170  0.74720  Biso   1.000  C
  C43      1.0000 0.39198  0.87170  0.75280  Biso   1.000  C
  C44      1.0000 0.60802  0.87170  0.74720  Biso   1.000  C
  C45      1.0000 0.10802  0.62830  0.24720  Biso   1.000  C
  C46      1.0000 0.89198  0.62830  0.25280  Biso   1.000  C
  C47      1.0000 0.60802  0.12830  0.24720  Biso   1.000  C
  C48      1.0000 0.39198  0.12830  0.25280  Biso   1.000  C
  C49      1.0000 0.92712  0.45390  0.78000  Biso   1.000  C
  C50      1.0000 0.07288  0.45390  0.72000  Biso   1.000  C
  C51      1.0000 0.42712  0.95390  0.78000  Biso   1.000  C
  C52      1.0000 0.57288  0.95390  0.72000  Biso   1.000  C
  C53      1.0000 0.07288  0.54610  0.22000  Biso   1.000  C
  C54      1.0000 0.92712  0.54610  0.28000  Biso   1.000  C
  C55      1.0000 0.57288  0.04610  0.22000  Biso   1.000  C
  C56      1.0000 0.42712  0.04610  0.28000  Biso   1.000  C
  H41      1.0000 0.93420  0.52440  0.83660  Biso   1.000  H
  H42      1.0000 0.06580  0.52440  0.66340  Biso   1.000  H
  H43      1.0000 0.43420  0.02440  0.83660  Biso   1.000  H
  H44      1.0000 0.56580  0.02440  0.66340  Biso   1.000  H
  H45      1.0000 0.06580  0.47560  0.16340  Biso   1.000  H
  H46      1.0000 0.93420  0.47560  0.33660  Biso   1.000  H
  H47      1.0000 0.56580  0.97560  0.16340  Biso   1.000  H
  H48      1.0000 0.43420  0.97560  0.33660  Biso   1.000  H
  C57      1.0000 0.95115  0.43120  0.72400  Biso   1.000  C
  C58      1.0000 0.04885  0.43120  0.77600  Biso   1.000  C
  C59      1.0000 0.45115  0.93120  0.72400  Biso   1.000  C
  C60      1.0000 0.54885  0.93120  0.77600  Biso   1.000  C
  C61      1.0000 0.04885  0.56880  0.27600  Biso   1.000  C
  C62      1.0000 0.95115  0.56880  0.22400  Biso   1.000  C
  C63      1.0000 0.54885  0.06880  0.27600  Biso   1.000  C
  C64      1.0000 0.45115  0.06880  0.22400  Biso   1.000  C
  H49      1.0000 0.97430  0.49270  0.74260  Biso   1.000  H
  H50      1.0000 0.02570  0.49270  0.75740  Biso   1.000  H
  H51      1.0000 0.47430  0.99270  0.74260  Biso   1.000  H
  H52      1.0000 0.52570  0.99270  0.75740  Biso   1.000  H
  H53      1.0000 0.02570  0.50730  0.25740  Biso   1.000  H
  H54      1.0000 0.97430  0.50730  0.24260  Biso   1.000  H
  H55      1.0000 0.52570  0.00730  0.25740  Biso   1.000  H
  H56      1.0000 0.47430  0.00730  0.24260  Biso   1.000  H
  C65      1.0000 0.94132  0.31780  0.64040  Biso   1.000  C
  C66      1.0000 0.05868  0.31780  0.85960  Biso   1.000  C
  C67      1.0000 0.44132  0.81780  0.64040  Biso   1.000  C
  C68      1.0000 0.55868  0.81780  0.85960  Biso   1.000  C
  C69      1.0000 0.05868  0.68220  0.35960  Biso   1.000  C
  C70      1.0000 0.94132  0.68220  0.14040  Biso   1.000  C
  C71      1.0000 0.55868  0.18220  0.35960  Biso   1.000  C
  C72      1.0000 0.44132  0.18220  0.14040  Biso   1.000  C
  C73      1.0000 0.90680  0.23090  0.61290  Biso   1.000  C
  C74      1.0000 0.09320  0.23090  0.88710  Biso   1.000  C
  C75      1.0000 0.40680  0.73090  0.61290  Biso   1.000  C
  C76      1.0000 0.59320  0.73090  0.88710  Biso   1.000  C
  C77      1.0000 0.09320  0.76910  0.38710  Biso   1.000  C
  C78      1.0000 0.90680  0.76910  0.11290  Biso   1.000  C
  C79      1.0000 0.59320  0.26910  0.38710  Biso   1.000  C
  C80      1.0000 0.40680  0.26910  0.11290  Biso   1.000  C
  H57      1.0000 0.90020  0.15220  0.55680  Biso   1.000  H
  H58      1.0000 0.09980  0.15220  0.94320  Biso   1.000  H
  H59      1.0000 0.40020  0.65220  0.55680  Biso   1.000  H
  H60      1.0000 0.59980  0.65220  0.94320  Biso   1.000  H
  H61      1.0000 0.09980  0.84780  0.44320  Biso   1.000  H
  H62      1.0000 0.90020  0.84780  0.05680  Biso   1.000  H
  H63      1.0000 0.59980  0.34780  0.44320  Biso   1.000  H
  H64      1.0000 0.40020  0.34780  0.05680  Biso   1.000  H
  C81      1.0000 0.88207  0.25960  0.66760  Biso   1.000  C
  C82      1.0000 0.11793  0.25960  0.83240  Biso   1.000  C
  C83      1.0000 0.38207  0.75960  0.66760  Biso   1.000  C
  C84      1.0000 0.61793  0.75960  0.83240  Biso   1.000  C
  C85      1.0000 0.11793  0.74040  0.33240  Biso   1.000  C
  C86      1.0000 0.88207  0.74040  0.16760  Biso   1.000  C
  C87      1.0000 0.61793  0.24040  0.33240  Biso   1.000  C
  C88      1.0000 0.38207  0.24040  0.16760  Biso   1.000  C
  H65      1.0000 0.85890  0.20460  0.64800  Biso   1.000  H
  H66      1.0000 0.14110  0.20460  0.85200  Biso   1.000  H
  H67      1.0000 0.35890  0.70460  0.64800  Biso   1.000  H
  H68      1.0000 0.64110  0.70460  0.85200  Biso   1.000  H
  H69      1.0000 0.14110  0.79540  0.35200  Biso   1.000  H
  H70      1.0000 0.85890  0.79540  0.14800  Biso   1.000  H
  H71      1.0000 0.64110  0.29540  0.35200  Biso   1.000  H
  H72      1.0000 0.35890  0.29540  0.14800  Biso   1.000  H
  C89      1.0000 0.96694  0.28930  0.57940  Biso   1.000  C
  C90      1.0000 0.03306  0.28930  0.92060  Biso   1.000  C
  C91      1.0000 0.46694  0.78930  0.57940  Biso   1.000  C
  C92      1.0000 0.53306  0.78930  0.92060  Biso   1.000  C
  C93      1.0000 0.03306  0.71070  0.42060  Biso   1.000  C
  C94      1.0000 0.96694  0.71070  0.07940  Biso   1.000  C
  C95      1.0000 0.53306  0.21070  0.42060  Biso   1.000  C
  C96      1.0000 0.46694  0.21070  0.07940  Biso   1.000  C
