data_image0
_cell_length_a       3.7285
_cell_length_b       19.603
_cell_length_c       16.757
_cell_angle_alpha    90
_cell_angle_beta     95.83
_cell_angle_gamma    90

_symmetry_space_group_name_H-M    "P 1"
_symmetry_int_tables_number       1

loop_
  _symmetry_equiv_pos_as_xyz
  'x, y, z'

loop_
  _atom_site_label
  _atom_site_occupancy
  _atom_site_fract_x
  _atom_site_fract_y
  _atom_site_fract_z
  _atom_site_thermal_displace_type
  _atom_site_B_iso_or_equiv
  _atom_site_type_symbol
  Cu1      1.0000 0.20600  0.12599  0.62383  Biso   1.000  Cu
  Cu2      1.0000 0.29400  0.62599  0.87617  Biso   1.000  Cu
  Cu3      1.0000 0.79400  0.87401  0.37617  Biso   1.000  Cu
  Cu4      1.0000 0.70600  0.37401  0.12383  Biso   1.000  Cu
  Cu5      1.0000 0.64880  0.24766  0.57806  Biso   1.000  Cu
  Cu6      1.0000 0.85120  0.74766  0.92194  Biso   1.000  Cu
  Cu7      1.0000 0.35120  0.75234  0.42194  Biso   1.000  Cu
  Cu8      1.0000 0.14880  0.25234  0.07806  Biso   1.000  Cu
  Cl1      1.0000 0.57810  0.14294  0.53046  Biso   1.000  Cl
  Cl2      1.0000 0.92190  0.64294  0.96954  Biso   1.000  Cl
  Cl3      1.0000 0.42190  0.85706  0.46954  Biso   1.000  Cl
  Cl4      1.0000 0.07810  0.35706  0.03046  Biso   1.000  Cl
  Cl5      1.0000 0.14040  0.31257  0.59628  Biso   1.000  Cl
  Cl6      1.0000 0.35960  0.81257  0.90372  Biso   1.000  Cl
  Cl7      1.0000 0.85960  0.68743  0.40372  Biso   1.000  Cl
  Cl8      1.0000 0.64040  0.18743  0.09628  Biso   1.000  Cl
  N1       1.0000 0.07100  0.02820  0.66230  Biso   1.000  N
  N2       1.0000 0.42900  0.52820  0.83770  Biso   1.000  N
  N3       1.0000 0.92900  0.97180  0.33770  Biso   1.000  N
  N4       1.0000 0.57100  0.47180  0.16230  Biso   1.000  N
  N5       1.0000 0.12500  0.14900  0.73800  Biso   1.000  N
  N6       1.0000 0.37500  0.64900  0.76200  Biso   1.000  N
  N7       1.0000 0.87500  0.85100  0.26200  Biso   1.000  N
  N8       1.0000 0.62500  0.35100  0.23800  Biso   1.000  N
  C1       1.0000 0.04700  0.96820  0.62590  Biso   1.000  C
  C2       1.0000 0.45300  0.46820  0.87410  Biso   1.000  C
  C3       1.0000 0.95300  0.03180  0.37410  Biso   1.000  C
  C4       1.0000 0.54700  0.53180  0.12590  Biso   1.000  C
  H1       1.0000 0.10510  0.96590  0.57330  Biso   1.000  H
  H2       1.0000 0.39490  0.46590  0.92670  Biso   1.000  H
  H3       1.0000 0.89490  0.03410  0.42670  Biso   1.000  H
  H4       1.0000 0.60510  0.53410  0.07330  Biso   1.000  H
  C5       1.0000 0.94100  0.90930  0.66100  Biso   1.000  C
  C6       1.0000 0.55900  0.40930  0.83900  Biso   1.000  C
  C7       1.0000 0.05900  0.09070  0.33900  Biso   1.000  C
  C8       1.0000 0.44100  0.59070  0.16100  Biso   1.000  C
  H5       1.0000 0.92720  0.86860  0.63230  Biso   1.000  H
  H6       1.0000 0.57280  0.36860  0.86770  Biso   1.000  H
  H7       1.0000 0.07280  0.13140  0.36770  Biso   1.000  H
  H8       1.0000 0.42720  0.63140  0.13230  Biso   1.000  H
  C9       1.0000 0.85800  0.91090  0.73780  Biso   1.000  C
  C10      1.0000 0.64200  0.41090  0.76220  Biso   1.000  C
  C11      1.0000 0.14200  0.08910  0.26220  Biso   1.000  C
  C12      1.0000 0.35800  0.58910  0.23780  Biso   1.000  C
  H9       1.0000 0.78170  0.87140  0.76180  Biso   1.000  H
  H10      1.0000 0.71830  0.37140  0.73820  Biso   1.000  H
  H11      1.0000 0.21830  0.12860  0.23820  Biso   1.000  H
  H12      1.0000 0.28170  0.62860  0.26180  Biso   1.000  H
  C13      1.0000 0.88700  0.97110  0.77990  Biso   1.000  C
  C14      1.0000 0.61300  0.47110  0.72010  Biso   1.000  C
  C15      1.0000 0.11300  0.02890  0.22010  Biso   1.000  C
  C16      1.0000 0.38700  0.52890  0.27990  Biso   1.000  C
  C17      1.0000 0.99700  0.03080  0.73900  Biso   1.000  C
  C18      1.0000 0.50300  0.53080  0.76100  Biso   1.000  C
  C19      1.0000 0.00300  0.96920  0.26100  Biso   1.000  C
  C20      1.0000 0.49700  0.46920  0.23900  Biso   1.000  C
  C21      1.0000 0.01900  0.09500  0.77960  Biso   1.000  C
  C22      1.0000 0.48100  0.59500  0.72040  Biso   1.000  C
  C23      1.0000 0.98100  0.90500  0.22040  Biso   1.000  C
  C24      1.0000 0.51900  0.40500  0.27960  Biso   1.000  C
  C25      1.0000 0.93000  0.09920  0.85920  Biso   1.000  C
  C26      1.0000 0.57000  0.59920  0.64080  Biso   1.000  C
  C27      1.0000 0.07000  0.90080  0.14080  Biso   1.000  C
  C28      1.0000 0.43000  0.40080  0.35920  Biso   1.000  C
  C29      1.0000 0.96100  0.16290  0.89550  Biso   1.000  C
  C30      1.0000 0.53900  0.66290  0.60450  Biso   1.000  C
  C31      1.0000 0.03900  0.83710  0.10450  Biso   1.000  C
  C32      1.0000 0.46100  0.33710  0.39550  Biso   1.000  C
  H13      1.0000 0.90950  0.16780  0.94840  Biso   1.000  H
  H14      1.0000 0.59050  0.66780  0.55160  Biso   1.000  H
  H15      1.0000 0.09050  0.83220  0.05160  Biso   1.000  H
  H16      1.0000 0.40950  0.33220  0.44840  Biso   1.000  H
  C33      1.0000 0.06600  0.21860  0.85410  Biso   1.000  C
  C34      1.0000 0.43400  0.71860  0.64590  Biso   1.000  C
  C35      1.0000 0.93400  0.78140  0.14590  Biso   1.000  C
  C36      1.0000 0.56600  0.28140  0.35410  Biso   1.000  C
  H17      1.0000 0.08390  0.26130  0.87830  Biso   1.000  H
  H18      1.0000 0.41610  0.76130  0.62170  Biso   1.000  H
  H19      1.0000 0.91610  0.73870  0.12170  Biso   1.000  H
  H20      1.0000 0.58390  0.23870  0.37830  Biso   1.000  H
  C37      1.0000 0.14500  0.21010  0.77530  Biso   1.000  C
  C38      1.0000 0.35500  0.71010  0.72470  Biso   1.000  C
  C39      1.0000 0.85500  0.78990  0.22470  Biso   1.000  C
  C40      1.0000 0.64500  0.28990  0.27530  Biso   1.000  C
  H21      1.0000 0.21440  0.24800  0.74730  Biso   1.000  H
  H22      1.0000 0.28560  0.74800  0.75270  Biso   1.000  H
  H23      1.0000 0.78560  0.75200  0.25270  Biso   1.000  H
  H24      1.0000 0.71440  0.25200  0.24730  Biso   1.000  H
  C41      1.0000 0.80500  0.97910  0.86210  Biso   1.000  C
  C42      1.0000 0.69500  0.47910  0.63790  Biso   1.000  C
  C43      1.0000 0.19500  0.02090  0.13790  Biso   1.000  C
  C44      1.0000 0.30500  0.52090  0.36210  Biso   1.000  C
  H25      1.0000 0.73670  0.94110  0.89010  Biso   1.000  H
  H26      1.0000 0.76330  0.44110  0.60990  Biso   1.000  H
  H27      1.0000 0.26330  0.05890  0.10990  Biso   1.000  H
  H28      1.0000 0.23670  0.55890  0.39010  Biso   1.000  H
  C45      1.0000 0.82500  0.03980  0.89850  Biso   1.000  C
  C46      1.0000 0.67500  0.53980  0.60150  Biso   1.000  C
  C47      1.0000 0.17500  0.96020  0.10150  Biso   1.000  C
  C48      1.0000 0.32500  0.46020  0.39850  Biso   1.000  C
  H29      1.0000 0.76860  0.04300  0.95120  Biso   1.000  H
  H30      1.0000 0.73140  0.54300  0.54880  Biso   1.000  H
  H31      1.0000 0.23140  0.95700  0.04880  Biso   1.000  H
  H32      1.0000 0.26860  0.45700  0.45120  Biso   1.000  H
