data_image0
_cell_length_a       3.7338
_cell_length_b       19.3938
_cell_length_c       16.8004
_cell_angle_alpha    90
_cell_angle_beta     95.315
_cell_angle_gamma    90

_symmetry_space_group_name_H-M    "P 1"
_symmetry_int_tables_number       1

loop_
  _symmetry_equiv_pos_as_xyz
  'x, y, z'

loop_
  _atom_site_label
  _atom_site_occupancy
  _atom_site_fract_x
  _atom_site_fract_y
  _atom_site_fract_z
  _atom_site_thermal_displace_type
  _atom_site_B_iso_or_equiv
  _atom_site_type_symbol
  Cu1      1.0000 0.21304  0.62532  0.12166  Biso   1.000  Cu
  Cu2      1.0000 0.28696  0.12532  0.37834  Biso   1.000  Cu
  Cu3      1.0000 0.78696  0.37468  0.87834  Biso   1.000  Cu
  Cu4      1.0000 0.71304  0.87468  0.62166  Biso   1.000  Cu
  Cu5      1.0000 0.67506  0.74842  0.07869  Biso   1.000  Cu
  Cu6      1.0000 0.82494  0.24842  0.42131  Biso   1.000  Cu
  Cu7      1.0000 0.32494  0.25158  0.92131  Biso   1.000  Cu
  Cu8      1.0000 0.17506  0.75158  0.57869  Biso   1.000  Cu
  Cl1      1.0000 0.59410  0.64273  0.02948  Biso   1.000  Cl
  Cl2      1.0000 0.90590  0.14273  0.47052  Biso   1.000  Cl
  Cl3      1.0000 0.40590  0.35727  0.97052  Biso   1.000  Cl
  Cl4      1.0000 0.09410  0.85727  0.52948  Biso   1.000  Cl
  Cl5      1.0000 0.16680  0.81392  0.09683  Biso   1.000  Cl
  Cl6      1.0000 0.33320  0.31392  0.40317  Biso   1.000  Cl
  Cl7      1.0000 0.83320  0.18608  0.90317  Biso   1.000  Cl
  Cl8      1.0000 0.66680  0.68608  0.59683  Biso   1.000  Cl
  N1       1.0000 0.07100  0.52741  0.16182  Biso   1.000  N
  N2       1.0000 0.42900  0.02741  0.33818  Biso   1.000  N
  N3       1.0000 0.92900  0.47259  0.83818  Biso   1.000  N
  N4       1.0000 0.57100  0.97259  0.66182  Biso   1.000  N
  N5       1.0000 0.13940  0.65103  0.23647  Biso   1.000  N
  N6       1.0000 0.36060  0.15103  0.26353  Biso   1.000  N
  N7       1.0000 0.86060  0.34897  0.76353  Biso   1.000  N
  N8       1.0000 0.63940  0.84897  0.73647  Biso   1.000  N
  C1       1.0000 0.99070  0.53071  0.23904  Biso   1.000  C
  C2       1.0000 0.50930  0.03071  0.26096  Biso   1.000  C
  C3       1.0000 0.00930  0.46929  0.76096  Biso   1.000  C
  C4       1.0000 0.49070  0.96929  0.73904  Biso   1.000  C
  C5       1.0000 0.94900  0.60205  0.35897  Biso   1.000  C
  C6       1.0000 0.55100  0.10205  0.14103  Biso   1.000  C
  C7       1.0000 0.05100  0.39795  0.64103  Biso   1.000  C
  C8       1.0000 0.44900  0.89795  0.85897  Biso   1.000  C
  C9       1.0000 0.02960  0.59626  0.27837  Biso   1.000  C
  C10      1.0000 0.47040  0.09626  0.22163  Biso   1.000  C
  C11      1.0000 0.97040  0.40374  0.72163  Biso   1.000  C
  C12      1.0000 0.52960  0.90374  0.77837  Biso   1.000  C
  C13      1.0000 0.87380  0.47310  0.28040  Biso   1.000  C
  C14      1.0000 0.62620  0.97310  0.21960  Biso   1.000  C
  C15      1.0000 0.12620  0.52690  0.71960  Biso   1.000  C
  C16      1.0000 0.37380  0.02690  0.78040  Biso   1.000  C
  C17      1.0000 0.99520  0.66690  0.39479  Biso   1.000  C
  C18      1.0000 0.50480  0.16690  0.10521  Biso   1.000  C
  C19      1.0000 0.00480  0.33310  0.60521  Biso   1.000  C
  C20      1.0000 0.49520  0.83310  0.89479  Biso   1.000  C
  H1       1.0000 0.94780  0.67280  0.44770  Biso   1.000  H
  H2       1.0000 0.55220  0.17280  0.05230  Biso   1.000  H
  H3       1.0000 0.05220  0.32720  0.55230  Biso   1.000  H
  H4       1.0000 0.44780  0.82720  0.94770  Biso   1.000  H
  C21      1.0000 0.10860  0.72130  0.35300  Biso   1.000  C
  C22      1.0000 0.39140  0.22130  0.14700  Biso   1.000  C
  C23      1.0000 0.89140  0.27870  0.64700  Biso   1.000  C
  C24      1.0000 0.60860  0.77870  0.85300  Biso   1.000  C
  H5       1.0000 0.13930  0.76450  0.37670  Biso   1.000  H
  H6       1.0000 0.36070  0.26450  0.12330  Biso   1.000  H
  H7       1.0000 0.86070  0.23550  0.62330  Biso   1.000  H
  H8       1.0000 0.63930  0.73550  0.87670  Biso   1.000  H
  C25      1.0000 0.79650  0.48140  0.36200  Biso   1.000  C
  C26      1.0000 0.70350  0.98140  0.13800  Biso   1.000  C
  C27      1.0000 0.20350  0.51860  0.63800  Biso   1.000  C
  C28      1.0000 0.29650  0.01860  0.86200  Biso   1.000  C
  H9       1.0000 0.72160  0.44340  0.38980  Biso   1.000  H
  H10      1.0000 0.77840  0.94340  0.11020  Biso   1.000  H
  H11      1.0000 0.27840  0.55660  0.61020  Biso   1.000  H
  H12      1.0000 0.22160  0.05660  0.88980  Biso   1.000  H
  C29      1.0000 0.17860  0.71100  0.27330  Biso   1.000  C
  C30      1.0000 0.32140  0.21100  0.22670  Biso   1.000  C
  C31      1.0000 0.82140  0.28900  0.72670  Biso   1.000  C
  C32      1.0000 0.67860  0.78900  0.77330  Biso   1.000  C
  H13      1.0000 0.25690  0.74840  0.24500  Biso   1.000  H
  H14      1.0000 0.24310  0.24840  0.25500  Biso   1.000  H
  H15      1.0000 0.74310  0.25160  0.75500  Biso   1.000  H
  H16      1.0000 0.75690  0.75160  0.74500  Biso   1.000  H
  C33      1.0000 0.91180  0.40790  0.16100  Biso   1.000  C
  C34      1.0000 0.58820  0.90790  0.33900  Biso   1.000  C
  C35      1.0000 0.08820  0.59210  0.83900  Biso   1.000  C
  C36      1.0000 0.41180  0.09210  0.66100  Biso   1.000  C
  H17      1.0000 0.88430  0.36690  0.13230  Biso   1.000  H
  H18      1.0000 0.61570  0.86690  0.36770  Biso   1.000  H
  H19      1.0000 0.11570  0.63310  0.86770  Biso   1.000  H
  H20      1.0000 0.38430  0.13310  0.63230  Biso   1.000  H
  C37      1.0000 0.02840  0.46720  0.12500  Biso   1.000  C
  C38      1.0000 0.47160  0.96720  0.37500  Biso   1.000  C
  C39      1.0000 0.97160  0.53280  0.87500  Biso   1.000  C
  C40      1.0000 0.52840  0.03280  0.62500  Biso   1.000  C
  H21      1.0000 0.07960  0.46450  0.07200  Biso   1.000  H
  H22      1.0000 0.42040  0.96450  0.42800  Biso   1.000  H
  H23      1.0000 0.92040  0.53550  0.92800  Biso   1.000  H
  H24      1.0000 0.57960  0.03550  0.57200  Biso   1.000  H
  C41      1.0000 0.83820  0.41060  0.23890  Biso   1.000  C
  C42      1.0000 0.66180  0.91060  0.26110  Biso   1.000  C
  C43      1.0000 0.16180  0.58940  0.76110  Biso   1.000  C
  C44      1.0000 0.33820  0.08940  0.73890  Biso   1.000  C
  H25      1.0000 0.76480  0.37110  0.26430  Biso   1.000  H
  H26      1.0000 0.73520  0.87110  0.23570  Biso   1.000  H
  H27      1.0000 0.23520  0.62890  0.73570  Biso   1.000  H
  H28      1.0000 0.26480  0.12890  0.76430  Biso   1.000  H
  C45      1.0000 0.82940  0.54210  0.39870  Biso   1.000  C
  C46      1.0000 0.67060  0.04210  0.10130  Biso   1.000  C
  C47      1.0000 0.17060  0.45790  0.60130  Biso   1.000  C
  C48      1.0000 0.32940  0.95790  0.89870  Biso   1.000  C
  H29      1.0000 0.77350  0.54570  0.45140  Biso   1.000  H
  H30      1.0000 0.72650  0.04570  0.04860  Biso   1.000  H
  H31      1.0000 0.22650  0.45430  0.54860  Biso   1.000  H
  H32      1.0000 0.27350  0.95430  0.95140  Biso   1.000  H
