data_image0
_cell_length_a       3.7326
_cell_length_b       19.412
_cell_length_c       16.793
_cell_angle_alpha    90
_cell_angle_beta     95.355
_cell_angle_gamma    90

_symmetry_space_group_name_H-M    "P 1"
_symmetry_int_tables_number       1

loop_
  _symmetry_equiv_pos_as_xyz
  'x, y, z'

loop_
  _atom_site_label
  _atom_site_occupancy
  _atom_site_fract_x
  _atom_site_fract_y
  _atom_site_fract_z
  _atom_site_thermal_displace_type
  _atom_site_B_iso_or_equiv
  _atom_site_type_symbol
  Cu1      1.0000 0.21234  0.62529  0.12170  Biso   1.000  Cu
  Cu2      1.0000 0.28766  0.12529  0.37830  Biso   1.000  Cu
  Cu3      1.0000 0.78766  0.37471  0.87830  Biso   1.000  Cu
  Cu4      1.0000 0.71234  0.87471  0.62170  Biso   1.000  Cu
  Cu5      1.0000 0.67420  0.74824  0.07869  Biso   1.000  Cu
  Cu6      1.0000 0.82580  0.24824  0.42131  Biso   1.000  Cu
  Cu7      1.0000 0.32580  0.25176  0.92131  Biso   1.000  Cu
  Cu8      1.0000 0.17420  0.75176  0.57869  Biso   1.000  Cu
  Cl1      1.0000 0.59280  0.64266  0.02947  Biso   1.000  Cl
  Cl2      1.0000 0.90720  0.14266  0.47053  Biso   1.000  Cl
  Cl3      1.0000 0.40720  0.35734  0.97053  Biso   1.000  Cl
  Cl4      1.0000 0.09280  0.85734  0.52947  Biso   1.000  Cl
  Cl5      1.0000 0.16560  0.81371  0.09693  Biso   1.000  Cl
  Cl6      1.0000 0.33440  0.31371  0.40307  Biso   1.000  Cl
  Cl7      1.0000 0.83440  0.18629  0.90307  Biso   1.000  Cl
  Cl8      1.0000 0.66560  0.68629  0.59693  Biso   1.000  Cl
  C1       1.0000 0.99010  0.53068  0.23870  Biso   1.000  C
  C2       1.0000 0.50990  0.03068  0.26130  Biso   1.000  C
  C3       1.0000 0.00990  0.46932  0.76130  Biso   1.000  C
  C4       1.0000 0.49010  0.96932  0.73870  Biso   1.000  C
  C5       1.0000 0.94930  0.60190  0.35910  Biso   1.000  C
  C6       1.0000 0.55070  0.10190  0.14090  Biso   1.000  C
  C7       1.0000 0.05070  0.39810  0.64090  Biso   1.000  C
  C8       1.0000 0.44930  0.89810  0.85910  Biso   1.000  C
  N1       1.0000 0.06970  0.52774  0.16178  Biso   1.000  N
  N2       1.0000 0.43030  0.02774  0.33822  Biso   1.000  N
  N3       1.0000 0.93030  0.47226  0.83822  Biso   1.000  N
  N4       1.0000 0.56970  0.97226  0.66178  Biso   1.000  N
  C9       1.0000 0.02880  0.59600  0.27840  Biso   1.000  C
  C10      1.0000 0.47120  0.09600  0.22160  Biso   1.000  C
  C11      1.0000 0.97120  0.40400  0.72160  Biso   1.000  C
  C12      1.0000 0.52880  0.90400  0.77840  Biso   1.000  C
  N5       1.0000 0.13970  0.65103  0.23651  Biso   1.000  N
  N6       1.0000 0.36030  0.15103  0.26349  Biso   1.000  N
  N7       1.0000 0.86030  0.34897  0.76349  Biso   1.000  N
  N8       1.0000 0.63970  0.84897  0.73651  Biso   1.000  N
  C13      1.0000 0.87500  0.47290  0.28030  Biso   1.000  C
  C14      1.0000 0.62500  0.97290  0.21970  Biso   1.000  C
  C15      1.0000 0.12500  0.52710  0.71970  Biso   1.000  C
  C16      1.0000 0.37500  0.02710  0.78030  Biso   1.000  C
  C17      1.0000 0.79540  0.48090  0.36160  Biso   1.000  C
  C18      1.0000 0.70460  0.98090  0.13840  Biso   1.000  C
  C19      1.0000 0.20460  0.51910  0.63840  Biso   1.000  C
  C20      1.0000 0.29540  0.01910  0.86160  Biso   1.000  C
  H1       1.0000 0.71720  0.44310  0.38920  Biso   1.000  H
  H2       1.0000 0.78280  0.94310  0.11080  Biso   1.000  H
  H3       1.0000 0.28280  0.55690  0.61080  Biso   1.000  H
  H4       1.0000 0.21720  0.05690  0.88920  Biso   1.000  H
  C21      1.0000 0.99150  0.66650  0.39480  Biso   1.000  C
  C22      1.0000 0.50850  0.16650  0.10520  Biso   1.000  C
  C23      1.0000 0.00850  0.33350  0.60520  Biso   1.000  C
  C24      1.0000 0.49150  0.83350  0.89480  Biso   1.000  C
  H5       1.0000 0.94040  0.67250  0.44750  Biso   1.000  H
  H6       1.0000 0.55960  0.17250  0.05250  Biso   1.000  H
  H7       1.0000 0.05960  0.32750  0.55250  Biso   1.000  H
  H8       1.0000 0.44040  0.82750  0.94750  Biso   1.000  H
  C25      1.0000 0.03030  0.46740  0.12490  Biso   1.000  C
  C26      1.0000 0.46970  0.96740  0.37510  Biso   1.000  C
  C27      1.0000 0.96970  0.53260  0.87510  Biso   1.000  C
  C28      1.0000 0.53030  0.03260  0.62490  Biso   1.000  C
  H9       1.0000 0.08320  0.46480  0.07190  Biso   1.000  H
  H10      1.0000 0.41680  0.96480  0.42810  Biso   1.000  H
  H11      1.0000 0.91680  0.53520  0.92810  Biso   1.000  H
  H12      1.0000 0.58320  0.03520  0.57190  Biso   1.000  H
  C29      1.0000 0.10720  0.72090  0.35290  Biso   1.000  C
  C30      1.0000 0.39280  0.22090  0.14710  Biso   1.000  C
  C31      1.0000 0.89280  0.27910  0.64710  Biso   1.000  C
  C32      1.0000 0.60720  0.77910  0.85290  Biso   1.000  C
  H13      1.0000 0.13850  0.76410  0.37650  Biso   1.000  H
  H14      1.0000 0.36150  0.26410  0.12350  Biso   1.000  H
  H15      1.0000 0.86150  0.23590  0.62350  Biso   1.000  H
  H16      1.0000 0.63850  0.73590  0.87650  Biso   1.000  H
  C33      1.0000 0.83170  0.54180  0.39850  Biso   1.000  C
  C34      1.0000 0.66830  0.04180  0.10150  Biso   1.000  C
  C35      1.0000 0.16830  0.45820  0.60150  Biso   1.000  C
  C36      1.0000 0.33170  0.95820  0.89850  Biso   1.000  C
  H17      1.0000 0.77900  0.54530  0.45140  Biso   1.000  H
  H18      1.0000 0.72100  0.04530  0.04860  Biso   1.000  H
  H19      1.0000 0.22100  0.45470  0.54860  Biso   1.000  H
  H20      1.0000 0.27900  0.95470  0.95140  Biso   1.000  H
  C37      1.0000 0.91410  0.40780  0.16080  Biso   1.000  C
  C38      1.0000 0.58590  0.90780  0.33920  Biso   1.000  C
  C39      1.0000 0.08590  0.59220  0.83920  Biso   1.000  C
  C40      1.0000 0.41410  0.09220  0.66080  Biso   1.000  C
  H21      1.0000 0.88880  0.36670  0.13230  Biso   1.000  H
  H22      1.0000 0.61120  0.86670  0.36770  Biso   1.000  H
  H23      1.0000 0.11120  0.63330  0.86770  Biso   1.000  H
  H24      1.0000 0.38880  0.13330  0.63230  Biso   1.000  H
  C41      1.0000 0.83830  0.41080  0.23860  Biso   1.000  C
  C42      1.0000 0.66170  0.91080  0.26140  Biso   1.000  C
  C43      1.0000 0.16170  0.58920  0.76140  Biso   1.000  C
  C44      1.0000 0.33830  0.08920  0.73860  Biso   1.000  C
  H25      1.0000 0.76220  0.37150  0.26380  Biso   1.000  H
  H26      1.0000 0.73780  0.87150  0.23620  Biso   1.000  H
  H27      1.0000 0.23780  0.62850  0.73620  Biso   1.000  H
  H28      1.0000 0.26220  0.12850  0.76380  Biso   1.000  H
  C45      1.0000 0.17760  0.71020  0.27340  Biso   1.000  C
  C46      1.0000 0.32240  0.21020  0.22660  Biso   1.000  C
  C47      1.0000 0.82240  0.28980  0.72660  Biso   1.000  C
  C48      1.0000 0.67760  0.78980  0.77340  Biso   1.000  C
  H29      1.0000 0.25640  0.74750  0.24510  Biso   1.000  H
  H30      1.0000 0.24360  0.24750  0.25490  Biso   1.000  H
  H31      1.0000 0.74360  0.25250  0.75490  Biso   1.000  H
  H32      1.0000 0.75640  0.75250  0.74510  Biso   1.000  H
