data_image0
_cell_length_a       16.1223
_cell_length_b       12.5847
_cell_length_c       16.0559
_cell_angle_alpha    90
_cell_angle_beta     118.393
_cell_angle_gamma    90

_symmetry_space_group_name_H-M    "P 1"
_symmetry_int_tables_number       1

loop_
  _symmetry_equiv_pos_as_xyz
  'x, y, z'

loop_
  _atom_site_label
  _atom_site_occupancy
  _atom_site_fract_x
  _atom_site_fract_y
  _atom_site_fract_z
  _atom_site_thermal_displace_type
  _atom_site_B_iso_or_equiv
  _atom_site_type_symbol
  Cu1      1.0000 0.66572  0.71594  0.45387  Biso   1.000  Cu
  Cu2      1.0000 0.33428  0.71594  0.04613  Biso   1.000  Cu
  Cu3      1.0000 0.16572  0.21594  0.45387  Biso   1.000  Cu
  Cu4      1.0000 0.83428  0.21594  0.04613  Biso   1.000  Cu
  Cu5      1.0000 0.33428  0.28406  0.54613  Biso   1.000  Cu
  Cu6      1.0000 0.66572  0.28406  0.95387  Biso   1.000  Cu
  Cu7      1.0000 0.83428  0.78406  0.54613  Biso   1.000  Cu
  Cu8      1.0000 0.16572  0.78406  0.95387  Biso   1.000  Cu
  I1       1.0000 0.78537  0.67651  0.39102  Biso   1.000  I
  I2       1.0000 0.21463  0.67651  0.10898  Biso   1.000  I
  I3       1.0000 0.28537  0.17651  0.39102  Biso   1.000  I
  I4       1.0000 0.71463  0.17651  0.10898  Biso   1.000  I
  I5       1.0000 0.21463  0.32349  0.60898  Biso   1.000  I
  I6       1.0000 0.78537  0.32349  0.89102  Biso   1.000  I
  I7       1.0000 0.71463  0.82349  0.60898  Biso   1.000  I
  I8       1.0000 0.28537  0.82349  0.89102  Biso   1.000  I
  N1       1.0000 0.60420  0.57060  0.45110  Biso   1.000  N
  N2       1.0000 0.39580  0.57060  0.04890  Biso   1.000  N
  N3       1.0000 0.10420  0.07060  0.45110  Biso   1.000  N
  N4       1.0000 0.89580  0.07060  0.04890  Biso   1.000  N
  N5       1.0000 0.39580  0.42940  0.54890  Biso   1.000  N
  N6       1.0000 0.60420  0.42940  0.95110  Biso   1.000  N
  N7       1.0000 0.89580  0.92940  0.54890  Biso   1.000  N
  N8       1.0000 0.10420  0.92940  0.95110  Biso   1.000  N
  N9       1.0000 0.47050  0.47570  0.37950  Biso   1.000  N
  N10      1.0000 0.52950  0.47570  0.12050  Biso   1.000  N
  N11      1.0000 0.97050  0.97570  0.37950  Biso   1.000  N
  N12      1.0000 0.02950  0.97570  0.12050  Biso   1.000  N
  N13      1.0000 0.52950  0.52430  0.62050  Biso   1.000  N
  N14      1.0000 0.47050  0.52430  0.87950  Biso   1.000  N
  N15      1.0000 0.02950  0.02430  0.62050  Biso   1.000  N
  N16      1.0000 0.97050  0.02430  0.87950  Biso   1.000  N
  N17      1.0000 0.52480  0.74680  0.34800  Biso   1.000  N
  N18      1.0000 0.47520  0.74680  0.15200  Biso   1.000  N
  N19      1.0000 0.02480  0.24680  0.34800  Biso   1.000  N
  N20      1.0000 0.97520  0.24680  0.15200  Biso   1.000  N
  N21      1.0000 0.47520  0.25320  0.65200  Biso   1.000  N
  N22      1.0000 0.52480  0.25320  0.84800  Biso   1.000  N
  N23      1.0000 0.97520  0.75320  0.65200  Biso   1.000  N
  N24      1.0000 0.02480  0.75320  0.84800  Biso   1.000  N
  C1       1.0000 0.62350  0.46720  0.48380  Biso   1.000  C
  C2       1.0000 0.37650  0.46720  0.01620  Biso   1.000  C
  C3       1.0000 0.12350  0.96720  0.48380  Biso   1.000  C
  C4       1.0000 0.87650  0.96720  0.01620  Biso   1.000  C
  C5       1.0000 0.37650  0.53280  0.51620  Biso   1.000  C
  C6       1.0000 0.62350  0.53280  0.98380  Biso   1.000  C
  C7       1.0000 0.87650  0.03280  0.51620  Biso   1.000  C
  C8       1.0000 0.12350  0.03280  0.98380  Biso   1.000  C
  C9       1.0000 0.70840  0.42090  0.54840  Biso   1.000  C
  C10      1.0000 0.29160  0.42090  0.95160  Biso   1.000  C
  C11      1.0000 0.20840  0.92090  0.54840  Biso   1.000  C
  C12      1.0000 0.79160  0.92090  0.95160  Biso   1.000  C
  C13      1.0000 0.29160  0.57910  0.45160  Biso   1.000  C
  C14      1.0000 0.70840  0.57910  0.04840  Biso   1.000  C
  C15      1.0000 0.79160  0.07910  0.45160  Biso   1.000  C
  C16      1.0000 0.20840  0.07910  0.04840  Biso   1.000  C
  H1       1.0000 0.76500  0.46120  0.57820  Biso   1.000  H
  H2       1.0000 0.23500  0.46120  0.92180  Biso   1.000  H
  H3       1.0000 0.26500  0.96120  0.57820  Biso   1.000  H
  H4       1.0000 0.73500  0.96120  0.92180  Biso   1.000  H
  H5       1.0000 0.23500  0.53880  0.42180  Biso   1.000  H
  H6       1.0000 0.76500  0.53880  0.07820  Biso   1.000  H
  H7       1.0000 0.73500  0.03880  0.42180  Biso   1.000  H
  H8       1.0000 0.26500  0.03880  0.07820  Biso   1.000  H
  C17      1.0000 0.70710  0.31460  0.56750  Biso   1.000  C
  C18      1.0000 0.29290  0.31460  0.93250  Biso   1.000  C
  C19      1.0000 0.20710  0.81460  0.56750  Biso   1.000  C
  C20      1.0000 0.79290  0.81460  0.93250  Biso   1.000  C
  C21      1.0000 0.29290  0.68540  0.43250  Biso   1.000  C
  C22      1.0000 0.70710  0.68540  0.06750  Biso   1.000  C
  C23      1.0000 0.79290  0.18540  0.43250  Biso   1.000  C
  C24      1.0000 0.20710  0.18540  0.06750  Biso   1.000  C
  H9       1.0000 0.76390  0.28120  0.61190  Biso   1.000  H
  H10      1.0000 0.23610  0.28120  0.88810  Biso   1.000  H
  H11      1.0000 0.26390  0.78120  0.61190  Biso   1.000  H
  H12      1.0000 0.73610  0.78120  0.88810  Biso   1.000  H
  H13      1.0000 0.23610  0.71880  0.38810  Biso   1.000  H
  H14      1.0000 0.76390  0.71880  0.11190  Biso   1.000  H
  H15      1.0000 0.73610  0.21880  0.38810  Biso   1.000  H
  H16      1.0000 0.26390  0.21880  0.11190  Biso   1.000  H
  C25      1.0000 0.62380  0.25390  0.52290  Biso   1.000  C
  C26      1.0000 0.37620  0.25390  0.97710  Biso   1.000  C
  C27      1.0000 0.12380  0.75390  0.52290  Biso   1.000  C
  C28      1.0000 0.87620  0.75390  0.97710  Biso   1.000  C
  C29      1.0000 0.37620  0.74610  0.47710  Biso   1.000  C
  C30      1.0000 0.62380  0.74610  0.02290  Biso   1.000  C
  C31      1.0000 0.87620  0.24610  0.47710  Biso   1.000  C
  C32      1.0000 0.12380  0.24610  0.02290  Biso   1.000  C
  H17      1.0000 0.62600  0.18040  0.53750  Biso   1.000  H
  H18      1.0000 0.37400  0.18040  0.96250  Biso   1.000  H
  H19      1.0000 0.12600  0.68040  0.53750  Biso   1.000  H
  H20      1.0000 0.87400  0.68040  0.96250  Biso   1.000  H
  H21      1.0000 0.37400  0.81960  0.46250  Biso   1.000  H
  H22      1.0000 0.62600  0.81960  0.03750  Biso   1.000  H
  H23      1.0000 0.87400  0.31960  0.46250  Biso   1.000  H
  H24      1.0000 0.12600  0.31960  0.03750  Biso   1.000  H
  C33      1.0000 0.53900  0.29860  0.45840  Biso   1.000  C
  C34      1.0000 0.46100  0.29860  0.04160  Biso   1.000  C
  C35      1.0000 0.03900  0.79860  0.45840  Biso   1.000  C
  C36      1.0000 0.96100  0.79860  0.04160  Biso   1.000  C
  C37      1.0000 0.46100  0.70140  0.54160  Biso   1.000  C
  C38      1.0000 0.53900  0.70140  0.95840  Biso   1.000  C
  C39      1.0000 0.96100  0.20140  0.54160  Biso   1.000  C
  C40      1.0000 0.03900  0.20140  0.95840  Biso   1.000  C
  H25      1.0000 0.48260  0.25800  0.42870  Biso   1.000  H
  H26      1.0000 0.51740  0.25800  0.07130  Biso   1.000  H
  H27      1.0000 0.98260  0.75800  0.42870  Biso   1.000  H
  H28      1.0000 0.01740  0.75800  0.07130  Biso   1.000  H
  H29      1.0000 0.51740  0.74200  0.57130  Biso   1.000  H
  H30      1.0000 0.48260  0.74200  0.92870  Biso   1.000  H
  H31      1.0000 0.01740  0.24200  0.57130  Biso   1.000  H
  H32      1.0000 0.98260  0.24200  0.92870  Biso   1.000  H
  C41      1.0000 0.54040  0.40700  0.43930  Biso   1.000  C
  C42      1.0000 0.45960  0.40700  0.06070  Biso   1.000  C
  C43      1.0000 0.04040  0.90700  0.43930  Biso   1.000  C
  C44      1.0000 0.95960  0.90700  0.06070  Biso   1.000  C
  C45      1.0000 0.45960  0.59300  0.56070  Biso   1.000  C
  C46      1.0000 0.54040  0.59300  0.93930  Biso   1.000  C
  C47      1.0000 0.95960  0.09300  0.56070  Biso   1.000  C
  C48      1.0000 0.04040  0.09300  0.93930  Biso   1.000  C
  C49      1.0000 0.37280  0.44770  0.31440  Biso   1.000  C
  C50      1.0000 0.62720  0.44770  0.18560  Biso   1.000  C
  C51      1.0000 0.87280  0.94770  0.31440  Biso   1.000  C
  C52      1.0000 0.12720  0.94770  0.18560  Biso   1.000  C
  C53      1.0000 0.62720  0.55230  0.68560  Biso   1.000  C
  C54      1.0000 0.37280  0.55230  0.81440  Biso   1.000  C
  C55      1.0000 0.12720  0.05230  0.68560  Biso   1.000  C
  C56      1.0000 0.87280  0.05230  0.81440  Biso   1.000  C
  H33      1.0000 0.33250  0.51140  0.30170  Biso   1.000  H
  H34      1.0000 0.66750  0.51140  0.19830  Biso   1.000  H
  H35      1.0000 0.83250  0.01140  0.30170  Biso   1.000  H
  H36      1.0000 0.16750  0.01140  0.19830  Biso   1.000  H
  H37      1.0000 0.66750  0.48860  0.69830  Biso   1.000  H
  H38      1.0000 0.33250  0.48860  0.80170  Biso   1.000  H
  H39      1.0000 0.16750  0.98860  0.69830  Biso   1.000  H
  H40      1.0000 0.83250  0.98860  0.80170  Biso   1.000  H
  H41      1.0000 0.35090  0.39350  0.34430  Biso   1.000  H
  H42      1.0000 0.64910  0.39350  0.15570  Biso   1.000  H
  H43      1.0000 0.85090  0.89350  0.34430  Biso   1.000  H
  H44      1.0000 0.14910  0.89350  0.15570  Biso   1.000  H
  H45      1.0000 0.64910  0.60650  0.65570  Biso   1.000  H
  H46      1.0000 0.35090  0.60650  0.84430  Biso   1.000  H
  H47      1.0000 0.14910  0.10650  0.65570  Biso   1.000  H
  H48      1.0000 0.85090  0.10650  0.84430  Biso   1.000  H
  C57      1.0000 0.36220  0.40490  0.22200  Biso   1.000  C
  C58      1.0000 0.63780  0.40490  0.27800  Biso   1.000  C
  C59      1.0000 0.86220  0.90490  0.22200  Biso   1.000  C
  C60      1.0000 0.13780  0.90490  0.27800  Biso   1.000  C
  C61      1.0000 0.63780  0.59510  0.77800  Biso   1.000  C
  C62      1.0000 0.36220  0.59510  0.72200  Biso   1.000  C
  C63      1.0000 0.13780  0.09510  0.77800  Biso   1.000  C
  C64      1.0000 0.86220  0.09510  0.72200  Biso   1.000  C
  H49      1.0000 0.38300  0.45880  0.19190  Biso   1.000  H
  H50      1.0000 0.61700  0.45880  0.30810  Biso   1.000  H
  H51      1.0000 0.88300  0.95880  0.19190  Biso   1.000  H
  H52      1.0000 0.11700  0.95880  0.30810  Biso   1.000  H
  H53      1.0000 0.61700  0.54120  0.80810  Biso   1.000  H
  H54      1.0000 0.38300  0.54120  0.69190  Biso   1.000  H
  H55      1.0000 0.11700  0.04120  0.80810  Biso   1.000  H
  H56      1.0000 0.88300  0.04120  0.69190  Biso   1.000  H
  H57      1.0000 0.29590  0.38730  0.18000  Biso   1.000  H
  H58      1.0000 0.70410  0.38730  0.32000  Biso   1.000  H
  H59      1.0000 0.79590  0.88730  0.18000  Biso   1.000  H
  H60      1.0000 0.20410  0.88730  0.32000  Biso   1.000  H
  H61      1.0000 0.70410  0.61270  0.82000  Biso   1.000  H
  H62      1.0000 0.29590  0.61270  0.68000  Biso   1.000  H
  H63      1.0000 0.20410  0.11270  0.82000  Biso   1.000  H
  H64      1.0000 0.79590  0.11270  0.68000  Biso   1.000  H
  H65      1.0000 0.40080  0.34080  0.23420  Biso   1.000  H
  H66      1.0000 0.59920  0.34080  0.26580  Biso   1.000  H
  H67      1.0000 0.90080  0.84080  0.23420  Biso   1.000  H
  H68      1.0000 0.09920  0.84080  0.26580  Biso   1.000  H
  H69      1.0000 0.59920  0.65920  0.76580  Biso   1.000  H
  H70      1.0000 0.40080  0.65920  0.73420  Biso   1.000  H
  H71      1.0000 0.09920  0.15920  0.76580  Biso   1.000  H
  H72      1.0000 0.90080  0.15920  0.73420  Biso   1.000  H
  C65      1.0000 0.51300  0.57200  0.38860  Biso   1.000  C
  C66      1.0000 0.48700  0.57200  0.11140  Biso   1.000  C
  C67      1.0000 0.01300  0.07200  0.38860  Biso   1.000  C
  C68      1.0000 0.98700  0.07200  0.11140  Biso   1.000  C
  C69      1.0000 0.48700  0.42800  0.61140  Biso   1.000  C
  C70      1.0000 0.51300  0.42800  0.88860  Biso   1.000  C
  C71      1.0000 0.98700  0.92800  0.61140  Biso   1.000  C
  C72      1.0000 0.01300  0.92800  0.88860  Biso   1.000  C
  C73      1.0000 0.46970  0.66800  0.33510  Biso   1.000  C
  C74      1.0000 0.53030  0.66800  0.16490  Biso   1.000  C
  C75      1.0000 0.96970  0.16800  0.33510  Biso   1.000  C
  C76      1.0000 0.03030  0.16800  0.16490  Biso   1.000  C
  C77      1.0000 0.53030  0.33200  0.66490  Biso   1.000  C
  C78      1.0000 0.46970  0.33200  0.83510  Biso   1.000  C
  C79      1.0000 0.03030  0.83200  0.66490  Biso   1.000  C
  C80      1.0000 0.96970  0.83200  0.83510  Biso   1.000  C
  H73      1.0000 0.40400  0.67210  0.29270  Biso   1.000  H
  H74      1.0000 0.59600  0.67210  0.20730  Biso   1.000  H
  H75      1.0000 0.90400  0.17210  0.29270  Biso   1.000  H
  H76      1.0000 0.09600  0.17210  0.20730  Biso   1.000  H
  H77      1.0000 0.59600  0.32790  0.70730  Biso   1.000  H
  H78      1.0000 0.40400  0.32790  0.79270  Biso   1.000  H
  H79      1.0000 0.09600  0.82790  0.70730  Biso   1.000  H
  H80      1.0000 0.90400  0.82790  0.79270  Biso   1.000  H
  C81      1.0000 0.48360  0.84110  0.28840  Biso   1.000  C
  C82      1.0000 0.51640  0.84110  0.21160  Biso   1.000  C
  C83      1.0000 0.98360  0.34110  0.28840  Biso   1.000  C
  C84      1.0000 0.01640  0.34110  0.21160  Biso   1.000  C
  C85      1.0000 0.51640  0.15890  0.71160  Biso   1.000  C
  C86      1.0000 0.48360  0.15890  0.78840  Biso   1.000  C
  C87      1.0000 0.01640  0.65890  0.71160  Biso   1.000  C
  C88      1.0000 0.98360  0.65890  0.78840  Biso   1.000  C
  H81      1.0000 0.41330  0.83710  0.25740  Biso   1.000  H
  H82      1.0000 0.58670  0.83710  0.24260  Biso   1.000  H
  H83      1.0000 0.91330  0.33710  0.25740  Biso   1.000  H
  H84      1.0000 0.08670  0.33710  0.24260  Biso   1.000  H
  H85      1.0000 0.58670  0.16290  0.74260  Biso   1.000  H
  H86      1.0000 0.41330  0.16290  0.75740  Biso   1.000  H
  H87      1.0000 0.08670  0.66290  0.74260  Biso   1.000  H
  H88      1.0000 0.91330  0.66290  0.75740  Biso   1.000  H
  C89      1.0000 0.51780  0.94160  0.34910  Biso   1.000  C
  C90      1.0000 0.48220  0.94160  0.15090  Biso   1.000  C
  C91      1.0000 0.01780  0.44160  0.34910  Biso   1.000  C
  C92      1.0000 0.98220  0.44160  0.15090  Biso   1.000  C
  C93      1.0000 0.48220  0.05840  0.65090  Biso   1.000  C
  C94      1.0000 0.51780  0.05840  0.84910  Biso   1.000  C
  C95      1.0000 0.98220  0.55840  0.65090  Biso   1.000  C
  C96      1.0000 0.01780  0.55840  0.84910  Biso   1.000  C
  H89      1.0000 0.49330  0.94230  0.39510  Biso   1.000  H
  H90      1.0000 0.50670  0.94230  0.10490  Biso   1.000  H
  H91      1.0000 0.99330  0.44230  0.39510  Biso   1.000  H
  H92      1.0000 0.00670  0.44230  0.10490  Biso   1.000  H
  H93      1.0000 0.50670  0.05770  0.60490  Biso   1.000  H
  H94      1.0000 0.49330  0.05770  0.89510  Biso   1.000  H
  H95      1.0000 0.00670  0.55770  0.60490  Biso   1.000  H
  H96      1.0000 0.99330  0.55770  0.89510  Biso   1.000  H
  H97      1.0000 0.58750  0.94110  0.38510  Biso   1.000  H
  H98      1.0000 0.41250  0.94110  0.11490  Biso   1.000  H
  H99      1.0000 0.08750  0.44110  0.38510  Biso   1.000  H
  H100     1.0000 0.91250  0.44110  0.11490  Biso   1.000  H
  H101     1.0000 0.41250  0.05890  0.61490  Biso   1.000  H
  H102     1.0000 0.58750  0.05890  0.88510  Biso   1.000  H
  H103     1.0000 0.91250  0.55890  0.61490  Biso   1.000  H
  H104     1.0000 0.08750  0.55890  0.88510  Biso   1.000  H
  C97      1.0000 0.48490  0.04190  0.28800  Biso   1.000  C
  C98      1.0000 0.51510  0.04190  0.21200  Biso   1.000  C
  C99      1.0000 0.98490  0.54190  0.28800  Biso   1.000  C
  C100     1.0000 0.01510  0.54190  0.21200  Biso   1.000  C
  C101     1.0000 0.51510  0.95810  0.71200  Biso   1.000  C
  C102     1.0000 0.48490  0.95810  0.78800  Biso   1.000  C
  C103     1.0000 0.01510  0.45810  0.71200  Biso   1.000  C
  C104     1.0000 0.98490  0.45810  0.78800  Biso   1.000  C
  H105     1.0000 0.41530  0.04670  0.25780  Biso   1.000  H
  H106     1.0000 0.58470  0.04670  0.24220  Biso   1.000  H
  H107     1.0000 0.91530  0.54670  0.25780  Biso   1.000  H
  H108     1.0000 0.08470  0.54670  0.24220  Biso   1.000  H
  H109     1.0000 0.58470  0.95330  0.74220  Biso   1.000  H
  H110     1.0000 0.41530  0.95330  0.75780  Biso   1.000  H
  H111     1.0000 0.08470  0.45330  0.74220  Biso   1.000  H
  H112     1.0000 0.91530  0.45330  0.75780  Biso   1.000  H
  H113     1.0000 0.51150  0.10520  0.32880  Biso   1.000  H
  H114     1.0000 0.48850  0.10520  0.17120  Biso   1.000  H
  H115     1.0000 0.01150  0.60520  0.32880  Biso   1.000  H
  H116     1.0000 0.98850  0.60520  0.17120  Biso   1.000  H
  H117     1.0000 0.48850  0.89480  0.67120  Biso   1.000  H
  H118     1.0000 0.51150  0.89480  0.82880  Biso   1.000  H
  H119     1.0000 0.98850  0.39480  0.67120  Biso   1.000  H
  H120     1.0000 0.01150  0.39480  0.82880  Biso   1.000  H
