data_image0
_cell_length_a       12.374
_cell_length_b       4.251
_cell_length_c       15.081
_cell_angle_alpha    90
_cell_angle_beta     106.67
_cell_angle_gamma    90

_symmetry_space_group_name_H-M    "P 1"
_symmetry_int_tables_number       1

loop_
  _symmetry_equiv_pos_as_xyz
  'x, y, z'

loop_
  _atom_site_label
  _atom_site_occupancy
  _atom_site_fract_x
  _atom_site_fract_y
  _atom_site_fract_z
  _atom_site_thermal_displace_type
  _atom_site_B_iso_or_equiv
  _atom_site_type_symbol
  I1       1.0000 0.72386  0.49310  0.04140  Biso   1.000  I
  I2       1.0000 0.72386  0.50690  0.54140  Biso   1.000  I
  Cu1      1.0000 0.72479  0.99149  0.93932  Biso   1.000  Cu
  Cu2      1.0000 0.72479  0.00851  0.43932  Biso   1.000  Cu
  N1       1.0000 0.86110  0.02860  0.88512  Biso   1.000  N
  N2       1.0000 0.86110  0.97140  0.38512  Biso   1.000  N
  C1       1.0000 0.85580  0.90130  0.80240  Biso   1.000  C
  C2       1.0000 0.85580  0.09870  0.30240  Biso   1.000  C
  H1       1.0000 0.79660  0.75720  0.77600  Biso   1.000  H
  H2       1.0000 0.79660  0.24280  0.27600  Biso   1.000  H
  C3       1.0000 0.93230  0.96970  0.75380  Biso   1.000  C
  C4       1.0000 0.93230  0.03030  0.25380  Biso   1.000  C
  H3       1.0000 0.92380  0.87980  0.69450  Biso   1.000  H
  H4       1.0000 0.92380  0.12020  0.19450  Biso   1.000  H
  C5       1.0000 0.02160  0.17090  0.79260  Biso   1.000  C
  C6       1.0000 0.02160  0.82910  0.29260  Biso   1.000  C
  C7       1.0000 0.03140  0.29110  0.88040  Biso   1.000  C
  C8       1.0000 0.03140  0.70890  0.38040  Biso   1.000  C
  H5       1.0000 0.09320  0.42210  0.91060  Biso   1.000  H
  H6       1.0000 0.09320  0.57790  0.41060  Biso   1.000  H
  C9       1.0000 0.94900  0.21590  0.92320  Biso   1.000  C
  C10      1.0000 0.94900  0.78410  0.42320  Biso   1.000  C
  H7       1.0000 0.95560  0.30220  0.98260  Biso   1.000  H
  H8       1.0000 0.95560  0.69780  0.48260  Biso   1.000  H
  C11      1.0000 0.10500  0.27140  0.74200  Biso   1.000  C
  C12      1.0000 0.10500  0.72860  0.24200  Biso   1.000  C
  C13      1.0000 0.08970  0.15340  0.64570  Biso   1.000  C
  C14      1.0000 0.08970  0.84660  0.14570  Biso   1.000  C
  H9       1.0000 0.14940  0.23900  0.62190  Biso   1.000  H
  H10      1.0000 0.14940  0.76100  0.12190  Biso   1.000  H
  H11      1.0000 0.01600  0.22080  0.60590  Biso   1.000  H
  H12      1.0000 0.01600  0.77920  0.10590  Biso   1.000  H
  H13      1.0000 0.09370  0.92310  0.64640  Biso   1.000  H
  H14      1.0000 0.09370  0.07690  0.14640  Biso   1.000  H
  O1       1.0000 0.18060  0.45140  0.77904  Biso   1.000  O
  O2       1.0000 0.18060  0.54860  0.27904  Biso   1.000  O
  N3       1.0000 0.58820  0.97030  0.81992  Biso   1.000  N
  N4       1.0000 0.58820  0.02970  0.31992  Biso   1.000  N
  C15      1.0000 0.59410  0.10540  0.74230  Biso   1.000  C
  C16      1.0000 0.59410  0.89460  0.24230  Biso   1.000  C
  H15      1.0000 0.65440  0.24790  0.74600  Biso   1.000  H
  H16      1.0000 0.65440  0.75210  0.24600  Biso   1.000  H
  C17      1.0000 0.51900  0.05340  0.65680  Biso   1.000  C
  C18      1.0000 0.51900  0.94660  0.15680  Biso   1.000  C
  H17      1.0000 0.52960  0.14840  0.60290  Biso   1.000  H
  H18      1.0000 0.52960  0.85160  0.10290  Biso   1.000  H
  C19      1.0000 0.42690  0.85830  0.65110  Biso   1.000  C
  C20      1.0000 0.42690  0.14170  0.15110  Biso   1.000  C
  C21      1.0000 0.41530  0.72940  0.73220  Biso   1.000  C
  C22      1.0000 0.41530  0.27060  0.23220  Biso   1.000  C
  H19      1.0000 0.35140  0.60470  0.73160  Biso   1.000  H
  H20      1.0000 0.35140  0.39530  0.23160  Biso   1.000  H
  C23      1.0000 0.49890  0.78570  0.81460  Biso   1.000  C
  C24      1.0000 0.49890  0.21430  0.31460  Biso   1.000  C
  H21      1.0000 0.49240  0.68870  0.86960  Biso   1.000  H
  H22      1.0000 0.49240  0.31130  0.36960  Biso   1.000  H
  C25      1.0000 0.34340  0.77010  0.55980  Biso   1.000  C
  C26      1.0000 0.34340  0.22990  0.05980  Biso   1.000  C
  C27      1.0000 0.36330  0.89370  0.47210  Biso   1.000  C
  C28      1.0000 0.36330  0.10630  0.97210  Biso   1.000  C
  H23      1.0000 0.30280  0.82070  0.41870  Biso   1.000  H
  H24      1.0000 0.30280  0.17930  0.91870  Biso   1.000  H
  H25      1.0000 0.43600  0.81660  0.46730  Biso   1.000  H
  H26      1.0000 0.43600  0.18340  0.96730  Biso   1.000  H
  H27      1.0000 0.36390  0.12420  0.47350  Biso   1.000  H
  H28      1.0000 0.36390  0.87580  0.97350  Biso   1.000  H
  O3       1.0000 0.26560  0.59700  0.55843  Biso   1.000  O
  O4       1.0000 0.26560  0.40300  0.05843  Biso   1.000  O
