data_image0
_cell_length_a       4.121
_cell_length_b       8.376
_cell_length_c       26.321
_cell_angle_alpha    90
_cell_angle_beta     90
_cell_angle_gamma    90

_symmetry_space_group_name_H-M    "P 1"
_symmetry_int_tables_number       1

loop_
  _symmetry_equiv_pos_as_xyz
  'x, y, z'

loop_
  _atom_site_label
  _atom_site_occupancy
  _atom_site_fract_x
  _atom_site_fract_y
  _atom_site_fract_z
  _atom_site_thermal_displace_type
  _atom_site_B_iso_or_equiv
  _atom_site_type_symbol
  I1       1.0000 0.94126  0.92103  0.94850  Biso   1.000  I
  I2       1.0000 0.55874  0.07897  0.44850  Biso   1.000  I
  I3       1.0000 0.44126  0.57897  0.05150  Biso   1.000  I
  I4       1.0000 0.05874  0.42103  0.55150  Biso   1.000  I
  Cu1      1.0000 0.44680  0.72600  0.96225  Biso   1.000  Cu
  Cu2      1.0000 0.05320  0.27400  0.46225  Biso   1.000  Cu
  Cu3      1.0000 0.94680  0.77400  0.03775  Biso   1.000  Cu
  Cu4      1.0000 0.55320  0.22600  0.53775  Biso   1.000  Cu
  N1       1.0000 0.41060  0.55140  0.90820  Biso   1.000  N
  N2       1.0000 0.08940  0.44860  0.40820  Biso   1.000  N
  N3       1.0000 0.91060  0.94860  0.09180  Biso   1.000  N
  N4       1.0000 0.58940  0.05140  0.59180  Biso   1.000  N
  C1       1.0000 0.51100  0.40100  0.91670  Biso   1.000  C
  C2       1.0000 0.98900  0.59900  0.41670  Biso   1.000  C
  C3       1.0000 0.01100  0.09900  0.08330  Biso   1.000  C
  C4       1.0000 0.48900  0.90100  0.58330  Biso   1.000  C
  H1       1.0000 0.60830  0.37800  0.94770  Biso   1.000  H
  H2       1.0000 0.89170  0.62200  0.44770  Biso   1.000  H
  H3       1.0000 0.10830  0.12200  0.05230  Biso   1.000  H
  H4       1.0000 0.39170  0.87800  0.55230  Biso   1.000  H
  C5       1.0000 0.47800  0.28160  0.88270  Biso   1.000  C
  C6       1.0000 0.02200  0.71840  0.38270  Biso   1.000  C
  C7       1.0000 0.97800  0.21840  0.11730  Biso   1.000  C
  C8       1.0000 0.52200  0.78160  0.61730  Biso   1.000  C
  H5       1.0000 0.55700  0.18020  0.89010  Biso   1.000  H
  H6       1.0000 0.94300  0.81980  0.39010  Biso   1.000  H
  H7       1.0000 0.05700  0.31980  0.10990  Biso   1.000  H
  H8       1.0000 0.44300  0.68020  0.60990  Biso   1.000  H
  C9       1.0000 0.32600  0.31090  0.83640  Biso   1.000  C
  C10      1.0000 0.17400  0.68910  0.33640  Biso   1.000  C
  C11      1.0000 0.82600  0.18910  0.16360  Biso   1.000  C
  C12      1.0000 0.67400  0.81090  0.66360  Biso   1.000  C
  C13      1.0000 0.22600  0.46550  0.82680  Biso   1.000  C
  C14      1.0000 0.27400  0.53450  0.32680  Biso   1.000  C
  C15      1.0000 0.72600  0.03450  0.17320  Biso   1.000  C
  C16      1.0000 0.77400  0.96550  0.67320  Biso   1.000  C
  H9       1.0000 0.12900  0.49190  0.79600  Biso   1.000  H
  H10      1.0000 0.37100  0.50810  0.29600  Biso   1.000  H
  H11      1.0000 0.62900  0.00810  0.20400  Biso   1.000  H
  H12      1.0000 0.87100  0.99190  0.70400  Biso   1.000  H
  C17      1.0000 0.27200  0.57910  0.86360  Biso   1.000  C
  C18      1.0000 0.22800  0.42090  0.36360  Biso   1.000  C
  C19      1.0000 0.77200  0.92090  0.13640  Biso   1.000  C
  C20      1.0000 0.72800  0.07910  0.63640  Biso   1.000  C
  H13      1.0000 0.20100  0.68240  0.85690  Biso   1.000  H
  H14      1.0000 0.29900  0.31760  0.35690  Biso   1.000  H
  H15      1.0000 0.70100  0.81760  0.14310  Biso   1.000  H
  H16      1.0000 0.79900  0.18240  0.64310  Biso   1.000  H
  C21      1.0000 0.26300  0.18370  0.79750  Biso   1.000  C
  C22      1.0000 0.23700  0.81630  0.29750  Biso   1.000  C
  C23      1.0000 0.76300  0.31630  0.20250  Biso   1.000  C
  C24      1.0000 0.73700  0.68370  0.70250  Biso   1.000  C
  C25      1.0000 0.37400  0.01910  0.80710  Biso   1.000  C
  C26      1.0000 0.12600  0.98090  0.30710  Biso   1.000  C
  C27      1.0000 0.87400  0.48090  0.19290  Biso   1.000  C
  C28      1.0000 0.62600  0.51910  0.69290  Biso   1.000  C
  H17      1.0000 0.35300  0.99520  0.84270  Biso   1.000  H
  H18      1.0000 0.14700  0.00480  0.34270  Biso   1.000  H
  H19      1.0000 0.85300  0.50480  0.15730  Biso   1.000  H
  H20      1.0000 0.64700  0.49520  0.65730  Biso   1.000  H
  H21      1.0000 0.59770  0.00900  0.79730  Biso   1.000  H
  H22      1.0000 0.90230  0.99100  0.29730  Biso   1.000  H
  H23      1.0000 0.09770  0.49100  0.20270  Biso   1.000  H
  H24      1.0000 0.40230  0.50900  0.70270  Biso   1.000  H
  H25      1.0000 0.24470  0.94590  0.78780  Biso   1.000  H
  H26      1.0000 0.25530  0.05410  0.28780  Biso   1.000  H
  H27      1.0000 0.74470  0.55410  0.21220  Biso   1.000  H
  H28      1.0000 0.75530  0.44590  0.71220  Biso   1.000  H
  O1       1.0000 0.12300  0.21870  0.75880  Biso   1.000  O
  O2       1.0000 0.37700  0.78130  0.25880  Biso   1.000  O
  O3       1.0000 0.62300  0.28130  0.24120  Biso   1.000  O
  O4       1.0000 0.87700  0.71870  0.74120  Biso   1.000  O
