data_image0
_cell_length_a       7.6948
_cell_length_b       8.6781
_cell_length_c       9.2592
_cell_angle_alpha    73.883
_cell_angle_beta     75.869
_cell_angle_gamma    67.929

_symmetry_space_group_name_H-M    "P 1"
_symmetry_int_tables_number       1

loop_
  _symmetry_equiv_pos_as_xyz
  'x, y, z'

loop_
  _atom_site_label
  _atom_site_occupancy
  _atom_site_fract_x
  _atom_site_fract_y
  _atom_site_fract_z
  _atom_site_thermal_displace_type
  _atom_site_B_iso_or_equiv
  _atom_site_type_symbol
  Cd1      1.0000 0.30864  0.25329  0.15227  Biso   1.000  Cd
  Cd2      1.0000 0.69136  0.74671  0.84773  Biso   1.000  Cd
  Cu1      1.0000 0.35352  0.63269  0.47708  Biso   1.000  Cu
  Cu2      1.0000 0.64648  0.36731  0.52292  Biso   1.000  Cu
  N1       1.0000 0.21810  0.23460  0.93440  Biso   1.000  N
  N2       1.0000 0.78190  0.76540  0.06560  Biso   1.000  N
  N3       1.0000 0.40270  0.35260  0.30840  Biso   1.000  N
  N4       1.0000 0.59730  0.64740  0.69160  Biso   1.000  N
  C1       1.0000 0.41980  0.43310  0.38020  Biso   1.000  C
  C2       1.0000 0.58020  0.56690  0.61980  Biso   1.000  C
  O1       1.0000 0.62510  0.19240  0.01050  Biso   1.000  O
  O2       1.0000 0.37490  0.80760  0.98950  Biso   1.000  O
  O3       1.0000 0.26160  0.52730  0.00310  Biso   1.000  O
  O4       1.0000 0.73840  0.47270  0.99690  Biso   1.000  O
  N5       1.0000 0.36030  0.97560  0.25850  Biso   1.000  N
  N6       1.0000 0.63970  0.02440  0.74150  Biso   1.000  N
  N7       1.0000 0.99780  0.32220  0.26700  Biso   1.000  N
  N8       1.0000 0.00220  0.67780  0.73300  Biso   1.000  N
  C3       1.0000 0.16360  0.24460  0.82820  Biso   1.000  C
  C4       1.0000 0.83640  0.75540  0.17180  Biso   1.000  C
  C5       1.0000 0.09280  0.24830  0.69180  Biso   1.000  C
  C6       1.0000 0.90720  0.75170  0.30820  Biso   1.000  C
  H1       1.0000 0.14400  0.32100  0.60200  Biso   1.000  H
  H2       1.0000 0.85600  0.67900  0.39800  Biso   1.000  H
  H3       1.0000 0.95250  0.29760  0.70670  Biso   1.000  H
  H4       1.0000 0.04750  0.70240  0.29330  Biso   1.000  H
  C7       1.0000 0.15320  0.07000  0.66380  Biso   1.000  C
  C8       1.0000 0.84680  0.93000  0.33620  Biso   1.000  C
  H5       1.0000 0.08930  0.07030  0.58290  Biso   1.000  H
  H6       1.0000 0.91070  0.92970  0.41710  Biso   1.000  H
  H7       1.0000 0.29220  0.02760  0.63060  Biso   1.000  H
  H8       1.0000 0.70780  0.97240  0.36940  Biso   1.000  H
  O5       1.0000 0.10120  0.96280  0.80290  Biso   1.000  O
  O6       1.0000 0.89880  0.03720  0.19710  Biso   1.000  O
  H9       1.0000 0.06820  0.88980  0.78340  Biso   1.000  H
  H10      1.0000 0.93180  0.11020  0.21660  Biso   1.000  H
  C9       1.0000 0.86740  0.34430  0.36280  Biso   1.000  C
  C10      1.0000 0.13260  0.65570  0.63720  Biso   1.000  C
  C11      1.0000 0.36310  0.84520  0.33880  Biso   1.000  C
  C12      1.0000 0.63690  0.15480  0.66120  Biso   1.000  C
  H11      1.0000 0.22700  0.56300  0.90500  Biso   1.000  H
  H12      1.0000 0.77300  0.43700  0.09500  Biso   1.000  H
  H13      1.0000 0.31700  0.60600  0.00700  Biso   1.000  H
  H14      1.0000 0.68300  0.39400  0.99300  Biso   1.000  H
  H15      1.0000 0.65100  0.14500  0.92500  Biso   1.000  H
  H16      1.0000 0.34900  0.85500  0.07500  Biso   1.000  H
  H17      1.0000 0.72400  0.12300  0.06500  Biso   1.000  H
  H18      1.0000 0.27600  0.87700  0.93500  Biso   1.000  H
