data_image0
_cell_length_a       4.1276
_cell_length_b       24.186
_cell_length_c       9.37
_cell_angle_alpha    90
_cell_angle_beta     97.616
_cell_angle_gamma    90

_symmetry_space_group_name_H-M    "P 1"
_symmetry_int_tables_number       1

loop_
  _symmetry_equiv_pos_as_xyz
  'x, y, z'

loop_
  _atom_site_label
  _atom_site_occupancy
  _atom_site_fract_x
  _atom_site_fract_y
  _atom_site_fract_z
  _atom_site_thermal_displace_type
  _atom_site_B_iso_or_equiv
  _atom_site_type_symbol
  I1       1.0000 0.68553  0.01183  0.28529  Biso   1.000  I
  I2       1.0000 0.31447  0.51183  0.21471  Biso   1.000  I
  I3       1.0000 0.31447  0.98817  0.71471  Biso   1.000  I
  I4       1.0000 0.68553  0.48817  0.78529  Biso   1.000  I
  Cu1      1.0000 0.23300  0.03318  0.45559  Biso   1.000  Cu
  Cu2      1.0000 0.76700  0.53318  0.04441  Biso   1.000  Cu
  Cu3      1.0000 0.76700  0.96682  0.54441  Biso   1.000  Cu
  Cu4      1.0000 0.23300  0.46682  0.95559  Biso   1.000  Cu
  C1       1.0000 0.37400  0.29160  0.55160  Biso   1.000  C
  C2       1.0000 0.62600  0.79160  0.94840  Biso   1.000  C
  C3       1.0000 0.62600  0.70840  0.44840  Biso   1.000  C
  C4       1.0000 0.37400  0.20840  0.05160  Biso   1.000  C
  C5       1.0000 0.32650  0.23090  0.52750  Biso   1.000  C
  C6       1.0000 0.67350  0.73090  0.97250  Biso   1.000  C
  C7       1.0000 0.67350  0.76910  0.47250  Biso   1.000  C
  C8       1.0000 0.32650  0.26910  0.02750  Biso   1.000  C
  C9       1.0000 0.49100  0.19430  0.62600  Biso   1.000  C
  C10      1.0000 0.50900  0.69430  0.87400  Biso   1.000  C
  C11      1.0000 0.50900  0.80570  0.37400  Biso   1.000  C
  C12      1.0000 0.49100  0.30570  0.12600  Biso   1.000  C
  H1       1.0000 0.62950  0.20780  0.70770  Biso   1.000  H
  H2       1.0000 0.37050  0.70780  0.79230  Biso   1.000  H
  H3       1.0000 0.37050  0.79220  0.29230  Biso   1.000  H
  H4       1.0000 0.62950  0.29220  0.20770  Biso   1.000  H
  C13      1.0000 0.45230  0.13840  0.60410  Biso   1.000  C
  C14      1.0000 0.54770  0.63840  0.89590  Biso   1.000  C
  C15      1.0000 0.54770  0.86160  0.39590  Biso   1.000  C
  C16      1.0000 0.45230  0.36160  0.10410  Biso   1.000  C
  H5       1.0000 0.56750  0.11380  0.67180  Biso   1.000  H
  H6       1.0000 0.43250  0.61380  0.82820  Biso   1.000  H
  H7       1.0000 0.43250  0.88620  0.32820  Biso   1.000  H
  H8       1.0000 0.56750  0.38620  0.17180  Biso   1.000  H
  C17      1.0000 0.09910  0.15260  0.39920  Biso   1.000  C
  C18      1.0000 0.90090  0.65260  0.10080  Biso   1.000  C
  C19      1.0000 0.90090  0.84740  0.60080  Biso   1.000  C
  C20      1.0000 0.09910  0.34740  0.89920  Biso   1.000  C
  H9       1.0000 0.95770  0.13810  0.31970  Biso   1.000  H
  H10      1.0000 0.04230  0.63810  0.18030  Biso   1.000  H
  H11      1.0000 0.04230  0.86190  0.68030  Biso   1.000  H
  H12      1.0000 0.95770  0.36190  0.81970  Biso   1.000  H
  C21      1.0000 0.12760  0.20940  0.41260  Biso   1.000  C
  C22      1.0000 0.87240  0.70940  0.08740  Biso   1.000  C
  C23      1.0000 0.87240  0.79060  0.58740  Biso   1.000  C
  C24      1.0000 0.12760  0.29060  0.91260  Biso   1.000  C
  H13      1.0000 0.01080  0.23320  0.34310  Biso   1.000  H
  H14      1.0000 0.98920  0.73320  0.15690  Biso   1.000  H
  H15      1.0000 0.98920  0.76680  0.65690  Biso   1.000  H
  H16      1.0000 0.01080  0.26680  0.84310  Biso   1.000  H
  C25      1.0000 0.19700  0.38060  0.47620  Biso   1.000  C
  C26      1.0000 0.80300  0.88060  0.02380  Biso   1.000  C
  C27      1.0000 0.80300  0.61940  0.52380  Biso   1.000  C
  C28      1.0000 0.19700  0.11940  0.97620  Biso   1.000  C
  H17      1.0000 0.12800  0.39060  0.56910  Biso   1.000  H
  H18      1.0000 0.87200  0.89060  0.93090  Biso   1.000  H
  H19      1.0000 0.87200  0.60940  0.43090  Biso   1.000  H
  H20      1.0000 0.12800  0.10940  0.06910  Biso   1.000  H
  H21      1.0000 0.05260  0.39860  0.39840  Biso   1.000  H
  H22      1.0000 0.94740  0.89860  0.10160  Biso   1.000  H
  H23      1.0000 0.94740  0.60140  0.60160  Biso   1.000  H
  H24      1.0000 0.05260  0.10140  0.89840  Biso   1.000  H
  H25      1.0000 0.42220  0.39280  0.47380  Biso   1.000  H
  H26      1.0000 0.57780  0.89280  0.02620  Biso   1.000  H
  H27      1.0000 0.57780  0.60720  0.52620  Biso   1.000  H
  H28      1.0000 0.42220  0.10720  0.97380  Biso   1.000  H
  N1       1.0000 0.25820  0.11710  0.49120  Biso   1.000  N
  N2       1.0000 0.74180  0.61710  0.00880  Biso   1.000  N
  N3       1.0000 0.74180  0.88290  0.50880  Biso   1.000  N
  N4       1.0000 0.25820  0.38290  0.99120  Biso   1.000  N
  O1       1.0000 0.56910  0.31070  0.64410  Biso   1.000  O
  O2       1.0000 0.43090  0.81070  0.85590  Biso   1.000  O
  O3       1.0000 0.43090  0.68930  0.35590  Biso   1.000  O
  O4       1.0000 0.56910  0.18930  0.14410  Biso   1.000  O
  O5       1.0000 0.17720  0.32150  0.45770  Biso   1.000  O
  O6       1.0000 0.82280  0.82150  0.04230  Biso   1.000  O
  O7       1.0000 0.82280  0.67850  0.54230  Biso   1.000  O
  O8       1.0000 0.17720  0.17850  0.95770  Biso   1.000  O
