data_image0
_cell_length_a       14.6503
_cell_length_b       4.1198
_cell_length_c       14.3078
_cell_angle_alpha    90
_cell_angle_beta     104.892
_cell_angle_gamma    90

_symmetry_space_group_name_H-M    "P 1"
_symmetry_int_tables_number       1

loop_
  _symmetry_equiv_pos_as_xyz
  'x, y, z'

loop_
  _atom_site_label
  _atom_site_occupancy
  _atom_site_fract_x
  _atom_site_fract_y
  _atom_site_fract_z
  _atom_site_thermal_displace_type
  _atom_site_B_iso_or_equiv
  _atom_site_type_symbol
  Cu1      1.0000 0.42935  0.31553  0.73249  Biso   1.000  Cu
  Cu2      1.0000 0.57065  0.81553  0.76751  Biso   1.000  Cu
  Cu3      1.0000 0.57065  0.68447  0.26751  Biso   1.000  Cu
  Cu4      1.0000 0.42935  0.18447  0.23249  Biso   1.000  Cu
  I1       1.0000 0.42086  0.81540  0.61609  Biso   1.000  I
  I2       1.0000 0.57914  0.31540  0.88391  Biso   1.000  I
  I3       1.0000 0.57914  0.18460  0.38391  Biso   1.000  I
  I4       1.0000 0.42086  0.68460  0.11609  Biso   1.000  I
  C1       1.0000 0.09180  0.41740  0.93050  Biso   1.000  C
  C2       1.0000 0.90820  0.91740  0.56950  Biso   1.000  C
  C3       1.0000 0.90820  0.58260  0.06950  Biso   1.000  C
  C4       1.0000 0.09180  0.08260  0.43050  Biso   1.000  C
  C5       1.0000 0.16710  0.37370  0.87820  Biso   1.000  C
  C6       1.0000 0.83290  0.87370  0.62180  Biso   1.000  C
  C7       1.0000 0.83290  0.62630  0.12180  Biso   1.000  C
  C8       1.0000 0.16710  0.12630  0.37820  Biso   1.000  C
  C9       1.0000 0.15830  0.49690  0.78670  Biso   1.000  C
  C10      1.0000 0.84170  0.99690  0.71330  Biso   1.000  C
  C11      1.0000 0.84170  0.50310  0.21330  Biso   1.000  C
  C12      1.0000 0.15830  0.00310  0.28670  Biso   1.000  C
  H1       1.0000 0.10270  0.59820  0.75350  Biso   1.000  H
  H2       1.0000 0.89730  0.09820  0.74650  Biso   1.000  H
  H3       1.0000 0.89730  0.40180  0.24650  Biso   1.000  H
  H4       1.0000 0.10270  0.90180  0.25350  Biso   1.000  H
  C13      1.0000 0.23290  0.46790  0.74520  Biso   1.000  C
  C14      1.0000 0.76710  0.96790  0.75480  Biso   1.000  C
  C15      1.0000 0.76710  0.53210  0.25480  Biso   1.000  C
  C16      1.0000 0.23290  0.03210  0.24520  Biso   1.000  C
  H5       1.0000 0.22660  0.55350  0.68370  Biso   1.000  H
  H6       1.0000 0.77340  0.05350  0.81630  Biso   1.000  H
  H7       1.0000 0.77340  0.44650  0.31630  Biso   1.000  H
  H8       1.0000 0.22660  0.94650  0.18370  Biso   1.000  H
  C17      1.0000 0.32010  0.19900  0.87710  Biso   1.000  C
  C18      1.0000 0.67990  0.69900  0.62290  Biso   1.000  C
  C19      1.0000 0.67990  0.80100  0.12290  Biso   1.000  C
  C20      1.0000 0.32010  0.30100  0.37710  Biso   1.000  C
  H9       1.0000 0.37540  0.09300  0.90880  Biso   1.000  H
  H10      1.0000 0.62460  0.59300  0.59120  Biso   1.000  H
  H11      1.0000 0.62460  0.90700  0.09120  Biso   1.000  H
  H12      1.0000 0.37540  0.40700  0.40880  Biso   1.000  H
  C21      1.0000 0.24930  0.21960  0.92300  Biso   1.000  C
  C22      1.0000 0.75070  0.71960  0.57700  Biso   1.000  C
  C23      1.0000 0.75070  0.78040  0.07700  Biso   1.000  C
  C24      1.0000 0.24930  0.28040  0.42300  Biso   1.000  C
  H13      1.0000 0.25700  0.12970  0.98410  Biso   1.000  H
  H14      1.0000 0.74300  0.62970  0.51590  Biso   1.000  H
  H15      1.0000 0.74300  0.87030  0.01590  Biso   1.000  H
  H16      1.0000 0.25700  0.37030  0.48410  Biso   1.000  H
  N1       1.0000 0.31480  0.32080  0.78980  Biso   1.000  N
  N2       1.0000 0.68520  0.82080  0.71020  Biso   1.000  N
  N3       1.0000 0.68520  0.67920  0.21020  Biso   1.000  N
  N4       1.0000 0.31480  0.17920  0.28980  Biso   1.000  N
  O1       1.0000 0.01900  0.57080  0.88610  Biso   1.000  O
  O2       1.0000 0.98100  0.07080  0.61390  Biso   1.000  O
  O3       1.0000 0.98100  0.42920  0.11390  Biso   1.000  O
  O4       1.0000 0.01900  0.92920  0.38610  Biso   1.000  O
  H17      1.0000 0.98250  0.62960  0.91780  Biso   1.000  H
  H18      1.0000 0.01750  0.12960  0.58220  Biso   1.000  H
  H19      1.0000 0.01750  0.37040  0.08220  Biso   1.000  H
  H20      1.0000 0.98250  0.87040  0.41780  Biso   1.000  H
  O5       1.0000 0.10490  0.30450  0.01370  Biso   1.000  O
  O6       1.0000 0.89510  0.80450  0.48630  Biso   1.000  O
  O7       1.0000 0.89510  0.69550  0.98630  Biso   1.000  O
  O8       1.0000 0.10490  0.19550  0.51370  Biso   1.000  O
