data_image0
_cell_length_a       13.7862
_cell_length_b       7.081
_cell_length_c       6.1738
_cell_angle_alpha    90
_cell_angle_beta     96.219
_cell_angle_gamma    90

_symmetry_space_group_name_H-M    "P 1"
_symmetry_int_tables_number       1

loop_
  _symmetry_equiv_pos_as_xyz
  'x, y, z'

loop_
  _atom_site_label
  _atom_site_occupancy
  _atom_site_fract_x
  _atom_site_fract_y
  _atom_site_fract_z
  _atom_site_thermal_displace_type
  _atom_site_B_iso_or_equiv
  _atom_site_type_symbol
  Cu1      1.0000 0.06055  0.88256  0.21592  Biso   1.000  Cu
  Cu2      1.0000 0.93945  0.38256  0.28408  Biso   1.000  Cu
  Cu3      1.0000 0.93945  0.11744  0.78408  Biso   1.000  Cu
  Cu4      1.0000 0.06055  0.61744  0.71592  Biso   1.000  Cu
  S1       1.0000 0.92020  0.08371  0.15283  Biso   1.000  S
  S2       1.0000 0.07980  0.58371  0.34717  Biso   1.000  S
  S3       1.0000 0.07980  0.91629  0.84717  Biso   1.000  S
  S4       1.0000 0.92020  0.41629  0.65283  Biso   1.000  S
  N1       1.0000 0.86080  0.91040  0.57220  Biso   1.000  N
  N2       1.0000 0.13920  0.41040  0.92780  Biso   1.000  N
  N3       1.0000 0.13920  0.08960  0.42780  Biso   1.000  N
  N4       1.0000 0.86080  0.58960  0.07220  Biso   1.000  N
  C1       1.0000 0.79930  0.03730  0.21470  Biso   1.000  C
  C2       1.0000 0.20070  0.53730  0.28530  Biso   1.000  C
  C3       1.0000 0.20070  0.96270  0.78530  Biso   1.000  C
  C4       1.0000 0.79930  0.46270  0.71470  Biso   1.000  C
  C5       1.0000 0.71983  0.08670  0.06520  Biso   1.000  C
  C6       1.0000 0.28017  0.58670  0.43480  Biso   1.000  C
  C7       1.0000 0.28017  0.91330  0.93480  Biso   1.000  C
  C8       1.0000 0.71983  0.41330  0.56520  Biso   1.000  C
  H1       1.0000 0.73090  0.14020  0.92890  Biso   1.000  H
  H2       1.0000 0.26910  0.64020  0.57110  Biso   1.000  H
  H3       1.0000 0.26910  0.85980  0.07110  Biso   1.000  H
  H4       1.0000 0.73090  0.35980  0.42890  Biso   1.000  H
  C9       1.0000 0.78162  0.95590  0.41350  Biso   1.000  C
  C10      1.0000 0.21838  0.45590  0.08650  Biso   1.000  C
  C11      1.0000 0.21838  0.04410  0.58650  Biso   1.000  C
  C12      1.0000 0.78162  0.54410  0.91350  Biso   1.000  C
  C13      1.0000 0.68643  0.92440  0.45950  Biso   1.000  C
  C14      1.0000 0.31357  0.42440  0.04050  Biso   1.000  C
  C15      1.0000 0.31357  0.07560  0.54050  Biso   1.000  C
  C16      1.0000 0.68643  0.57560  0.95950  Biso   1.000  C
  H5       1.0000 0.67480  0.86720  0.59350  Biso   1.000  H
  H6       1.0000 0.32520  0.36720  0.90650  Biso   1.000  H
  H7       1.0000 0.32520  0.13280  0.40650  Biso   1.000  H
  H8       1.0000 0.67480  0.63280  0.09350  Biso   1.000  H
  C17      1.0000 0.62506  0.05860  0.11370  Biso   1.000  C
  C18      1.0000 0.37494  0.55860  0.38630  Biso   1.000  C
  C19      1.0000 0.37494  0.94140  0.88630  Biso   1.000  C
  C20      1.0000 0.62506  0.44140  0.61370  Biso   1.000  C
  H9       1.0000 0.57170  0.09570  0.01230  Biso   1.000  H
  H10      1.0000 0.42830  0.59570  0.48770  Biso   1.000  H
  H11      1.0000 0.42830  0.90430  0.98770  Biso   1.000  H
  H12      1.0000 0.57170  0.40430  0.51230  Biso   1.000  H
  C21      1.0000 0.60801  0.97630  0.30980  Biso   1.000  C
  C22      1.0000 0.39199  0.47630  0.19020  Biso   1.000  C
  C23      1.0000 0.39199  0.02370  0.69020  Biso   1.000  C
  C24      1.0000 0.60801  0.52370  0.80980  Biso   1.000  C
  H13      1.0000 0.54300  0.95540  0.34210  Biso   1.000  H
  H14      1.0000 0.45700  0.45540  0.15790  Biso   1.000  H
  H15      1.0000 0.45700  0.04460  0.65790  Biso   1.000  H
  H16      1.0000 0.54300  0.54460  0.84210  Biso   1.000  H
  H17      1.0000 0.84360  0.82700  0.65600  Biso   1.000  H
  H18      1.0000 0.15640  0.32700  0.84400  Biso   1.000  H
  H19      1.0000 0.15640  0.17300  0.34400  Biso   1.000  H
  H20      1.0000 0.84360  0.67300  0.15600  Biso   1.000  H
  H21      1.0000 0.91070  0.87100  0.51800  Biso   1.000  H
  H22      1.0000 0.08930  0.37100  0.98200  Biso   1.000  H
  H23      1.0000 0.08930  0.12900  0.48200  Biso   1.000  H
  H24      1.0000 0.91070  0.62900  0.01800  Biso   1.000  H
