data_image0
_cell_length_a       8.9148
_cell_length_b       7.9057
_cell_length_c       17.246
_cell_angle_alpha    90
_cell_angle_beta     104.41
_cell_angle_gamma    90

_symmetry_space_group_name_H-M    "P 1"
_symmetry_int_tables_number       1

loop_
  _symmetry_equiv_pos_as_xyz
  'x, y, z'

loop_
  _atom_site_label
  _atom_site_occupancy
  _atom_site_fract_x
  _atom_site_fract_y
  _atom_site_fract_z
  _atom_site_thermal_displace_type
  _atom_site_B_iso_or_equiv
  _atom_site_type_symbol
  Cu1      1.0000 0.44725  0.03345  0.06216  Biso   1.000  Cu
  Cu2      1.0000 0.55275  0.53345  0.43784  Biso   1.000  Cu
  Cu3      1.0000 0.55275  0.96655  0.93784  Biso   1.000  Cu
  Cu4      1.0000 0.44725  0.46655  0.56216  Biso   1.000  Cu
  Cu5      1.0000 0.97524  0.79219  0.12339  Biso   1.000  Cu
  Cu6      1.0000 0.02476  0.29219  0.37661  Biso   1.000  Cu
  Cu7      1.0000 0.02476  0.20781  0.87661  Biso   1.000  Cu
  Cu8      1.0000 0.97524  0.70781  0.62339  Biso   1.000  Cu
  C1       1.0000 0.37090  0.29240  0.17338  Biso   1.000  C
  C2       1.0000 0.62910  0.79240  0.32662  Biso   1.000  C
  C3       1.0000 0.62910  0.70760  0.82662  Biso   1.000  C
  C4       1.0000 0.37090  0.20760  0.67338  Biso   1.000  C
  H1       1.0000 0.32050  0.20770  0.19460  Biso   1.000  H
  H2       1.0000 0.67950  0.70770  0.30540  Biso   1.000  H
  H3       1.0000 0.67950  0.79230  0.80540  Biso   1.000  H
  H4       1.0000 0.32050  0.29230  0.69460  Biso   1.000  H
  C5       1.0000 0.39390  0.45380  0.20410  Biso   1.000  C
  C6       1.0000 0.60610  0.95380  0.29590  Biso   1.000  C
  C7       1.0000 0.60610  0.54620  0.79590  Biso   1.000  C
  C8       1.0000 0.39390  0.04620  0.70410  Biso   1.000  C
  H5       1.0000 0.36480  0.49760  0.24820  Biso   1.000  H
  H6       1.0000 0.63520  0.99760  0.25180  Biso   1.000  H
  H7       1.0000 0.63520  0.50240  0.75180  Biso   1.000  H
  H8       1.0000 0.36480  0.00240  0.74820  Biso   1.000  H
  C9       1.0000 0.46900  0.53470  0.15490  Biso   1.000  C
  C10      1.0000 0.53100  0.03470  0.34510  Biso   1.000  C
  C11      1.0000 0.53100  0.46530  0.84510  Biso   1.000  C
  C12      1.0000 0.46900  0.96530  0.65490  Biso   1.000  C
  H9       1.0000 0.49990  0.64750  0.15890  Biso   1.000  H
  H10      1.0000 0.50010  0.14750  0.34110  Biso   1.000  H
  H11      1.0000 0.50010  0.35250  0.84110  Biso   1.000  H
  H12      1.0000 0.49990  0.85250  0.65890  Biso   1.000  H
  C13      1.0000 0.55860  0.45640  0.03358  Biso   1.000  C
  C14      1.0000 0.44140  0.95640  0.46642  Biso   1.000  C
  C15      1.0000 0.44140  0.54360  0.96642  Biso   1.000  C
  C16      1.0000 0.55860  0.04360  0.53358  Biso   1.000  C
  H13      1.0000 0.59040  0.35030  0.01440  Biso   1.000  H
  H14      1.0000 0.40960  0.85030  0.48560  Biso   1.000  H
  H15      1.0000 0.40960  0.64970  0.98560  Biso   1.000  H
  H16      1.0000 0.59040  0.14970  0.51440  Biso   1.000  H
  H17      1.0000 0.64950  0.52730  0.05100  Biso   1.000  H
  H18      1.0000 0.35050  0.02730  0.44900  Biso   1.000  H
  H19      1.0000 0.35050  0.47270  0.94900  Biso   1.000  H
  H20      1.0000 0.64950  0.97270  0.55100  Biso   1.000  H
  N1       1.0000 0.42860  0.27150  0.11025  Biso   1.000  N
  N2       1.0000 0.57140  0.77150  0.38975  Biso   1.000  N
  N3       1.0000 0.57140  0.72850  0.88975  Biso   1.000  N
  N4       1.0000 0.42860  0.22850  0.61025  Biso   1.000  N
  N5       1.0000 0.49070  0.42470  0.10026  Biso   1.000  N
  N6       1.0000 0.50930  0.92470  0.39974  Biso   1.000  N
  N7       1.0000 0.50930  0.57530  0.89974  Biso   1.000  N
  N8       1.0000 0.49070  0.07530  0.60026  Biso   1.000  N
  C17      1.0000 0.15620  0.87940  0.10210  Biso   1.000  C
  C18      1.0000 0.84380  0.37940  0.39790  Biso   1.000  C
  C19      1.0000 0.84380  0.12060  0.89790  Biso   1.000  C
  C20      1.0000 0.15620  0.62060  0.60210  Biso   1.000  C
  N9       1.0000 0.26420  0.93000  0.08601  Biso   1.000  N
  N10      1.0000 0.73580  0.43000  0.41399  Biso   1.000  N
  N11      1.0000 0.73580  0.07000  0.91399  Biso   1.000  N
  N12      1.0000 0.26420  0.57000  0.58601  Biso   1.000  N
  C21      1.0000 0.64730  0.93180  0.08140  Biso   1.000  C
  C22      1.0000 0.35270  0.43180  0.41860  Biso   1.000  C
  C23      1.0000 0.35270  0.06820  0.91860  Biso   1.000  C
  C24      1.0000 0.64730  0.56820  0.58140  Biso   1.000  C
  N13      1.0000 0.76810  0.87650  0.10610  Biso   1.000  N
  N14      1.0000 0.23190  0.37650  0.39390  Biso   1.000  N
  N15      1.0000 0.23190  0.12350  0.89390  Biso   1.000  N
  N16      1.0000 0.76810  0.62350  0.60610  Biso   1.000  N
  C25      1.0000 0.88680  0.46400  0.19720  Biso   1.000  C
  C26      1.0000 0.11320  0.96400  0.30280  Biso   1.000  C
  C27      1.0000 0.11320  0.53600  0.80280  Biso   1.000  C
  C28      1.0000 0.88680  0.03600  0.69720  Biso   1.000  C
  H21      1.0000 0.85240  0.51810  0.23740  Biso   1.000  H
  H22      1.0000 0.14760  0.01810  0.26260  Biso   1.000  H
  H23      1.0000 0.14760  0.48190  0.76260  Biso   1.000  H
  H24      1.0000 0.85240  0.98190  0.73740  Biso   1.000  H
  C29      1.0000 0.87450  0.29200  0.18230  Biso   1.000  C
  C30      1.0000 0.12550  0.79200  0.31770  Biso   1.000  C
  C31      1.0000 0.12550  0.70800  0.81770  Biso   1.000  C
  C32      1.0000 0.87450  0.20800  0.68230  Biso   1.000  C
  H25      1.0000 0.83250  0.21080  0.20980  Biso   1.000  H
  H26      1.0000 0.16750  0.71080  0.29020  Biso   1.000  H
  H27      1.0000 0.16750  0.78920  0.79020  Biso   1.000  H
  H28      1.0000 0.83250  0.28920  0.70980  Biso   1.000  H
  C33      1.0000 0.93700  0.26710  0.11890  Biso   1.000  C
  C34      1.0000 0.06300  0.76710  0.38110  Biso   1.000  C
  C35      1.0000 0.06300  0.73290  0.88110  Biso   1.000  C
  C36      1.0000 0.93700  0.23290  0.61890  Biso   1.000  C
  H29      1.0000 0.94480  0.16430  0.09390  Biso   1.000  H
  H30      1.0000 0.05520  0.66430  0.40610  Biso   1.000  H
  H31      1.0000 0.05520  0.83570  0.90610  Biso   1.000  H
  H32      1.0000 0.94480  0.33570  0.59390  Biso   1.000  H
  C37      1.0000 0.05650  0.45850  0.03468  Biso   1.000  C
  C38      1.0000 0.94350  0.95850  0.46532  Biso   1.000  C
  C39      1.0000 0.94350  0.54150  0.96532  Biso   1.000  C
  C40      1.0000 0.05650  0.04150  0.53468  Biso   1.000  C
  H33      1.0000 0.09600  0.35570  0.01630  Biso   1.000  H
  H34      1.0000 0.90400  0.85570  0.48370  Biso   1.000  H
  H35      1.0000 0.90400  0.64430  0.98370  Biso   1.000  H
  H36      1.0000 0.09600  0.14430  0.51630  Biso   1.000  H
  H37      1.0000 0.14350  0.53390  0.05450  Biso   1.000  H
  H38      1.0000 0.85650  0.03390  0.44550  Biso   1.000  H
  H39      1.0000 0.85650  0.46610  0.94550  Biso   1.000  H
  H40      1.0000 0.14350  0.96610  0.55450  Biso   1.000  H
  N17      1.0000 0.95430  0.54200  0.14628  Biso   1.000  N
  N18      1.0000 0.04570  0.04200  0.35372  Biso   1.000  N
  N19      1.0000 0.04570  0.45800  0.85372  Biso   1.000  N
  N20      1.0000 0.95430  0.95800  0.64628  Biso   1.000  N
  N21      1.0000 0.98550  0.41820  0.09877  Biso   1.000  N
  N22      1.0000 0.01450  0.91820  0.40123  Biso   1.000  N
  N23      1.0000 0.01450  0.58180  0.90123  Biso   1.000  N
  N24      1.0000 0.98550  0.08180  0.59877  Biso   1.000  N
