data_image0
_cell_length_a       17.897
_cell_length_b       4.1251
_cell_length_c       15.379
_cell_angle_alpha    90
_cell_angle_beta     95.766
_cell_angle_gamma    90

_symmetry_space_group_name_H-M    "P 1"
_symmetry_int_tables_number       1

loop_
  _symmetry_equiv_pos_as_xyz
  'x, y, z'

loop_
  _atom_site_label
  _atom_site_occupancy
  _atom_site_fract_x
  _atom_site_fract_y
  _atom_site_fract_z
  _atom_site_thermal_displace_type
  _atom_site_B_iso_or_equiv
  _atom_site_type_symbol
  Cu1      1.0000 0.61506  0.21257  0.94592  Biso   1.000  Cu
  Cu2      1.0000 0.38494  0.21257  0.55408  Biso   1.000  Cu
  Cu3      1.0000 0.11506  0.71257  0.94592  Biso   1.000  Cu
  Cu4      1.0000 0.88494  0.71257  0.55408  Biso   1.000  Cu
  Cu5      1.0000 0.38494  0.78743  0.05408  Biso   1.000  Cu
  Cu6      1.0000 0.61506  0.78743  0.44592  Biso   1.000  Cu
  Cu7      1.0000 0.88494  0.28743  0.05408  Biso   1.000  Cu
  Cu8      1.0000 0.11506  0.28743  0.44592  Biso   1.000  Cu
  N1       1.0000 0.52663  0.04920  0.98574  Biso   1.000  N
  N2       1.0000 0.47337  0.04920  0.51426  Biso   1.000  N
  N3       1.0000 0.02663  0.54920  0.98574  Biso   1.000  N
  N4       1.0000 0.97337  0.54920  0.51426  Biso   1.000  N
  N5       1.0000 0.47337  0.95080  0.01426  Biso   1.000  N
  N6       1.0000 0.52663  0.95080  0.48574  Biso   1.000  N
  N7       1.0000 0.97337  0.45080  0.01426  Biso   1.000  N
  N8       1.0000 0.02663  0.45080  0.48574  Biso   1.000  N
  N9       1.0000 0.71848  0.24350  0.98836  Biso   1.000  N
  N10      1.0000 0.28152  0.24350  0.51164  Biso   1.000  N
  N11      1.0000 0.21848  0.74350  0.98836  Biso   1.000  N
  N12      1.0000 0.78152  0.74350  0.51164  Biso   1.000  N
  N13      1.0000 0.28152  0.75650  0.01164  Biso   1.000  N
  N14      1.0000 0.71848  0.75650  0.48836  Biso   1.000  N
  N15      1.0000 0.78152  0.25650  0.01164  Biso   1.000  N
  N16      1.0000 0.21848  0.25650  0.48836  Biso   1.000  N
  N17      1.0000 0.61017  0.42090  0.82180  Biso   1.000  N
  N18      1.0000 0.38983  0.42090  0.67820  Biso   1.000  N
  N19      1.0000 0.11017  0.92090  0.82180  Biso   1.000  N
  N20      1.0000 0.88983  0.92090  0.67820  Biso   1.000  N
  N21      1.0000 0.38983  0.57910  0.17820  Biso   1.000  N
  N22      1.0000 0.61017  0.57910  0.32180  Biso   1.000  N
  N23      1.0000 0.88983  0.07910  0.17820  Biso   1.000  N
  N24      1.0000 0.11017  0.07910  0.32180  Biso   1.000  N
  N25      1.0000 0.56716  0.33870  0.74725  Biso   1.000  N
  N26      1.0000 0.43284  0.33870  0.75275  Biso   1.000  N
  N27      1.0000 0.06716  0.83870  0.74725  Biso   1.000  N
  N28      1.0000 0.93284  0.83870  0.75275  Biso   1.000  N
  N29      1.0000 0.43284  0.66130  0.25275  Biso   1.000  N
  N30      1.0000 0.56716  0.66130  0.24725  Biso   1.000  N
  N31      1.0000 0.93284  0.16130  0.25275  Biso   1.000  N
  N32      1.0000 0.06716  0.16130  0.24725  Biso   1.000  N
  C1       1.0000 0.66437  0.60480  0.79528  Biso   1.000  C
  C2       1.0000 0.33563  0.60480  0.70472  Biso   1.000  C
  C3       1.0000 0.16437  0.10480  0.79528  Biso   1.000  C
  C4       1.0000 0.83563  0.10480  0.70472  Biso   1.000  C
  C5       1.0000 0.33563  0.39520  0.20472  Biso   1.000  C
  C6       1.0000 0.66437  0.39520  0.29528  Biso   1.000  C
  C7       1.0000 0.83563  0.89520  0.20472  Biso   1.000  C
  C8       1.0000 0.16437  0.89520  0.29528  Biso   1.000  C
  H1       1.0000 0.70240  0.69910  0.83260  Biso   1.000  H
  H2       1.0000 0.29760  0.69910  0.66740  Biso   1.000  H
  H3       1.0000 0.20240  0.19910  0.83260  Biso   1.000  H
  H4       1.0000 0.79760  0.19910  0.66740  Biso   1.000  H
  H5       1.0000 0.29760  0.30090  0.16740  Biso   1.000  H
  H6       1.0000 0.70240  0.30090  0.33260  Biso   1.000  H
  H7       1.0000 0.79760  0.80090  0.16740  Biso   1.000  H
  H8       1.0000 0.20240  0.80090  0.33260  Biso   1.000  H
  C9       1.0000 0.65740  0.63920  0.70500  Biso   1.000  C
  C10      1.0000 0.34260  0.63920  0.79500  Biso   1.000  C
  C11      1.0000 0.15740  0.13920  0.70500  Biso   1.000  C
  C12      1.0000 0.84260  0.13920  0.79500  Biso   1.000  C
  C13      1.0000 0.34260  0.36080  0.29500  Biso   1.000  C
  C14      1.0000 0.65740  0.36080  0.20500  Biso   1.000  C
  C15      1.0000 0.84260  0.86080  0.29500  Biso   1.000  C
  C16      1.0000 0.15740  0.86080  0.20500  Biso   1.000  C
  H9       1.0000 0.68870  0.75480  0.67150  Biso   1.000  H
  H10      1.0000 0.31130  0.75480  0.82850  Biso   1.000  H
  H11      1.0000 0.18870  0.25480  0.67150  Biso   1.000  H
  H12      1.0000 0.81130  0.25480  0.82850  Biso   1.000  H
  H13      1.0000 0.31130  0.24520  0.32850  Biso   1.000  H
  H14      1.0000 0.68870  0.24520  0.17150  Biso   1.000  H
  H15      1.0000 0.81130  0.74520  0.32850  Biso   1.000  H
  H16      1.0000 0.18870  0.74520  0.17150  Biso   1.000  H
  C17      1.0000 0.59478  0.46690  0.67602  Biso   1.000  C
  C18      1.0000 0.40522  0.46690  0.82398  Biso   1.000  C
  C19      1.0000 0.09478  0.96690  0.67602  Biso   1.000  C
  C20      1.0000 0.90522  0.96690  0.82398  Biso   1.000  C
  C21      1.0000 0.40522  0.53310  0.32398  Biso   1.000  C
  C22      1.0000 0.59478  0.53310  0.17602  Biso   1.000  C
  C23      1.0000 0.90522  0.03310  0.32398  Biso   1.000  C
  C24      1.0000 0.09478  0.03310  0.17602  Biso   1.000  C
  H17      1.0000 0.57480  0.44210  0.61820  Biso   1.000  H
  H18      1.0000 0.42520  0.44210  0.88180  Biso   1.000  H
  H19      1.0000 0.07480  0.94210  0.61820  Biso   1.000  H
  H20      1.0000 0.92520  0.94210  0.88180  Biso   1.000  H
  H21      1.0000 0.42520  0.55790  0.38180  Biso   1.000  H
  H22      1.0000 0.57480  0.55790  0.11820  Biso   1.000  H
  H23      1.0000 0.92520  0.05790  0.38180  Biso   1.000  H
  H24      1.0000 0.07480  0.05790  0.11820  Biso   1.000  H
  C25      1.0000 0.50000  0.14190  0.75000  Biso   1.000  C
  C26      1.0000 0.00000  0.64190  0.75000  Biso   1.000  C
  C27      1.0000 0.50000  0.85810  0.25000  Biso   1.000  C
  C28      1.0000 0.00000  0.35810  0.25000  Biso   1.000  C
  H25      1.0000 0.49200  0.00900  0.69870  Biso   1.000  H
  H26      1.0000 0.50800  0.00900  0.80130  Biso   1.000  H
  H27      1.0000 0.99200  0.50900  0.69870  Biso   1.000  H
  H28      1.0000 0.00800  0.50900  0.80130  Biso   1.000  H
  H29      1.0000 0.50800  0.99100  0.30130  Biso   1.000  H
  H30      1.0000 0.49200  0.99100  0.19870  Biso   1.000  H
  H31      1.0000 0.00800  0.49100  0.30130  Biso   1.000  H
  H32      1.0000 0.99200  0.49100  0.19870  Biso   1.000  H
