data_image0
_cell_length_a       13.675
_cell_length_b       7.0096
_cell_length_c       14.084
_cell_angle_alpha    90
_cell_angle_beta     107.502
_cell_angle_gamma    90

_symmetry_space_group_name_H-M    "P 1"
_symmetry_int_tables_number       1

loop_
  _symmetry_equiv_pos_as_xyz
  'x, y, z'

loop_
  _atom_site_label
  _atom_site_occupancy
  _atom_site_fract_x
  _atom_site_fract_y
  _atom_site_fract_z
  _atom_site_thermal_displace_type
  _atom_site_B_iso_or_equiv
  _atom_site_type_symbol
  Cu1      1.0000 0.96895  0.34671  0.45583  Biso   1.000  Cu
  Cu2      1.0000 0.53105  0.84671  0.04417  Biso   1.000  Cu
  Cu3      1.0000 0.03105  0.65329  0.54417  Biso   1.000  Cu
  Cu4      1.0000 0.46895  0.15329  0.95583  Biso   1.000  Cu
  Cu5      1.0000 0.68535  0.52861  0.58253  Biso   1.000  Cu
  Cu6      1.0000 0.81465  0.02861  0.91747  Biso   1.000  Cu
  Cu7      1.0000 0.31465  0.47139  0.41747  Biso   1.000  Cu
  Cu8      1.0000 0.18535  0.97139  0.08253  Biso   1.000  Cu
  N1       1.0000 0.80820  0.52550  0.54270  Biso   1.000  N
  N2       1.0000 0.69180  0.02550  0.95730  Biso   1.000  N
  N3       1.0000 0.19180  0.47450  0.45730  Biso   1.000  N
  N4       1.0000 0.30820  0.97450  0.04270  Biso   1.000  N
  N5       1.0000 0.99270  0.07970  0.49060  Biso   1.000  N
  N6       1.0000 0.50730  0.57970  0.00940  Biso   1.000  N
  N7       1.0000 0.00730  0.92030  0.50940  Biso   1.000  N
  N8       1.0000 0.49270  0.42030  0.99060  Biso   1.000  N
  N9       1.0000 0.54360  0.50980  0.51730  Biso   1.000  N
  N10      1.0000 0.95640  0.00980  0.98270  Biso   1.000  N
  N11      1.0000 0.45640  0.49020  0.48270  Biso   1.000  N
  N12      1.0000 0.04360  0.99020  0.01730  Biso   1.000  N
  N13      1.0000 0.23580  0.95580  0.23400  Biso   1.000  N
  N14      1.0000 0.26420  0.45580  0.26600  Biso   1.000  N
  N15      1.0000 0.76420  0.04420  0.76600  Biso   1.000  N
  N16      1.0000 0.73580  0.54420  0.73400  Biso   1.000  N
  N17      1.0000 0.18220  0.92130  0.29900  Biso   1.000  N
  N18      1.0000 0.31780  0.42130  0.20100  Biso   1.000  N
  N19      1.0000 0.81780  0.07870  0.70100  Biso   1.000  N
  N20      1.0000 0.68220  0.57870  0.79900  Biso   1.000  N
  N21      1.0000 0.87130  0.30280  0.22430  Biso   1.000  N
  N22      1.0000 0.62870  0.80280  0.27570  Biso   1.000  N
  N23      1.0000 0.12870  0.69720  0.77570  Biso   1.000  N
  N24      1.0000 0.37130  0.19720  0.72430  Biso   1.000  N
  N25      1.0000 0.89290  0.41420  0.30680  Biso   1.000  N
  N26      1.0000 0.60710  0.91420  0.19320  Biso   1.000  N
  N27      1.0000 0.10710  0.58580  0.69320  Biso   1.000  N
  N28      1.0000 0.39290  0.08580  0.80680  Biso   1.000  N
  C1       1.0000 0.88270  0.50700  0.52420  Biso   1.000  C
  C2       1.0000 0.61730  0.00700  0.97580  Biso   1.000  C
  C3       1.0000 0.11730  0.49300  0.47580  Biso   1.000  C
  C4       1.0000 0.38270  0.99300  0.02420  Biso   1.000  C
  C5       1.0000 0.33260  0.97960  0.29090  Biso   1.000  C
  C6       1.0000 0.16740  0.47960  0.20910  Biso   1.000  C
  C7       1.0000 0.66740  0.02040  0.70910  Biso   1.000  C
  C8       1.0000 0.83260  0.52040  0.79090  Biso   1.000  C
  H1       1.0000 0.38740  0.00510  0.26660  Biso   1.000  H
  H2       1.0000 0.11260  0.50510  0.23340  Biso   1.000  H
  H3       1.0000 0.61260  0.99490  0.73340  Biso   1.000  H
  H4       1.0000 0.88740  0.49490  0.76660  Biso   1.000  H
  C9       1.0000 0.34060  0.96130  0.39110  Biso   1.000  C
  C10      1.0000 0.15940  0.46130  0.10890  Biso   1.000  C
  C11      1.0000 0.65940  0.03870  0.60890  Biso   1.000  C
  C12      1.0000 0.84060  0.53870  0.89110  Biso   1.000  C
  H5       1.0000 0.39960  0.97160  0.44510  Biso   1.000  H
  H6       1.0000 0.10040  0.47160  0.05490  Biso   1.000  H
  H7       1.0000 0.60040  0.02840  0.55490  Biso   1.000  H
  H8       1.0000 0.89960  0.52840  0.94510  Biso   1.000  H
  C13      1.0000 0.24330  0.92510  0.39340  Biso   1.000  C
  C14      1.0000 0.25670  0.42510  0.10660  Biso   1.000  C
  C15      1.0000 0.75670  0.07490  0.60660  Biso   1.000  C
  C16      1.0000 0.74330  0.57490  0.89340  Biso   1.000  C
  H9       1.0000 0.22300  0.90640  0.45010  Biso   1.000  H
  H10      1.0000 0.27700  0.40640  0.04990  Biso   1.000  H
  H11      1.0000 0.77700  0.09360  0.54990  Biso   1.000  H
  H12      1.0000 0.72300  0.59360  0.95010  Biso   1.000  H
  C17      1.0000 0.07090  0.90980  0.26560  Biso   1.000  C
  C18      1.0000 0.42910  0.40980  0.23440  Biso   1.000  C
  C19      1.0000 0.92910  0.09020  0.73440  Biso   1.000  C
  C20      1.0000 0.57090  0.59020  0.76560  Biso   1.000  C
  H13      1.0000 0.04850  0.84100  0.20300  Biso   1.000  H
  H14      1.0000 0.45150  0.34100  0.29700  Biso   1.000  H
  H15      1.0000 0.95150  0.15900  0.79700  Biso   1.000  H
  H16      1.0000 0.54850  0.65900  0.70300  Biso   1.000  H
  H17      1.0000 0.04740  0.84040  0.31420  Biso   1.000  H
  H18      1.0000 0.45260  0.34040  0.18580  Biso   1.000  H
  H19      1.0000 0.95260  0.15960  0.68580  Biso   1.000  H
  H20      1.0000 0.54740  0.65960  0.81420  Biso   1.000  H
  C21      1.0000 0.02490  0.10770  0.25200  Biso   1.000  C
  C22      1.0000 0.47510  0.60770  0.24800  Biso   1.000  C
  C23      1.0000 0.97510  0.89230  0.74800  Biso   1.000  C
  C24      1.0000 0.52490  0.39230  0.75200  Biso   1.000  C
  H21      1.0000 0.05570  0.18150  0.31180  Biso   1.000  H
  H22      1.0000 0.44430  0.68150  0.18820  Biso   1.000  H
  H23      1.0000 0.94430  0.81850  0.68820  Biso   1.000  H
  H24      1.0000 0.55570  0.31850  0.81180  Biso   1.000  H
  H25      1.0000 0.04160  0.17000  0.19740  Biso   1.000  H
  H26      1.0000 0.45840  0.67000  0.30260  Biso   1.000  H
  H27      1.0000 0.95840  0.83000  0.80260  Biso   1.000  H
  H28      1.0000 0.54160  0.33000  0.69740  Biso   1.000  H
  C25      1.0000 0.90910  0.10750  0.23090  Biso   1.000  C
  C26      1.0000 0.59090  0.60750  0.26910  Biso   1.000  C
  C27      1.0000 0.09090  0.89250  0.76910  Biso   1.000  C
  C28      1.0000 0.40910  0.39250  0.73090  Biso   1.000  C
  H29      1.0000 0.89130  0.04070  0.28370  Biso   1.000  H
  H30      1.0000 0.60870  0.54070  0.21630  Biso   1.000  H
  H31      1.0000 0.10870  0.95930  0.71630  Biso   1.000  H
  H32      1.0000 0.39130  0.45930  0.78370  Biso   1.000  H
  H33      1.0000 0.87720  0.04140  0.16880  Biso   1.000  H
  H34      1.0000 0.62280  0.54140  0.33120  Biso   1.000  H
  H35      1.0000 0.12280  0.95860  0.83120  Biso   1.000  H
  H36      1.0000 0.37720  0.45860  0.66880  Biso   1.000  H
  C29      1.0000 0.82100  0.40140  0.14330  Biso   1.000  C
  C30      1.0000 0.67900  0.90140  0.35670  Biso   1.000  C
  C31      1.0000 0.17900  0.59860  0.85670  Biso   1.000  C
  C32      1.0000 0.32100  0.09860  0.64330  Biso   1.000  C
  H37      1.0000 0.79810  0.35410  0.07860  Biso   1.000  H
  H38      1.0000 0.70190  0.85410  0.42140  Biso   1.000  H
  H39      1.0000 0.20190  0.64590  0.92140  Biso   1.000  H
  H40      1.0000 0.29810  0.14590  0.57860  Biso   1.000  H
  C33      1.0000 0.80920  0.58320  0.17170  Biso   1.000  C
  C34      1.0000 0.69080  0.08320  0.32830  Biso   1.000  C
  C35      1.0000 0.19080  0.41680  0.82830  Biso   1.000  C
  C36      1.0000 0.30920  0.91680  0.67170  Biso   1.000  C
  H41      1.0000 0.77750  0.68440  0.13140  Biso   1.000  H
  H42      1.0000 0.72250  0.18440  0.36860  Biso   1.000  H
  H43      1.0000 0.22250  0.31560  0.86860  Biso   1.000  H
  H44      1.0000 0.27750  0.81560  0.63140  Biso   1.000  H
  C37      1.0000 0.85470  0.58410  0.27420  Biso   1.000  C
  C38      1.0000 0.64530  0.08410  0.22580  Biso   1.000  C
  C39      1.0000 0.14530  0.41590  0.72580  Biso   1.000  C
  C40      1.0000 0.35470  0.91590  0.77420  Biso   1.000  C
  H45      1.0000 0.85810  0.69020  0.31460  Biso   1.000  H
  H46      1.0000 0.64190  0.19020  0.18540  Biso   1.000  H
  H47      1.0000 0.14190  0.30980  0.68540  Biso   1.000  H
  H48      1.0000 0.35810  0.80980  0.81460  Biso   1.000  H
