data_image0
_cell_length_a       8.1924
_cell_length_b       8.312
_cell_length_c       8.9434
_cell_angle_alpha    85.22
_cell_angle_beta     86.68
_cell_angle_gamma    77.72

_symmetry_space_group_name_H-M    "P 1"
_symmetry_int_tables_number       1

loop_
  _symmetry_equiv_pos_as_xyz
  'x, y, z'

loop_
  _atom_site_label
  _atom_site_occupancy
  _atom_site_fract_x
  _atom_site_fract_y
  _atom_site_fract_z
  _atom_site_thermal_displace_type
  _atom_site_B_iso_or_equiv
  _atom_site_type_symbol
  Cu1      1.0000 0.12102  0.39967  0.25133  Biso   1.000  Cu
  Cu2      1.0000 0.87898  0.60033  0.74867  Biso   1.000  Cu
  N1       1.0000 0.03010  0.48000  0.44350  Biso   1.000  N
  N2       1.0000 0.96990  0.52000  0.55650  Biso   1.000  N
  N3       1.0000 0.02730  0.47410  0.05780  Biso   1.000  N
  N4       1.0000 0.97270  0.52590  0.94220  Biso   1.000  N
  N5       1.0000 0.14490  0.13440  0.27790  Biso   1.000  N
  N6       1.0000 0.85510  0.86560  0.72210  Biso   1.000  N
  N7       1.0000 0.18980  0.02920  0.39950  Biso   1.000  N
  N8       1.0000 0.81020  0.97080  0.60050  Biso   1.000  N
  C1       1.0000 0.09330  0.04440  0.18150  Biso   1.000  C
  C2       1.0000 0.90670  0.95560  0.81850  Biso   1.000  C
  H1       1.0000 0.05520  0.08450  0.08680  Biso   1.000  H
  H2       1.0000 0.94480  0.91550  0.91320  Biso   1.000  H
  C3       1.0000 0.16490  0.87880  0.37890  Biso   1.000  C
  C4       1.0000 0.83510  0.12120  0.62110  Biso   1.000  C
  H3       1.0000 0.18590  0.78730  0.44770  Biso   1.000  H
  H4       1.0000 0.81410  0.21270  0.55230  Biso   1.000  H
  C5       1.0000 0.10380  0.88260  0.24040  Biso   1.000  C
  C6       1.0000 0.89620  0.11740  0.75960  Biso   1.000  C
  H5       1.0000 0.07520  0.79620  0.19510  Biso   1.000  H
  H6       1.0000 0.92480  0.20380  0.80490  Biso   1.000  H
  C7       1.0000 0.44370  0.08440  0.50580  Biso   1.000  C
  C8       1.0000 0.55630  0.91560  0.49420  Biso   1.000  C
  H7       1.0000 0.47790  0.13550  0.58900  Biso   1.000  H
  H8       1.0000 0.52210  0.86450  0.41100  Biso   1.000  H
  H9       1.0000 0.45980  0.15230  0.41490  Biso   1.000  H
  H10      1.0000 0.54020  0.84770  0.58510  Biso   1.000  H
  C9       1.0000 0.25940  0.08310  0.52840  Biso   1.000  C
  C10      1.0000 0.74060  0.91690  0.47160  Biso   1.000  C
  H11      1.0000 0.24330  0.01020  0.61600  Biso   1.000  H
  H12      1.0000 0.75670  0.98980  0.38400  Biso   1.000  H
  H13      1.0000 0.19870  0.19340  0.54800  Biso   1.000  H
  H14      1.0000 0.80130  0.80660  0.45200  Biso   1.000  H
  N9       1.0000 0.38100  0.40910  0.22790  Biso   1.000  N
  N10      1.0000 0.61900  0.59090  0.77210  Biso   1.000  N
  N11      1.0000 0.50030  0.33550  0.13150  Biso   1.000  N
  N12      1.0000 0.49970  0.66450  0.86850  Biso   1.000  N
  C11      1.0000 0.45970  0.48490  0.31710  Biso   1.000  C
  C12      1.0000 0.54030  0.51510  0.68290  Biso   1.000  C
  H15      1.0000 0.40790  0.54670  0.39520  Biso   1.000  H
  H16      1.0000 0.59210  0.45330  0.60480  Biso   1.000  H
  C13      1.0000 0.65070  0.36480  0.16000  Biso   1.000  C
  C14      1.0000 0.34930  0.63520  0.84000  Biso   1.000  C
  H17      1.0000 0.75090  0.32640  0.10760  Biso   1.000  H
  H18      1.0000 0.24910  0.67360  0.89240  Biso   1.000  H
  C15      1.0000 0.63040  0.45970  0.27830  Biso   1.000  C
  C16      1.0000 0.36960  0.54030  0.72170  Biso   1.000  C
  H19      1.0000 0.71180  0.49930  0.32360  Biso   1.000  H
  H20      1.0000 0.28820  0.50070  0.67640  Biso   1.000  H
  C17      1.0000 0.46380  0.23450  0.01810  Biso   1.000  C
  C18      1.0000 0.53620  0.76550  0.98190  Biso   1.000  C
  H21      1.0000 0.52050  0.26100  0.92390  Biso   1.000  H
  H22      1.0000 0.47950  0.73900  0.07610  Biso   1.000  H
  H23      1.0000 0.34460  0.26050  0.00280  Biso   1.000  H
  H24      1.0000 0.65540  0.73950  0.99720  Biso   1.000  H
  C19      1.0000 0.51820  0.05170  0.06150  Biso   1.000  C
  C20      1.0000 0.48180  0.94830  0.93850  Biso   1.000  C
  H25      1.0000 0.45940  0.02410  0.15430  Biso   1.000  H
  H26      1.0000 0.54060  0.97590  0.84570  Biso   1.000  H
  H27      1.0000 0.63700  0.02550  0.07880  Biso   1.000  H
  H28      1.0000 0.36300  0.97450  0.92120  Biso   1.000  H
