data_image0
_cell_length_a       14.8153
_cell_length_b       17.727
_cell_length_c       26.627
_cell_angle_alpha    90
_cell_angle_beta     90
_cell_angle_gamma    90

_symmetry_space_group_name_H-M    "P 1"
_symmetry_int_tables_number       1

loop_
  _symmetry_equiv_pos_as_xyz
  'x, y, z'

loop_
  _atom_site_label
  _atom_site_occupancy
  _atom_site_fract_x
  _atom_site_fract_y
  _atom_site_fract_z
  _atom_site_thermal_displace_type
  _atom_site_B_iso_or_equiv
  _atom_site_type_symbol
  I1       1.0000 0.22576  0.25000  0.75681  Biso   1.000  I
  I2       1.0000 0.27424  0.75000  0.25681  Biso   1.000  I
  I3       1.0000 0.77424  0.75000  0.24319  Biso   1.000  I
  I4       1.0000 0.72576  0.25000  0.74319  Biso   1.000  I
  I5       1.0000 0.47639  0.11962  0.72377  Biso   1.000  I
  I6       1.0000 0.02361  0.88038  0.22377  Biso   1.000  I
  I7       1.0000 0.52361  0.61962  0.27623  Biso   1.000  I
  I8       1.0000 0.97639  0.38038  0.77623  Biso   1.000  I
  I9       1.0000 0.52361  0.88038  0.27623  Biso   1.000  I
  I10      1.0000 0.97639  0.11962  0.77623  Biso   1.000  I
  I11      1.0000 0.47639  0.38038  0.72377  Biso   1.000  I
  I12      1.0000 0.02361  0.61962  0.22377  Biso   1.000  I
  I13      1.0000 0.31808  0.25000  0.60621  Biso   1.000  I
  I14      1.0000 0.18192  0.75000  0.10621  Biso   1.000  I
  I15      1.0000 0.68192  0.75000  0.39379  Biso   1.000  I
  I16      1.0000 0.81808  0.25000  0.89379  Biso   1.000  I
  I17      1.0000 0.61068  0.25000  0.61998  Biso   1.000  I
  I18      1.0000 0.88932  0.75000  0.11998  Biso   1.000  I
  I19      1.0000 0.38932  0.75000  0.38002  Biso   1.000  I
  I20      1.0000 0.11068  0.25000  0.88002  Biso   1.000  I
  I21      1.0000 0.46765  0.12305  0.50063  Biso   1.000  I
  I22      1.0000 0.03235  0.87695  0.00063  Biso   1.000  I
  I23      1.0000 0.53235  0.62305  0.49937  Biso   1.000  I
  I24      1.0000 0.96765  0.37695  0.99937  Biso   1.000  I
  I25      1.0000 0.53235  0.87695  0.49937  Biso   1.000  I
  I26      1.0000 0.96765  0.12305  0.99937  Biso   1.000  I
  I27      1.0000 0.46765  0.37695  0.50063  Biso   1.000  I
  I28      1.0000 0.03235  0.62305  0.00063  Biso   1.000  I
  I29      1.0000 0.72859  0.25000  0.47497  Biso   1.000  I
  I30      1.0000 0.77141  0.75000  0.97497  Biso   1.000  I
  I31      1.0000 0.27141  0.75000  0.52503  Biso   1.000  I
  I32      1.0000 0.22859  0.25000  0.02503  Biso   1.000  I
  I33      1.0000 0.79004  0.75000  0.56017  Biso   1.000  I
  I34      1.0000 0.70996  0.25000  0.06017  Biso   1.000  I
  I35      1.0000 0.20996  0.25000  0.43983  Biso   1.000  I
  I36      1.0000 0.29004  0.75000  0.93983  Biso   1.000  I
  I37      1.0000 0.03297  0.87737  0.54102  Biso   1.000  I
  I38      1.0000 0.46703  0.12263  0.04102  Biso   1.000  I
  I39      1.0000 0.96703  0.37737  0.45898  Biso   1.000  I
  I40      1.0000 0.53297  0.62263  0.95898  Biso   1.000  I
  I41      1.0000 0.96703  0.12263  0.45898  Biso   1.000  I
  I42      1.0000 0.53297  0.87737  0.95898  Biso   1.000  I
  I43      1.0000 0.03297  0.62263  0.54102  Biso   1.000  I
  I44      1.0000 0.46703  0.37737  0.04102  Biso   1.000  I
  I45      1.0000 0.89821  0.87728  0.69060  Biso   1.000  I
  I46      1.0000 0.60179  0.12272  0.19060  Biso   1.000  I
  I47      1.0000 0.10179  0.37728  0.30940  Biso   1.000  I
  I48      1.0000 0.39821  0.62272  0.80940  Biso   1.000  I
  I49      1.0000 0.10179  0.12272  0.30940  Biso   1.000  I
  I50      1.0000 0.39821  0.87728  0.80940  Biso   1.000  I
  I51      1.0000 0.89821  0.62272  0.69060  Biso   1.000  I
  I52      1.0000 0.60179  0.37728  0.19060  Biso   1.000  I
  I53      1.0000 0.15026  0.75000  0.67184  Biso   1.000  I
  I54      1.0000 0.34974  0.25000  0.17184  Biso   1.000  I
  I55      1.0000 0.84974  0.25000  0.32816  Biso   1.000  I
  I56      1.0000 0.65026  0.75000  0.82816  Biso   1.000  I
  Cu1      1.0000 0.40587  0.25000  0.76568  Biso   1.000  Cu
  Cu2      1.0000 0.09413  0.75000  0.26568  Biso   1.000  Cu
  Cu3      1.0000 0.59413  0.75000  0.23432  Biso   1.000  Cu
  Cu4      1.0000 0.90587  0.25000  0.73432  Biso   1.000  Cu
  Cu5      1.0000 0.31935  0.16733  0.69323  Biso   1.000  Cu
  Cu6      1.0000 0.18065  0.83267  0.19323  Biso   1.000  Cu
  Cu7      1.0000 0.68065  0.66733  0.30677  Biso   1.000  Cu
  Cu8      1.0000 0.81935  0.33267  0.80677  Biso   1.000  Cu
  Cu9      1.0000 0.68065  0.83267  0.30677  Biso   1.000  Cu
  Cu10     1.0000 0.81935  0.16733  0.80677  Biso   1.000  Cu
  Cu11     1.0000 0.31935  0.33267  0.69323  Biso   1.000  Cu
  Cu12     1.0000 0.18065  0.66733  0.19323  Biso   1.000  Cu
  Cu13     1.0000 0.46193  0.25000  0.67250  Biso   1.000  Cu
  Cu14     1.0000 0.03807  0.75000  0.17250  Biso   1.000  Cu
  Cu15     1.0000 0.53807  0.75000  0.32750  Biso   1.000  Cu
  Cu16     1.0000 0.96193  0.25000  0.82750  Biso   1.000  Cu
  Cu17     1.0000 0.47027  0.25000  0.55551  Biso   1.000  Cu
  Cu18     1.0000 0.02973  0.75000  0.05551  Biso   1.000  Cu
  Cu19     1.0000 0.52973  0.75000  0.44449  Biso   1.000  Cu
  Cu20     1.0000 0.97027  0.25000  0.94449  Biso   1.000  Cu
  Cu21     1.0000 0.62210  0.17111  0.53507  Biso   1.000  Cu
  Cu22     1.0000 0.87790  0.82889  0.03507  Biso   1.000  Cu
  Cu23     1.0000 0.37790  0.67111  0.46493  Biso   1.000  Cu
  Cu24     1.0000 0.12210  0.32889  0.96493  Biso   1.000  Cu
  Cu25     1.0000 0.37790  0.82889  0.46493  Biso   1.000  Cu
  Cu26     1.0000 0.12210  0.17111  0.96493  Biso   1.000  Cu
  Cu27     1.0000 0.62210  0.32889  0.53507  Biso   1.000  Cu
  Cu28     1.0000 0.87790  0.67111  0.03507  Biso   1.000  Cu
  Cu29     1.0000 0.53908  0.25000  0.46402  Biso   1.000  Cu
  Cu30     1.0000 0.96092  0.75000  0.96402  Biso   1.000  Cu
  Cu31     1.0000 0.46092  0.75000  0.53598  Biso   1.000  Cu
  Cu32     1.0000 0.03908  0.25000  0.03598  Biso   1.000  Cu
  Cu33     1.0000 0.87902  0.86760  0.59318  Biso   1.000  Cu
  Cu34     1.0000 0.62098  0.13240  0.09318  Biso   1.000  Cu
  Cu35     1.0000 0.12098  0.36760  0.40682  Biso   1.000  Cu
  Cu36     1.0000 0.37902  0.63240  0.90682  Biso   1.000  Cu
  Cu37     1.0000 0.12098  0.13240  0.40682  Biso   1.000  Cu
  Cu38     1.0000 0.37902  0.86760  0.90682  Biso   1.000  Cu
  Cu39     1.0000 0.87902  0.63240  0.59318  Biso   1.000  Cu
  Cu40     1.0000 0.62098  0.36760  0.09318  Biso   1.000  Cu
  Cu41     1.0000 0.97540  0.75000  0.57629  Biso   1.000  Cu
  Cu42     1.0000 0.52460  0.25000  0.07629  Biso   1.000  Cu
  Cu43     1.0000 0.02460  0.25000  0.42371  Biso   1.000  Cu
  Cu44     1.0000 0.47540  0.75000  0.92371  Biso   1.000  Cu
  Cu45     1.0000 0.05126  0.86432  0.64060  Biso   1.000  Cu
  Cu46     1.0000 0.44874  0.13568  0.14060  Biso   1.000  Cu
  Cu47     1.0000 0.94874  0.36432  0.35940  Biso   1.000  Cu
  Cu48     1.0000 0.55126  0.63568  0.85940  Biso   1.000  Cu
  Cu49     1.0000 0.94874  0.13568  0.35940  Biso   1.000  Cu
  Cu50     1.0000 0.55126  0.86432  0.85940  Biso   1.000  Cu
  Cu51     1.0000 0.05126  0.63568  0.64060  Biso   1.000  Cu
  Cu52     1.0000 0.44874  0.36432  0.14060  Biso   1.000  Cu
  Cu53     1.0000 0.98739  0.75000  0.70893  Biso   1.000  Cu
  Cu54     1.0000 0.51261  0.25000  0.20893  Biso   1.000  Cu
  Cu55     1.0000 0.01261  0.25000  0.29107  Biso   1.000  Cu
  Cu56     1.0000 0.48739  0.75000  0.79107  Biso   1.000  Cu
  N1       1.0000 0.43510  0.25000  0.91850  Biso   1.000  N
  N2       1.0000 0.06490  0.75000  0.41850  Biso   1.000  N
  N3       1.0000 0.56490  0.75000  0.08150  Biso   1.000  N
  N4       1.0000 0.93510  0.25000  0.58150  Biso   1.000  N
  H1       1.0000 0.41100  0.25000  0.94790  Biso   1.000  H
  H2       1.0000 0.08900  0.75000  0.44790  Biso   1.000  H
  H3       1.0000 0.58900  0.75000  0.05210  Biso   1.000  H
  H4       1.0000 0.91100  0.25000  0.55210  Biso   1.000  H
  N5       1.0000 0.44680  0.25000  0.83970  Biso   1.000  N
  N6       1.0000 0.05320  0.75000  0.33970  Biso   1.000  N
  N7       1.0000 0.55320  0.75000  0.16030  Biso   1.000  N
  N8       1.0000 0.94680  0.25000  0.66030  Biso   1.000  N
  N9       1.0000 0.69760  0.07680  0.55410  Biso   1.000  N
  N10      1.0000 0.80240  0.92320  0.05410  Biso   1.000  N
  N11      1.0000 0.30240  0.57680  0.44590  Biso   1.000  N
  N12      1.0000 0.19760  0.42320  0.94590  Biso   1.000  N
  N13      1.0000 0.30240  0.92320  0.44590  Biso   1.000  N
  N14      1.0000 0.19760  0.07680  0.94590  Biso   1.000  N
  N15      1.0000 0.69760  0.42320  0.55410  Biso   1.000  N
  N16      1.0000 0.80240  0.57680  0.05410  Biso   1.000  N
  N17      1.0000 0.79870  0.96090  0.57580  Biso   1.000  N
  N18      1.0000 0.70130  0.03910  0.07580  Biso   1.000  N
  N19      1.0000 0.20130  0.46090  0.42420  Biso   1.000  N
  N20      1.0000 0.29870  0.53910  0.92420  Biso   1.000  N
  N21      1.0000 0.20130  0.03910  0.42420  Biso   1.000  N
  N22      1.0000 0.29870  0.96090  0.92420  Biso   1.000  N
  N23      1.0000 0.79870  0.53910  0.57580  Biso   1.000  N
  N24      1.0000 0.70130  0.46090  0.07580  Biso   1.000  N
  N25      1.0000 0.13600  0.95650  0.65900  Biso   1.000  N
  N26      1.0000 0.36400  0.04350  0.15900  Biso   1.000  N
  N27      1.0000 0.86400  0.45650  0.34100  Biso   1.000  N
  N28      1.0000 0.63600  0.54350  0.84100  Biso   1.000  N
  N29      1.0000 0.86400  0.04350  0.34100  Biso   1.000  N
  N30      1.0000 0.63600  0.95650  0.84100  Biso   1.000  N
  N31      1.0000 0.13600  0.54350  0.65900  Biso   1.000  N
  N32      1.0000 0.36400  0.45650  0.15900  Biso   1.000  N
  N33      1.0000 0.24100  0.07200  0.67820  Biso   1.000  N
  N34      1.0000 0.25900  0.92800  0.17820  Biso   1.000  N
  N35      1.0000 0.75900  0.57200  0.32180  Biso   1.000  N
  N36      1.0000 0.74100  0.42800  0.82180  Biso   1.000  N
  N37      1.0000 0.75900  0.92800  0.32180  Biso   1.000  N
  N38      1.0000 0.74100  0.07200  0.82180  Biso   1.000  N
  N39      1.0000 0.24100  0.42800  0.67820  Biso   1.000  N
  N40      1.0000 0.25900  0.57200  0.17820  Biso   1.000  N
  N41      1.0000 0.99070  0.75000  0.78900  Biso   1.000  N
  N42      1.0000 0.50930  0.25000  0.28900  Biso   1.000  N
  N43      1.0000 0.00930  0.25000  0.21100  Biso   1.000  N
  N44      1.0000 0.49070  0.75000  0.71100  Biso   1.000  N
  N45      1.0000 0.52160  0.25000  0.38710  Biso   1.000  N
  N46      1.0000 0.97840  0.75000  0.88710  Biso   1.000  N
  N47      1.0000 0.47840  0.75000  0.61290  Biso   1.000  N
  N48      1.0000 0.02160  0.25000  0.11290  Biso   1.000  N
  C1       1.0000 0.39250  0.25000  0.87420  Biso   1.000  C
  C2       1.0000 0.10750  0.75000  0.37420  Biso   1.000  C
  C3       1.0000 0.60750  0.75000  0.12580  Biso   1.000  C
  C4       1.0000 0.89250  0.25000  0.62580  Biso   1.000  C
  H5       1.0000 0.33010  0.25000  0.87020  Biso   1.000  H
  H6       1.0000 0.16990  0.75000  0.37020  Biso   1.000  H
  H7       1.0000 0.66990  0.75000  0.12980  Biso   1.000  H
  H8       1.0000 0.83010  0.25000  0.62980  Biso   1.000  H
  C5       1.0000 0.52660  0.25000  0.90700  Biso   1.000  C
  C6       1.0000 0.97340  0.75000  0.40700  Biso   1.000  C
  C7       1.0000 0.47340  0.75000  0.09300  Biso   1.000  C
  C8       1.0000 0.02660  0.25000  0.59300  Biso   1.000  C
  H9       1.0000 0.57620  0.25000  0.92840  Biso   1.000  H
  H10      1.0000 0.92380  0.75000  0.42840  Biso   1.000  H
  H11      1.0000 0.42380  0.75000  0.07160  Biso   1.000  H
  H12      1.0000 0.07620  0.25000  0.57160  Biso   1.000  H
  C9       1.0000 0.52400  0.25000  0.85630  Biso   1.000  C
  C10      1.0000 0.97600  0.75000  0.35630  Biso   1.000  C
  C11      1.0000 0.47600  0.75000  0.14370  Biso   1.000  C
  C12      1.0000 0.02400  0.25000  0.64370  Biso   1.000  C
  H13      1.0000 0.57530  0.25000  0.83610  Biso   1.000  H
  H14      1.0000 0.92470  0.75000  0.33610  Biso   1.000  H
  H15      1.0000 0.42470  0.75000  0.16390  Biso   1.000  H
  H16      1.0000 0.07530  0.25000  0.66390  Biso   1.000  H
  C13      1.0000 0.65180  0.02530  0.59030  Biso   1.000  C
  C14      1.0000 0.84820  0.97470  0.09030  Biso   1.000  C
  C15      1.0000 0.34820  0.52530  0.40970  Biso   1.000  C
  C16      1.0000 0.15180  0.47470  0.90970  Biso   1.000  C
  C17      1.0000 0.34820  0.97470  0.40970  Biso   1.000  C
  C18      1.0000 0.15180  0.02530  0.90970  Biso   1.000  C
  C19      1.0000 0.65180  0.47470  0.59030  Biso   1.000  C
  C20      1.0000 0.84820  0.52530  0.09030  Biso   1.000  C
  H17      1.0000 0.59520  0.00810  0.57600  Biso   1.000  H
  H18      1.0000 0.90480  0.99190  0.07600  Biso   1.000  H
  H19      1.0000 0.40480  0.50810  0.42400  Biso   1.000  H
  H20      1.0000 0.09520  0.49190  0.92400  Biso   1.000  H
  H21      1.0000 0.40480  0.99190  0.42400  Biso   1.000  H
  H22      1.0000 0.09520  0.00810  0.92400  Biso   1.000  H
  H23      1.0000 0.59520  0.49190  0.57600  Biso   1.000  H
  H24      1.0000 0.90480  0.50810  0.07600  Biso   1.000  H
  H25      1.0000 0.63820  0.05280  0.62090  Biso   1.000  H
  H26      1.0000 0.86180  0.94720  0.12090  Biso   1.000  H
  H27      1.0000 0.36180  0.55280  0.37910  Biso   1.000  H
  H28      1.0000 0.13820  0.44720  0.87910  Biso   1.000  H
  H29      1.0000 0.36180  0.94720  0.37910  Biso   1.000  H
  H30      1.0000 0.13820  0.05280  0.87910  Biso   1.000  H
  H31      1.0000 0.63820  0.44720  0.62090  Biso   1.000  H
  H32      1.0000 0.86180  0.55280  0.12090  Biso   1.000  H
  C21      1.0000 0.71070  0.95690  0.60300  Biso   1.000  C
  C22      1.0000 0.78930  0.04310  0.10300  Biso   1.000  C
  C23      1.0000 0.28930  0.45690  0.39700  Biso   1.000  C
  C24      1.0000 0.21070  0.54310  0.89700  Biso   1.000  C
  C25      1.0000 0.28930  0.04310  0.39700  Biso   1.000  C
  C26      1.0000 0.21070  0.95690  0.89700  Biso   1.000  C
  C27      1.0000 0.71070  0.54310  0.60300  Biso   1.000  C
  C28      1.0000 0.78930  0.45690  0.10300  Biso   1.000  C
  H33      1.0000 0.72170  0.95540  0.63890  Biso   1.000  H
  H34      1.0000 0.77830  0.04460  0.13890  Biso   1.000  H
  H35      1.0000 0.27830  0.45540  0.36110  Biso   1.000  H
  H36      1.0000 0.22170  0.54460  0.86110  Biso   1.000  H
  H37      1.0000 0.27830  0.04460  0.36110  Biso   1.000  H
  H38      1.0000 0.22170  0.95540  0.86110  Biso   1.000  H
  H39      1.0000 0.72170  0.54460  0.63890  Biso   1.000  H
  H40      1.0000 0.77830  0.45540  0.13890  Biso   1.000  H
  H41      1.0000 0.67930  0.91090  0.59370  Biso   1.000  H
  H42      1.0000 0.82070  0.08910  0.09370  Biso   1.000  H
  H43      1.0000 0.32070  0.41090  0.40630  Biso   1.000  H
  H44      1.0000 0.17930  0.58910  0.90630  Biso   1.000  H
  H45      1.0000 0.32070  0.08910  0.40630  Biso   1.000  H
  H46      1.0000 0.17930  0.91090  0.90630  Biso   1.000  H
  H47      1.0000 0.67930  0.58910  0.59370  Biso   1.000  H
  H48      1.0000 0.82070  0.41090  0.09370  Biso   1.000  H
  C29      1.0000 0.78470  0.09930  0.57820  Biso   1.000  C
  C30      1.0000 0.71530  0.90070  0.07820  Biso   1.000  C
  C31      1.0000 0.21530  0.59930  0.42180  Biso   1.000  C
  C32      1.0000 0.28470  0.40070  0.92180  Biso   1.000  C
  C33      1.0000 0.21530  0.90070  0.42180  Biso   1.000  C
  C34      1.0000 0.28470  0.09930  0.92180  Biso   1.000  C
  C35      1.0000 0.78470  0.40070  0.57820  Biso   1.000  C
  C36      1.0000 0.71530  0.59930  0.07820  Biso   1.000  C
  H49      1.0000 0.77210  0.12660  0.60900  Biso   1.000  H
  H50      1.0000 0.72790  0.87340  0.10900  Biso   1.000  H
  H51      1.0000 0.22790  0.62660  0.39100  Biso   1.000  H
  H52      1.0000 0.27210  0.37340  0.89100  Biso   1.000  H
  H53      1.0000 0.22790  0.87340  0.39100  Biso   1.000  H
  H54      1.0000 0.27210  0.12660  0.89100  Biso   1.000  H
  H55      1.0000 0.77210  0.37340  0.60900  Biso   1.000  H
  H56      1.0000 0.72790  0.62660  0.10900  Biso   1.000  H
  H57      1.0000 0.81730  0.13290  0.55590  Biso   1.000  H
  H58      1.0000 0.68270  0.86710  0.05590  Biso   1.000  H
  H59      1.0000 0.18270  0.63290  0.44410  Biso   1.000  H
  H60      1.0000 0.31730  0.36710  0.94410  Biso   1.000  H
  H61      1.0000 0.18270  0.86710  0.44410  Biso   1.000  H
  H62      1.0000 0.31730  0.13290  0.94410  Biso   1.000  H
  H63      1.0000 0.81730  0.36710  0.55590  Biso   1.000  H
  H64      1.0000 0.68270  0.63290  0.05590  Biso   1.000  H
  C37      1.0000 0.84410  0.03040  0.59030  Biso   1.000  C
  C38      1.0000 0.65590  0.96960  0.09030  Biso   1.000  C
  C39      1.0000 0.15590  0.53040  0.40970  Biso   1.000  C
  C40      1.0000 0.34410  0.46960  0.90970  Biso   1.000  C
  C41      1.0000 0.15590  0.96960  0.40970  Biso   1.000  C
  C42      1.0000 0.34410  0.03040  0.90970  Biso   1.000  C
  C43      1.0000 0.84410  0.46960  0.59030  Biso   1.000  C
  C44      1.0000 0.65590  0.53040  0.09030  Biso   1.000  C
  H65      1.0000 0.90090  0.03450  0.57240  Biso   1.000  H
  H66      1.0000 0.59910  0.96550  0.07240  Biso   1.000  H
  H67      1.0000 0.09910  0.53450  0.42760  Biso   1.000  H
  H68      1.0000 0.40090  0.46550  0.92760  Biso   1.000  H
  H69      1.0000 0.09910  0.96550  0.42760  Biso   1.000  H
  H70      1.0000 0.40090  0.03450  0.92760  Biso   1.000  H
  H71      1.0000 0.90090  0.46550  0.57240  Biso   1.000  H
  H72      1.0000 0.59910  0.53450  0.07240  Biso   1.000  H
  H73      1.0000 0.85710  0.02920  0.62600  Biso   1.000  H
  H74      1.0000 0.64290  0.97080  0.12600  Biso   1.000  H
  H75      1.0000 0.14290  0.52920  0.37400  Biso   1.000  H
  H76      1.0000 0.35710  0.47080  0.87400  Biso   1.000  H
  H77      1.0000 0.14290  0.97080  0.37400  Biso   1.000  H
  H78      1.0000 0.35710  0.02920  0.87400  Biso   1.000  H
  H79      1.0000 0.85710  0.47080  0.62600  Biso   1.000  H
  H80      1.0000 0.64290  0.52920  0.12600  Biso   1.000  H
  C45      1.0000 0.72030  0.03350  0.50820  Biso   1.000  C
  C46      1.0000 0.77970  0.96650  0.00820  Biso   1.000  C
  C47      1.0000 0.27970  0.53350  0.49180  Biso   1.000  C
  C48      1.0000 0.22030  0.46650  0.99180  Biso   1.000  C
  C49      1.0000 0.27970  0.96650  0.49180  Biso   1.000  C
  C50      1.0000 0.22030  0.03350  0.99180  Biso   1.000  C
  C51      1.0000 0.72030  0.46650  0.50820  Biso   1.000  C
  C52      1.0000 0.77970  0.53350  0.00820  Biso   1.000  C
  H81      1.0000 0.75210  0.06590  0.48470  Biso   1.000  H
  H82      1.0000 0.74790  0.93410  0.98470  Biso   1.000  H
  H83      1.0000 0.24790  0.56590  0.51530  Biso   1.000  H
  H84      1.0000 0.25210  0.43410  0.01530  Biso   1.000  H
  H85      1.0000 0.24790  0.93410  0.51530  Biso   1.000  H
  H86      1.0000 0.25210  0.06590  0.01530  Biso   1.000  H
  H87      1.0000 0.75210  0.43410  0.48470  Biso   1.000  H
  H88      1.0000 0.74790  0.56590  0.98470  Biso   1.000  H
  H89      1.0000 0.66520  0.01630  0.49220  Biso   1.000  H
  H90      1.0000 0.83480  0.98370  0.99220  Biso   1.000  H
  H91      1.0000 0.33480  0.51630  0.50780  Biso   1.000  H
  H92      1.0000 0.16520  0.48370  0.00780  Biso   1.000  H
  H93      1.0000 0.33480  0.98370  0.50780  Biso   1.000  H
  H94      1.0000 0.16520  0.01630  0.00780  Biso   1.000  H
  H95      1.0000 0.66520  0.48370  0.49220  Biso   1.000  H
  H96      1.0000 0.83480  0.51630  0.99220  Biso   1.000  H
  C53      1.0000 0.77960  0.96540  0.52150  Biso   1.000  C
  C54      1.0000 0.72040  0.03460  0.02150  Biso   1.000  C
  C55      1.0000 0.22040  0.46540  0.47850  Biso   1.000  C
  C56      1.0000 0.27960  0.53460  0.97850  Biso   1.000  C
  C57      1.0000 0.22040  0.03460  0.47850  Biso   1.000  C
  C58      1.0000 0.27960  0.96540  0.97850  Biso   1.000  C
  C59      1.0000 0.77960  0.53460  0.52150  Biso   1.000  C
  C60      1.0000 0.72040  0.46540  0.02150  Biso   1.000  C
  H97      1.0000 0.74950  0.91950  0.51090  Biso   1.000  H
  H98      1.0000 0.75050  0.08050  0.01090  Biso   1.000  H
  H99      1.0000 0.25050  0.41950  0.48910  Biso   1.000  H
  H100     1.0000 0.24950  0.58050  0.98910  Biso   1.000  H
  H101     1.0000 0.25050  0.08050  0.48910  Biso   1.000  H
  H102     1.0000 0.24950  0.91950  0.98910  Biso   1.000  H
  H103     1.0000 0.74950  0.58050  0.51090  Biso   1.000  H
  H104     1.0000 0.75050  0.41950  0.01090  Biso   1.000  H
  H105     1.0000 0.83620  0.96900  0.50330  Biso   1.000  H
  H106     1.0000 0.66380  0.03100  0.00330  Biso   1.000  H
  H107     1.0000 0.16380  0.46900  0.49670  Biso   1.000  H
  H108     1.0000 0.33620  0.53100  0.99670  Biso   1.000  H
  H109     1.0000 0.16380  0.03100  0.49670  Biso   1.000  H
  H110     1.0000 0.33620  0.96900  0.99670  Biso   1.000  H
  H111     1.0000 0.83620  0.53100  0.50330  Biso   1.000  H
  H112     1.0000 0.66380  0.46900  0.00330  Biso   1.000  H
  C61      1.0000 0.09450  0.02730  0.64330  Biso   1.000  C
  C62      1.0000 0.40550  0.97270  0.14330  Biso   1.000  C
  C63      1.0000 0.90550  0.52730  0.35670  Biso   1.000  C
  C64      1.0000 0.59450  0.47270  0.85670  Biso   1.000  C
  C65      1.0000 0.90550  0.97270  0.35670  Biso   1.000  C
  C66      1.0000 0.59450  0.02730  0.85670  Biso   1.000  C
  C67      1.0000 0.09450  0.47270  0.64330  Biso   1.000  C
  C68      1.0000 0.40550  0.52730  0.14330  Biso   1.000  C
  H113     1.0000 0.03580  0.03200  0.65920  Biso   1.000  H
  H114     1.0000 0.46420  0.96800  0.15920  Biso   1.000  H
  H115     1.0000 0.96420  0.53200  0.34080  Biso   1.000  H
  H116     1.0000 0.53580  0.46800  0.84080  Biso   1.000  H
  H117     1.0000 0.96420  0.96800  0.34080  Biso   1.000  H
  H118     1.0000 0.53580  0.03200  0.84080  Biso   1.000  H
  H119     1.0000 0.03580  0.46800  0.65920  Biso   1.000  H
  H120     1.0000 0.46420  0.53200  0.15920  Biso   1.000  H
  H121     1.0000 0.08540  0.02650  0.60730  Biso   1.000  H
  H122     1.0000 0.41460  0.97350  0.10730  Biso   1.000  H
  H123     1.0000 0.91460  0.52650  0.39270  Biso   1.000  H
  H124     1.0000 0.58540  0.47350  0.89270  Biso   1.000  H
  H125     1.0000 0.91460  0.97350  0.39270  Biso   1.000  H
  H126     1.0000 0.58540  0.02650  0.89270  Biso   1.000  H
  H127     1.0000 0.08540  0.47350  0.60730  Biso   1.000  H
  H128     1.0000 0.41460  0.52650  0.10730  Biso   1.000  H
  C69      1.0000 0.15290  0.09630  0.65740  Biso   1.000  C
  C70      1.0000 0.34710  0.90370  0.15740  Biso   1.000  C
  C71      1.0000 0.84710  0.59630  0.34260  Biso   1.000  C
  C72      1.0000 0.65290  0.40370  0.84260  Biso   1.000  C
  C73      1.0000 0.84710  0.90370  0.34260  Biso   1.000  C
  C74      1.0000 0.65290  0.09630  0.84260  Biso   1.000  C
  C75      1.0000 0.15290  0.40370  0.65740  Biso   1.000  C
  C76      1.0000 0.34710  0.59630  0.15740  Biso   1.000  C
  H129     1.0000 0.16280  0.12710  0.62780  Biso   1.000  H
  H130     1.0000 0.33720  0.87290  0.12780  Biso   1.000  H
  H131     1.0000 0.83720  0.62710  0.37220  Biso   1.000  H
  H132     1.0000 0.66280  0.37290  0.87220  Biso   1.000  H
  H133     1.0000 0.83720  0.87290  0.37220  Biso   1.000  H
  H134     1.0000 0.66280  0.12710  0.87220  Biso   1.000  H
  H135     1.0000 0.16280  0.37290  0.62780  Biso   1.000  H
  H136     1.0000 0.33720  0.62710  0.12780  Biso   1.000  H
  H137     1.0000 0.12130  0.12670  0.68210  Biso   1.000  H
  H138     1.0000 0.37870  0.87330  0.18210  Biso   1.000  H
  H139     1.0000 0.87870  0.62670  0.31790  Biso   1.000  H
  H140     1.0000 0.62130  0.37330  0.81790  Biso   1.000  H
  H141     1.0000 0.87870  0.87330  0.31790  Biso   1.000  H
  H142     1.0000 0.62130  0.12670  0.81790  Biso   1.000  H
  H143     1.0000 0.12130  0.37330  0.68210  Biso   1.000  H
  H144     1.0000 0.37870  0.62670  0.18210  Biso   1.000  H
  C77      1.0000 0.22320  0.94940  0.63320  Biso   1.000  C
  C78      1.0000 0.27680  0.05060  0.13320  Biso   1.000  C
  C79      1.0000 0.77680  0.44940  0.36680  Biso   1.000  C
  C80      1.0000 0.72320  0.55060  0.86680  Biso   1.000  C
  C81      1.0000 0.77680  0.05060  0.36680  Biso   1.000  C
  C82      1.0000 0.72320  0.94940  0.86680  Biso   1.000  C
  C83      1.0000 0.22320  0.55060  0.63320  Biso   1.000  C
  C84      1.0000 0.27680  0.44940  0.13320  Biso   1.000  C
  H145     1.0000 0.21300  0.94270  0.59750  Biso   1.000  H
  H146     1.0000 0.28700  0.05730  0.09750  Biso   1.000  H
  H147     1.0000 0.78700  0.44270  0.40250  Biso   1.000  H
  H148     1.0000 0.71300  0.55730  0.90250  Biso   1.000  H
  H149     1.0000 0.78700  0.05730  0.40250  Biso   1.000  H
  H150     1.0000 0.71300  0.94270  0.90250  Biso   1.000  H
  H151     1.0000 0.21300  0.55730  0.59750  Biso   1.000  H
  H152     1.0000 0.28700  0.44270  0.09750  Biso   1.000  H
  H153     1.0000 0.25460  0.90520  0.64560  Biso   1.000  H
  H154     1.0000 0.24540  0.09480  0.14560  Biso   1.000  H
  H155     1.0000 0.74540  0.40520  0.35440  Biso   1.000  H
  H156     1.0000 0.75460  0.59480  0.85440  Biso   1.000  H
  H157     1.0000 0.74540  0.09480  0.35440  Biso   1.000  H
  H158     1.0000 0.75460  0.90520  0.85440  Biso   1.000  H
  H159     1.0000 0.25460  0.59480  0.64560  Biso   1.000  H
  H160     1.0000 0.24540  0.40520  0.14560  Biso   1.000  H
  C85      1.0000 0.28310  0.02040  0.64170  Biso   1.000  C
  C86      1.0000 0.21690  0.97960  0.14170  Biso   1.000  C
  C87      1.0000 0.71690  0.52040  0.35830  Biso   1.000  C
  C88      1.0000 0.78310  0.47960  0.85830  Biso   1.000  C
  C89      1.0000 0.71690  0.97960  0.35830  Biso   1.000  C
  C90      1.0000 0.78310  0.02040  0.85830  Biso   1.000  C
  C91      1.0000 0.28310  0.47960  0.64170  Biso   1.000  C
  C92      1.0000 0.21690  0.52040  0.14170  Biso   1.000  C
  H161     1.0000 0.34200  0.00500  0.65390  Biso   1.000  H
  H162     1.0000 0.15800  0.99500  0.15390  Biso   1.000  H
  H163     1.0000 0.65800  0.50500  0.34610  Biso   1.000  H
  H164     1.0000 0.84200  0.49500  0.84610  Biso   1.000  H
  H165     1.0000 0.65800  0.99500  0.34610  Biso   1.000  H
  H166     1.0000 0.84200  0.00500  0.84610  Biso   1.000  H
  H167     1.0000 0.34200  0.49500  0.65390  Biso   1.000  H
  H168     1.0000 0.15800  0.50500  0.15390  Biso   1.000  H
  H169     1.0000 0.29160  0.04650  0.61000  Biso   1.000  H
  H170     1.0000 0.20840  0.95350  0.11000  Biso   1.000  H
  H171     1.0000 0.70840  0.54650  0.39000  Biso   1.000  H
  H172     1.0000 0.79160  0.45350  0.89000  Biso   1.000  H
  H173     1.0000 0.70840  0.95350  0.39000  Biso   1.000  H
  H174     1.0000 0.79160  0.04650  0.89000  Biso   1.000  H
  H175     1.0000 0.29160  0.45350  0.61000  Biso   1.000  H
  H176     1.0000 0.20840  0.54650  0.11000  Biso   1.000  H
  C93      1.0000 0.15580  0.96170  0.71340  Biso   1.000  C
  C94      1.0000 0.34420  0.03830  0.21340  Biso   1.000  C
  C95      1.0000 0.84420  0.46170  0.28660  Biso   1.000  C
  C96      1.0000 0.65580  0.53830  0.78660  Biso   1.000  C
  C97      1.0000 0.84420  0.03830  0.28660  Biso   1.000  C
  C98      1.0000 0.65580  0.96170  0.78660  Biso   1.000  C
  C99      1.0000 0.15580  0.53830  0.71340  Biso   1.000  C
  C100     1.0000 0.34420  0.46170  0.21340  Biso   1.000  C
  H177     1.0000 0.18190  0.91450  0.72490  Biso   1.000  H
  H178     1.0000 0.31810  0.08550  0.22490  Biso   1.000  H
  H179     1.0000 0.81810  0.41450  0.27510  Biso   1.000  H
  H180     1.0000 0.68190  0.58550  0.77510  Biso   1.000  H
  H181     1.0000 0.81810  0.08550  0.27510  Biso   1.000  H
  H182     1.0000 0.68190  0.91450  0.77510  Biso   1.000  H
  H183     1.0000 0.18190  0.58550  0.72490  Biso   1.000  H
  H184     1.0000 0.31810  0.41450  0.22490  Biso   1.000  H
  H185     1.0000 0.10010  0.96990  0.73180  Biso   1.000  H
  H186     1.0000 0.39990  0.03010  0.23180  Biso   1.000  H
  H187     1.0000 0.89990  0.46990  0.26820  Biso   1.000  H
  H188     1.0000 0.60010  0.53010  0.76820  Biso   1.000  H
  H189     1.0000 0.89990  0.03010  0.26820  Biso   1.000  H
  H190     1.0000 0.60010  0.96990  0.76820  Biso   1.000  H
  H191     1.0000 0.10010  0.53010  0.73180  Biso   1.000  H
  H192     1.0000 0.39990  0.46990  0.23180  Biso   1.000  H
  C101     1.0000 0.22320  0.02800  0.72450  Biso   1.000  C
  C102     1.0000 0.27680  0.97200  0.22450  Biso   1.000  C
  C103     1.0000 0.77680  0.52800  0.27550  Biso   1.000  C
  C104     1.0000 0.72320  0.47200  0.77550  Biso   1.000  C
  C105     1.0000 0.77680  0.97200  0.27550  Biso   1.000  C
  C106     1.0000 0.72320  0.02800  0.77550  Biso   1.000  C
  C107     1.0000 0.22320  0.47200  0.72450  Biso   1.000  C
  C108     1.0000 0.27680  0.52800  0.22450  Biso   1.000  C
  H193     1.0000 0.19790  0.06080  0.75000  Biso   1.000  H
  H194     1.0000 0.30210  0.93920  0.25000  Biso   1.000  H
  H195     1.0000 0.80210  0.56080  0.25000  Biso   1.000  H
  H196     1.0000 0.69790  0.43920  0.75000  Biso   1.000  H
  H197     1.0000 0.80210  0.93920  0.25000  Biso   1.000  H
  H198     1.0000 0.69790  0.06080  0.75000  Biso   1.000  H
  H199     1.0000 0.19790  0.43920  0.75000  Biso   1.000  H
  H200     1.0000 0.30210  0.56080  0.25000  Biso   1.000  H
  H201     1.0000 0.27950  0.00760  0.73720  Biso   1.000  H
  H202     1.0000 0.22050  0.99240  0.23720  Biso   1.000  H
  H203     1.0000 0.72050  0.50760  0.26280  Biso   1.000  H
  H204     1.0000 0.77950  0.49240  0.76280  Biso   1.000  H
  H205     1.0000 0.72050  0.99240  0.26280  Biso   1.000  H
  H206     1.0000 0.77950  0.00760  0.76280  Biso   1.000  H
  H207     1.0000 0.27950  0.49240  0.73720  Biso   1.000  H
  H208     1.0000 0.22050  0.50760  0.23720  Biso   1.000  H
  C109     1.0000 0.07300  0.75000  0.81700  Biso   1.000  C
  C110     1.0000 0.42700  0.25000  0.31700  Biso   1.000  C
  C111     1.0000 0.92700  0.25000  0.18300  Biso   1.000  C
  C112     1.0000 0.57300  0.75000  0.68300  Biso   1.000  C
  H209     1.0000 0.10770  0.70600  0.80690  Biso   1.000  H
  H210     1.0000 0.39230  0.29400  0.30690  Biso   1.000  H
  H211     1.0000 0.89230  0.20600  0.19310  Biso   1.000  H
  H212     1.0000 0.60770  0.79400  0.69310  Biso   1.000  H
  H213     1.0000 0.89230  0.29400  0.19310  Biso   1.000  H
  H214     1.0000 0.60770  0.70600  0.69310  Biso   1.000  H
  H215     1.0000 0.10770  0.79400  0.80690  Biso   1.000  H
  H216     1.0000 0.39230  0.20600  0.30690  Biso   1.000  H
  C113     1.0000 0.43200  0.25000  0.37010  Biso   1.000  C
  C114     1.0000 0.06800  0.75000  0.87010  Biso   1.000  C
  C115     1.0000 0.56800  0.75000  0.62990  Biso   1.000  C
  C116     1.0000 0.93200  0.25000  0.12990  Biso   1.000  C
  H217     1.0000 0.40080  0.29430  0.38310  Biso   1.000  H
  H218     1.0000 0.09920  0.70570  0.88310  Biso   1.000  H
  H219     1.0000 0.59920  0.79430  0.61690  Biso   1.000  H
  H220     1.0000 0.90080  0.20570  0.11690  Biso   1.000  H
  H221     1.0000 0.59920  0.70570  0.61690  Biso   1.000  H
  H222     1.0000 0.90080  0.29430  0.11690  Biso   1.000  H
  H223     1.0000 0.40080  0.20570  0.38310  Biso   1.000  H
  H224     1.0000 0.09920  0.79430  0.88310  Biso   1.000  H
  C117     1.0000 0.93200  0.81500  0.81040  Biso   1.000  C
  C118     1.0000 0.56800  0.18500  0.31040  Biso   1.000  C
  C119     1.0000 0.06800  0.31500  0.18960  Biso   1.000  C
  C120     1.0000 0.43200  0.68500  0.68960  Biso   1.000  C
  C121     1.0000 0.06800  0.18500  0.18960  Biso   1.000  C
  C122     1.0000 0.43200  0.81500  0.68960  Biso   1.000  C
  C123     1.0000 0.93200  0.68500  0.81040  Biso   1.000  C
  C124     1.0000 0.56800  0.31500  0.31040  Biso   1.000  C
  H225     1.0000 0.95610  0.86300  0.79850  Biso   1.000  H
  H226     1.0000 0.54390  0.13700  0.29850  Biso   1.000  H
  H227     1.0000 0.04390  0.36300  0.20150  Biso   1.000  H
  H228     1.0000 0.45610  0.63700  0.70150  Biso   1.000  H
  H229     1.0000 0.04390  0.13700  0.20150  Biso   1.000  H
  H230     1.0000 0.45610  0.86300  0.70150  Biso   1.000  H
  H231     1.0000 0.95610  0.63700  0.79850  Biso   1.000  H
  H232     1.0000 0.54390  0.36300  0.29850  Biso   1.000  H
  H233     1.0000 0.87110  0.81050  0.79740  Biso   1.000  H
  H234     1.0000 0.62890  0.18950  0.29740  Biso   1.000  H
  H235     1.0000 0.12890  0.31050  0.20260  Biso   1.000  H
  H236     1.0000 0.37110  0.68950  0.70260  Biso   1.000  H
  H237     1.0000 0.12890  0.18950  0.20260  Biso   1.000  H
  H238     1.0000 0.37110  0.81050  0.70260  Biso   1.000  H
  H239     1.0000 0.87110  0.68950  0.79740  Biso   1.000  H
  H240     1.0000 0.62890  0.31050  0.29740  Biso   1.000  H
  C125     1.0000 0.57200  0.18300  0.36740  Biso   1.000  C
  C126     1.0000 0.92800  0.81700  0.86740  Biso   1.000  C
  C127     1.0000 0.42800  0.68300  0.63260  Biso   1.000  C
  C128     1.0000 0.07200  0.31700  0.13260  Biso   1.000  C
  C129     1.0000 0.42800  0.81700  0.63260  Biso   1.000  C
  C130     1.0000 0.07200  0.18300  0.13260  Biso   1.000  C
  C131     1.0000 0.57200  0.31700  0.36740  Biso   1.000  C
  C132     1.0000 0.92800  0.68300  0.86740  Biso   1.000  C
  H241     1.0000 0.54450  0.13690  0.37990  Biso   1.000  H
  H242     1.0000 0.95550  0.86310  0.87990  Biso   1.000  H
  H243     1.0000 0.45550  0.63690  0.62010  Biso   1.000  H
  H244     1.0000 0.04450  0.36310  0.12010  Biso   1.000  H
  H245     1.0000 0.45550  0.86310  0.62010  Biso   1.000  H
  H246     1.0000 0.04450  0.13690  0.12010  Biso   1.000  H
  H247     1.0000 0.54450  0.36310  0.37990  Biso   1.000  H
  H248     1.0000 0.95550  0.63690  0.87990  Biso   1.000  H
  H249     1.0000 0.63410  0.18460  0.37870  Biso   1.000  H
  H250     1.0000 0.86590  0.81540  0.87870  Biso   1.000  H
  H251     1.0000 0.36590  0.68460  0.62130  Biso   1.000  H
  H252     1.0000 0.13410  0.31540  0.12130  Biso   1.000  H
  H253     1.0000 0.36590  0.81540  0.62130  Biso   1.000  H
  H254     1.0000 0.13410  0.18460  0.12130  Biso   1.000  H
  H255     1.0000 0.63410  0.31540  0.37870  Biso   1.000  H
  H256     1.0000 0.86590  0.68460  0.87870  Biso   1.000  H
  C133     1.0000 0.03500  0.81780  0.80640  Biso   1.000  C
  C134     1.0000 0.46500  0.18220  0.30640  Biso   1.000  C
  C135     1.0000 0.96500  0.31780  0.19360  Biso   1.000  C
  C136     1.0000 0.53500  0.68220  0.69360  Biso   1.000  C
  C137     1.0000 0.96500  0.18220  0.19360  Biso   1.000  C
  C138     1.0000 0.53500  0.81780  0.69360  Biso   1.000  C
  C139     1.0000 0.03500  0.68220  0.80640  Biso   1.000  C
  C140     1.0000 0.46500  0.31780  0.30640  Biso   1.000  C
  H257     1.0000 0.00400  0.86220  0.79380  Biso   1.000  H
  H258     1.0000 0.49600  0.13780  0.29380  Biso   1.000  H
  H259     1.0000 0.99600  0.36220  0.20620  Biso   1.000  H
  H260     1.0000 0.50400  0.63780  0.70620  Biso   1.000  H
  H261     1.0000 0.99600  0.13780  0.20620  Biso   1.000  H
  H262     1.0000 0.50400  0.86220  0.70620  Biso   1.000  H
  H263     1.0000 0.00400  0.63780  0.79380  Biso   1.000  H
  H264     1.0000 0.49600  0.36220  0.29380  Biso   1.000  H
  H265     1.0000 0.09700  0.68090  0.79530  Biso   1.000  H
  H266     1.0000 0.40300  0.31910  0.29530  Biso   1.000  H
  H267     1.0000 0.90300  0.18090  0.20470  Biso   1.000  H
  H268     1.0000 0.59700  0.81910  0.70470  Biso   1.000  H
  H269     1.0000 0.90300  0.31910  0.20470  Biso   1.000  H
  H270     1.0000 0.59700  0.68090  0.70470  Biso   1.000  H
  H271     1.0000 0.09700  0.81910  0.79530  Biso   1.000  H
  H272     1.0000 0.40300  0.18090  0.29530  Biso   1.000  H
  C141     1.0000 0.47100  0.18540  0.36540  Biso   1.000  C
  C142     1.0000 0.02900  0.81460  0.86540  Biso   1.000  C
  C143     1.0000 0.52900  0.68540  0.63460  Biso   1.000  C
  C144     1.0000 0.97100  0.31460  0.13460  Biso   1.000  C
  C145     1.0000 0.52900  0.81460  0.63460  Biso   1.000  C
  C146     1.0000 0.97100  0.18540  0.13460  Biso   1.000  C
  C147     1.0000 0.47100  0.31460  0.36540  Biso   1.000  C
  C148     1.0000 0.02900  0.68540  0.86540  Biso   1.000  C
  H273     1.0000 0.40950  0.18690  0.37850  Biso   1.000  H
  H274     1.0000 0.09050  0.81310  0.87850  Biso   1.000  H
  H275     1.0000 0.59050  0.68690  0.62150  Biso   1.000  H
  H276     1.0000 0.90950  0.31310  0.12150  Biso   1.000  H
  H277     1.0000 0.59050  0.81310  0.62150  Biso   1.000  H
  H278     1.0000 0.90950  0.18690  0.12150  Biso   1.000  H
  H279     1.0000 0.40950  0.31310  0.37850  Biso   1.000  H
  H280     1.0000 0.09050  0.68690  0.87850  Biso   1.000  H
  H281     1.0000 0.49810  0.13900  0.37710  Biso   1.000  H
  H282     1.0000 0.00190  0.86100  0.87710  Biso   1.000  H
  H283     1.0000 0.50190  0.63900  0.62290  Biso   1.000  H
  H284     1.0000 0.99810  0.36100  0.12290  Biso   1.000  H
  H285     1.0000 0.50190  0.86100  0.62290  Biso   1.000  H
  H286     1.0000 0.99810  0.13900  0.12290  Biso   1.000  H
  H287     1.0000 0.49810  0.36100  0.37710  Biso   1.000  H
  H288     1.0000 0.00190  0.63900  0.87710  Biso   1.000  H
  C149     1.0000 0.89800  0.75000  0.80400  Biso   1.000  C
  C150     1.0000 0.60200  0.25000  0.30400  Biso   1.000  C
  C151     1.0000 0.10200  0.25000  0.19600  Biso   1.000  C
  C152     1.0000 0.39800  0.75000  0.69600  Biso   1.000  C
  H289     1.0000 0.86820  0.79430  0.79050  Biso   1.000  H
  H290     1.0000 0.63180  0.20570  0.29050  Biso   1.000  H
  H291     1.0000 0.13180  0.29430  0.20950  Biso   1.000  H
  H292     1.0000 0.36820  0.70570  0.70950  Biso   1.000  H
  H293     1.0000 0.13180  0.20570  0.20950  Biso   1.000  H
  H294     1.0000 0.36820  0.79430  0.70950  Biso   1.000  H
  H295     1.0000 0.86820  0.70570  0.79050  Biso   1.000  H
  H296     1.0000 0.63180  0.29430  0.29050  Biso   1.000  H
  C153     1.0000 0.61000  0.25000  0.35930  Biso   1.000  C
  C154     1.0000 0.89000  0.75000  0.85930  Biso   1.000  C
  C155     1.0000 0.39000  0.75000  0.64070  Biso   1.000  C
  C156     1.0000 0.11000  0.25000  0.14070  Biso   1.000  C
  H297     1.0000 0.64430  0.20590  0.36940  Biso   1.000  H
  H298     1.0000 0.85570  0.79410  0.86940  Biso   1.000  H
  H299     1.0000 0.35570  0.70590  0.63060  Biso   1.000  H
  H300     1.0000 0.14430  0.29410  0.13060  Biso   1.000  H
  H301     1.0000 0.35570  0.79410  0.63060  Biso   1.000  H
  H302     1.0000 0.14430  0.20590  0.13060  Biso   1.000  H
  H303     1.0000 0.64430  0.29410  0.36940  Biso   1.000  H
  H304     1.0000 0.85570  0.70590  0.86940  Biso   1.000  H
