data_image0
_cell_length_a       17.028
_cell_length_b       17.028
_cell_length_c       23.1439
_cell_angle_alpha    90
_cell_angle_beta     90
_cell_angle_gamma    90

_symmetry_space_group_name_H-M    "P 1"
_symmetry_int_tables_number       1

loop_
  _symmetry_equiv_pos_as_xyz
  'x, y, z'

loop_
  _atom_site_label
  _atom_site_occupancy
  _atom_site_fract_x
  _atom_site_fract_y
  _atom_site_fract_z
  _atom_site_thermal_displace_type
  _atom_site_B_iso_or_equiv
  _atom_site_type_symbol
  Cu1      1.0000 0.08857  0.75000  0.98424  Biso   1.000  Cu
  Cu2      1.0000 0.41143  0.25000  0.48424  Biso   1.000  Cu
  Cu3      1.0000 0.50000  0.83857  0.23424  Biso   1.000  Cu
  Cu4      1.0000 0.00000  0.16143  0.73424  Biso   1.000  Cu
  Cu5      1.0000 0.41143  0.75000  0.51576  Biso   1.000  Cu
  Cu6      1.0000 0.08857  0.25000  0.01576  Biso   1.000  Cu
  Cu7      1.0000 0.00000  0.83857  0.26576  Biso   1.000  Cu
  Cu8      1.0000 0.50000  0.16143  0.76576  Biso   1.000  Cu
  Cu9      1.0000 0.58857  0.25000  0.48424  Biso   1.000  Cu
  Cu10     1.0000 0.91143  0.75000  0.98424  Biso   1.000  Cu
  Cu11     1.0000 0.00000  0.33857  0.73424  Biso   1.000  Cu
  Cu12     1.0000 0.50000  0.66143  0.23424  Biso   1.000  Cu
  Cu13     1.0000 0.91143  0.25000  0.01576  Biso   1.000  Cu
  Cu14     1.0000 0.58857  0.75000  0.51576  Biso   1.000  Cu
  Cu15     1.0000 0.50000  0.33857  0.76576  Biso   1.000  Cu
  Cu16     1.0000 0.00000  0.66143  0.26576  Biso   1.000  Cu
  Cu17     1.0000 0.00000  0.82810  0.90006  Biso   1.000  Cu
  Cu18     1.0000 0.50000  0.17190  0.40006  Biso   1.000  Cu
  Cu19     1.0000 0.42190  0.75000  0.15006  Biso   1.000  Cu
  Cu20     1.0000 0.07810  0.25000  0.65006  Biso   1.000  Cu
  Cu21     1.0000 0.50000  0.82810  0.59994  Biso   1.000  Cu
  Cu22     1.0000 0.00000  0.17190  0.09994  Biso   1.000  Cu
  Cu23     1.0000 0.07810  0.75000  0.34994  Biso   1.000  Cu
  Cu24     1.0000 0.42190  0.25000  0.84994  Biso   1.000  Cu
  Cu25     1.0000 0.50000  0.32810  0.40006  Biso   1.000  Cu
  Cu26     1.0000 0.00000  0.67190  0.90006  Biso   1.000  Cu
  Cu27     1.0000 0.92190  0.25000  0.65006  Biso   1.000  Cu
  Cu28     1.0000 0.57810  0.75000  0.15006  Biso   1.000  Cu
  Cu29     1.0000 0.00000  0.32810  0.09994  Biso   1.000  Cu
  Cu30     1.0000 0.50000  0.67190  0.59994  Biso   1.000  Cu
  Cu31     1.0000 0.57810  0.25000  0.84994  Biso   1.000  Cu
  Cu32     1.0000 0.92190  0.75000  0.34994  Biso   1.000  Cu
  I1       1.0000 0.00000  0.87596  0.00940  Biso   1.000  I
  I2       1.0000 0.50000  0.12404  0.50940  Biso   1.000  I
  I3       1.0000 0.37404  0.75000  0.25940  Biso   1.000  I
  I4       1.0000 0.12596  0.25000  0.75939  Biso   1.000  I
  I5       1.0000 0.50000  0.87596  0.49060  Biso   1.000  I
  I6       1.0000 0.00000  0.12404  0.99060  Biso   1.000  I
  I7       1.0000 0.12596  0.75000  0.24060  Biso   1.000  I
  I8       1.0000 0.37404  0.25000  0.74060  Biso   1.000  I
  I9       1.0000 0.50000  0.37596  0.50940  Biso   1.000  I
  I10      1.0000 0.00000  0.62404  0.00940  Biso   1.000  I
  I11      1.0000 0.87404  0.25000  0.75939  Biso   1.000  I
  I12      1.0000 0.62596  0.75000  0.25940  Biso   1.000  I
  I13      1.0000 0.00000  0.37596  0.99060  Biso   1.000  I
  I14      1.0000 0.50000  0.62404  0.49060  Biso   1.000  I
  I15      1.0000 0.62596  0.25000  0.74060  Biso   1.000  I
  I16      1.0000 0.87404  0.75000  0.24060  Biso   1.000  I
  I17      1.0000 0.13112  0.75000  0.87198  Biso   1.000  I
  I18      1.0000 0.36888  0.25000  0.37198  Biso   1.000  I
  I19      1.0000 0.50000  0.88112  0.12198  Biso   1.000  I
  I20      1.0000 0.00000  0.11888  0.62198  Biso   1.000  I
  I21      1.0000 0.36888  0.75000  0.62802  Biso   1.000  I
  I22      1.0000 0.13112  0.25000  0.12802  Biso   1.000  I
  I23      1.0000 0.00000  0.88112  0.37802  Biso   1.000  I
  I24      1.0000 0.50000  0.11888  0.87802  Biso   1.000  I
  I25      1.0000 0.63112  0.25000  0.37198  Biso   1.000  I
  I26      1.0000 0.86888  0.75000  0.87198  Biso   1.000  I
  I27      1.0000 0.00000  0.38112  0.62198  Biso   1.000  I
  I28      1.0000 0.50000  0.61888  0.12198  Biso   1.000  I
  I29      1.0000 0.86888  0.25000  0.12802  Biso   1.000  I
  I30      1.0000 0.63112  0.75000  0.62802  Biso   1.000  I
  I31      1.0000 0.50000  0.38112  0.87802  Biso   1.000  I
  I32      1.0000 0.00000  0.61888  0.37802  Biso   1.000  I
  N1       1.0000 0.19156  0.75000  0.03658  Biso   1.000  N
  N2       1.0000 0.30844  0.25000  0.53658  Biso   1.000  N
  N3       1.0000 0.50000  0.94156  0.28658  Biso   1.000  N
  N4       1.0000 0.00000  0.05844  0.78658  Biso   1.000  N
  N5       1.0000 0.30844  0.75000  0.46342  Biso   1.000  N
  N6       1.0000 0.19156  0.25000  0.96342  Biso   1.000  N
  N7       1.0000 0.00000  0.94156  0.21342  Biso   1.000  N
  N8       1.0000 0.50000  0.05844  0.71342  Biso   1.000  N
  N9       1.0000 0.69156  0.25000  0.53658  Biso   1.000  N
  N10      1.0000 0.80844  0.75000  0.03658  Biso   1.000  N
  N11      1.0000 0.00000  0.44156  0.78658  Biso   1.000  N
  N12      1.0000 0.50000  0.55844  0.28658  Biso   1.000  N
  N13      1.0000 0.80844  0.25000  0.96342  Biso   1.000  N
  N14      1.0000 0.69156  0.75000  0.46342  Biso   1.000  N
  N15      1.0000 0.50000  0.44156  0.71342  Biso   1.000  N
  N16      1.0000 0.00000  0.55844  0.21342  Biso   1.000  N
  N17      1.0000 0.31940  0.75000  0.09948  Biso   1.000  N
  N18      1.0000 0.18060  0.25000  0.59948  Biso   1.000  N
  N19      1.0000 0.50000  0.06940  0.34948  Biso   1.000  N
  N20      1.0000 0.00000  0.93060  0.84948  Biso   1.000  N
  N21      1.0000 0.18060  0.75000  0.40052  Biso   1.000  N
  N22      1.0000 0.31940  0.25000  0.90052  Biso   1.000  N
  N23      1.0000 0.00000  0.06940  0.15052  Biso   1.000  N
  N24      1.0000 0.50000  0.93060  0.65052  Biso   1.000  N
  N25      1.0000 0.81940  0.25000  0.59948  Biso   1.000  N
  N26      1.0000 0.68060  0.75000  0.09948  Biso   1.000  N
  N27      1.0000 0.00000  0.56940  0.84948  Biso   1.000  N
  N28      1.0000 0.50000  0.43060  0.34948  Biso   1.000  N
  N29      1.0000 0.68060  0.25000  0.90052  Biso   1.000  N
  N30      1.0000 0.81940  0.75000  0.40052  Biso   1.000  N
  N31      1.0000 0.50000  0.56940  0.65052  Biso   1.000  N
  N32      1.0000 0.00000  0.43060  0.15052  Biso   1.000  N
  C1       1.0000 0.26336  0.75000  0.00033  Biso   1.000  C
  C2       1.0000 0.23664  0.25000  0.50033  Biso   1.000  C
  C3       1.0000 0.50000  0.01336  0.25033  Biso   1.000  C
  C4       1.0000 0.00000  0.98664  0.75033  Biso   1.000  C
  C5       1.0000 0.23664  0.75000  0.49967  Biso   1.000  C
  C6       1.0000 0.26336  0.25000  0.99967  Biso   1.000  C
  C7       1.0000 0.00000  0.01336  0.24967  Biso   1.000  C
  C8       1.0000 0.50000  0.98664  0.74967  Biso   1.000  C
  C9       1.0000 0.76336  0.25000  0.50033  Biso   1.000  C
  C10      1.0000 0.73664  0.75000  0.00033  Biso   1.000  C
  C11      1.0000 0.00000  0.51336  0.75033  Biso   1.000  C
  C12      1.0000 0.50000  0.48664  0.25033  Biso   1.000  C
  C13      1.0000 0.73664  0.25000  0.99967  Biso   1.000  C
  C14      1.0000 0.76336  0.75000  0.49967  Biso   1.000  C
  C15      1.0000 0.50000  0.51336  0.74967  Biso   1.000  C
  C16      1.0000 0.00000  0.48664  0.24967  Biso   1.000  C
  H1       1.0000 0.26310  0.70390  0.97570  Biso   1.000  H
  H2       1.0000 0.23690  0.29610  0.47570  Biso   1.000  H
  H3       1.0000 0.54610  0.01310  0.22570  Biso   1.000  H
  H4       1.0000 0.95390  0.98690  0.72570  Biso   1.000  H
  H5       1.0000 0.23690  0.70390  0.52430  Biso   1.000  H
  H6       1.0000 0.26310  0.29610  0.02430  Biso   1.000  H
  H7       1.0000 0.95390  0.01310  0.27430  Biso   1.000  H
  H8       1.0000 0.54610  0.98690  0.77430  Biso   1.000  H
  H9       1.0000 0.76310  0.20390  0.47570  Biso   1.000  H
  H10      1.0000 0.73690  0.79610  0.97570  Biso   1.000  H
  H11      1.0000 0.04610  0.51310  0.72570  Biso   1.000  H
  H12      1.0000 0.45390  0.48690  0.22570  Biso   1.000  H
  H13      1.0000 0.73690  0.20390  0.02430  Biso   1.000  H
  H14      1.0000 0.76310  0.79610  0.52430  Biso   1.000  H
  H15      1.0000 0.45390  0.51310  0.77430  Biso   1.000  H
  H16      1.0000 0.04610  0.48690  0.27430  Biso   1.000  H
  H17      1.0000 0.73690  0.29610  0.02430  Biso   1.000  H
  H18      1.0000 0.76310  0.70390  0.52430  Biso   1.000  H
  H19      1.0000 0.95390  0.48690  0.27430  Biso   1.000  H
  H20      1.0000 0.54610  0.51310  0.77430  Biso   1.000  H
  H21      1.0000 0.76310  0.29610  0.47570  Biso   1.000  H
  H22      1.0000 0.73690  0.70390  0.97570  Biso   1.000  H
  H23      1.0000 0.54610  0.48690  0.22570  Biso   1.000  H
  H24      1.0000 0.95390  0.51310  0.72570  Biso   1.000  H
  H25      1.0000 0.23690  0.79610  0.52430  Biso   1.000  H
  H26      1.0000 0.26310  0.20390  0.02430  Biso   1.000  H
  H27      1.0000 0.45390  0.98690  0.77430  Biso   1.000  H
  H28      1.0000 0.04610  0.01310  0.27430  Biso   1.000  H
  H29      1.0000 0.26310  0.79610  0.97570  Biso   1.000  H
  H30      1.0000 0.23690  0.20390  0.47570  Biso   1.000  H
  H31      1.0000 0.04610  0.98690  0.72570  Biso   1.000  H
  H32      1.0000 0.45390  0.01310  0.22570  Biso   1.000  H
  C17      1.0000 0.33820  0.75000  0.03675  Biso   1.000  C
  C18      1.0000 0.16180  0.25000  0.53675  Biso   1.000  C
  C19      1.0000 0.50000  0.08820  0.28675  Biso   1.000  C
  C20      1.0000 0.00000  0.91180  0.78675  Biso   1.000  C
  C21      1.0000 0.16180  0.75000  0.46325  Biso   1.000  C
  C22      1.0000 0.33820  0.25000  0.96325  Biso   1.000  C
  C23      1.0000 0.00000  0.08820  0.21325  Biso   1.000  C
  C24      1.0000 0.50000  0.91180  0.71325  Biso   1.000  C
  C25      1.0000 0.83820  0.25000  0.53675  Biso   1.000  C
  C26      1.0000 0.66180  0.75000  0.03675  Biso   1.000  C
  C27      1.0000 0.00000  0.58820  0.78675  Biso   1.000  C
  C28      1.0000 0.50000  0.41180  0.28675  Biso   1.000  C
  C29      1.0000 0.66180  0.25000  0.96325  Biso   1.000  C
  C30      1.0000 0.83820  0.75000  0.46325  Biso   1.000  C
  C31      1.0000 0.50000  0.58820  0.71325  Biso   1.000  C
  C32      1.0000 0.00000  0.41180  0.21325  Biso   1.000  C
  H33      1.0000 0.36920  0.79610  0.02750  Biso   1.000  H
  H34      1.0000 0.13080  0.20390  0.52750  Biso   1.000  H
  H35      1.0000 0.45390  0.11920  0.27750  Biso   1.000  H
  H36      1.0000 0.04610  0.88080  0.77750  Biso   1.000  H
  H37      1.0000 0.13080  0.79610  0.47250  Biso   1.000  H
  H38      1.0000 0.36920  0.20390  0.97250  Biso   1.000  H
  H39      1.0000 0.04610  0.11920  0.22250  Biso   1.000  H
  H40      1.0000 0.45390  0.88080  0.72250  Biso   1.000  H
  H41      1.0000 0.86920  0.29610  0.52750  Biso   1.000  H
  H42      1.0000 0.63080  0.70390  0.02750  Biso   1.000  H
  H43      1.0000 0.95390  0.61920  0.77750  Biso   1.000  H
  H44      1.0000 0.54610  0.38080  0.27750  Biso   1.000  H
  H45      1.0000 0.63080  0.29610  0.97250  Biso   1.000  H
  H46      1.0000 0.86920  0.70390  0.47250  Biso   1.000  H
  H47      1.0000 0.54610  0.61920  0.72250  Biso   1.000  H
  H48      1.0000 0.95390  0.38080  0.22250  Biso   1.000  H
  H49      1.0000 0.63080  0.20390  0.97250  Biso   1.000  H
  H50      1.0000 0.86920  0.79610  0.47250  Biso   1.000  H
  H51      1.0000 0.04610  0.38080  0.22250  Biso   1.000  H
  H52      1.0000 0.45390  0.61920  0.72250  Biso   1.000  H
  H53      1.0000 0.86920  0.20390  0.52750  Biso   1.000  H
  H54      1.0000 0.63080  0.79610  0.02750  Biso   1.000  H
  H55      1.0000 0.45390  0.38080  0.27750  Biso   1.000  H
  H56      1.0000 0.04610  0.61920  0.77750  Biso   1.000  H
  H57      1.0000 0.13080  0.70390  0.47250  Biso   1.000  H
  H58      1.0000 0.36920  0.29610  0.97250  Biso   1.000  H
  H59      1.0000 0.54610  0.88080  0.72250  Biso   1.000  H
  H60      1.0000 0.95390  0.11920  0.22250  Biso   1.000  H
  H61      1.0000 0.36920  0.70390  0.02750  Biso   1.000  H
  H62      1.0000 0.13080  0.29610  0.52750  Biso   1.000  H
  H63      1.0000 0.95390  0.88080  0.77750  Biso   1.000  H
  H64      1.0000 0.54610  0.11920  0.27750  Biso   1.000  H
  C33      1.0000 0.27081  0.82033  0.11113  Biso   1.000  C
  C34      1.0000 0.22919  0.17967  0.61113  Biso   1.000  C
  C35      1.0000 0.42967  0.02081  0.36113  Biso   1.000  C
  C36      1.0000 0.07033  0.97919  0.86113  Biso   1.000  C
  C37      1.0000 0.22919  0.82033  0.38887  Biso   1.000  C
  C38      1.0000 0.27081  0.17967  0.88887  Biso   1.000  C
  C39      1.0000 0.07033  0.02081  0.13887  Biso   1.000  C
  C40      1.0000 0.42967  0.97919  0.63887  Biso   1.000  C
  C41      1.0000 0.77081  0.32033  0.61113  Biso   1.000  C
  C42      1.0000 0.72919  0.67967  0.11113  Biso   1.000  C
  C43      1.0000 0.92967  0.52081  0.86113  Biso   1.000  C
  C44      1.0000 0.57033  0.47919  0.36113  Biso   1.000  C
  C45      1.0000 0.72919  0.32033  0.88887  Biso   1.000  C
  C46      1.0000 0.77081  0.67967  0.38887  Biso   1.000  C
  C47      1.0000 0.57033  0.52081  0.63887  Biso   1.000  C
  C48      1.0000 0.92967  0.47919  0.13887  Biso   1.000  C
  C49      1.0000 0.72919  0.17967  0.88887  Biso   1.000  C
  C50      1.0000 0.77081  0.82033  0.38887  Biso   1.000  C
  C51      1.0000 0.07033  0.47919  0.13887  Biso   1.000  C
  C52      1.0000 0.42967  0.52081  0.63887  Biso   1.000  C
  C53      1.0000 0.77081  0.17967  0.61113  Biso   1.000  C
  C54      1.0000 0.72919  0.82033  0.11113  Biso   1.000  C
  C55      1.0000 0.42967  0.47919  0.36113  Biso   1.000  C
  C56      1.0000 0.07033  0.52081  0.86113  Biso   1.000  C
  C57      1.0000 0.22919  0.67967  0.38887  Biso   1.000  C
  C58      1.0000 0.27081  0.32033  0.88887  Biso   1.000  C
  C59      1.0000 0.57033  0.97919  0.63887  Biso   1.000  C
  C60      1.0000 0.92967  0.02081  0.13887  Biso   1.000  C
  C61      1.0000 0.27081  0.67967  0.11113  Biso   1.000  C
  C62      1.0000 0.22919  0.32033  0.61113  Biso   1.000  C
  C63      1.0000 0.92967  0.97919  0.86113  Biso   1.000  C
  C64      1.0000 0.57033  0.02081  0.36113  Biso   1.000  C
  H65      1.0000 0.25750  0.82200  0.15190  Biso   1.000  H
  H66      1.0000 0.24250  0.17800  0.65190  Biso   1.000  H
  H67      1.0000 0.42800  0.00750  0.40190  Biso   1.000  H
  H68      1.0000 0.07200  0.99250  0.90190  Biso   1.000  H
  H69      1.0000 0.24250  0.82200  0.34810  Biso   1.000  H
  H70      1.0000 0.25750  0.17800  0.84810  Biso   1.000  H
  H71      1.0000 0.07200  0.00750  0.09810  Biso   1.000  H
  H72      1.0000 0.42800  0.99250  0.59810  Biso   1.000  H
  H73      1.0000 0.75750  0.32200  0.65190  Biso   1.000  H
  H74      1.0000 0.74250  0.67800  0.15190  Biso   1.000  H
  H75      1.0000 0.92800  0.50750  0.90190  Biso   1.000  H
  H76      1.0000 0.57200  0.49250  0.40190  Biso   1.000  H
  H77      1.0000 0.74250  0.32200  0.84810  Biso   1.000  H
  H78      1.0000 0.75750  0.67800  0.34810  Biso   1.000  H
  H79      1.0000 0.57200  0.50750  0.59810  Biso   1.000  H
  H80      1.0000 0.92800  0.49250  0.09810  Biso   1.000  H
  H81      1.0000 0.74250  0.17800  0.84810  Biso   1.000  H
  H82      1.0000 0.75750  0.82200  0.34810  Biso   1.000  H
  H83      1.0000 0.07200  0.49250  0.09810  Biso   1.000  H
  H84      1.0000 0.42800  0.50750  0.59810  Biso   1.000  H
  H85      1.0000 0.75750  0.17800  0.65190  Biso   1.000  H
  H86      1.0000 0.74250  0.82200  0.15190  Biso   1.000  H
  H87      1.0000 0.42800  0.49250  0.40190  Biso   1.000  H
  H88      1.0000 0.07200  0.50750  0.90190  Biso   1.000  H
  H89      1.0000 0.24250  0.67800  0.34810  Biso   1.000  H
  H90      1.0000 0.25750  0.32200  0.84810  Biso   1.000  H
  H91      1.0000 0.57200  0.99250  0.59810  Biso   1.000  H
  H92      1.0000 0.92800  0.00750  0.09810  Biso   1.000  H
  H93      1.0000 0.25750  0.67800  0.15190  Biso   1.000  H
  H94      1.0000 0.24250  0.32200  0.65190  Biso   1.000  H
  H95      1.0000 0.92800  0.99250  0.90190  Biso   1.000  H
  H96      1.0000 0.57200  0.00750  0.40190  Biso   1.000  H
  H97      1.0000 0.30080  0.86720  0.10210  Biso   1.000  H
  H98      1.0000 0.19920  0.13280  0.60210  Biso   1.000  H
  H99      1.0000 0.38280  0.05080  0.35210  Biso   1.000  H
  H100     1.0000 0.11720  0.94920  0.85210  Biso   1.000  H
  H101     1.0000 0.19920  0.86720  0.39790  Biso   1.000  H
  H102     1.0000 0.30080  0.13280  0.89790  Biso   1.000  H
  H103     1.0000 0.11720  0.05080  0.14790  Biso   1.000  H
  H104     1.0000 0.38280  0.94920  0.64790  Biso   1.000  H
  H105     1.0000 0.80080  0.36720  0.60210  Biso   1.000  H
  H106     1.0000 0.69920  0.63280  0.10210  Biso   1.000  H
  H107     1.0000 0.88280  0.55080  0.85210  Biso   1.000  H
  H108     1.0000 0.61720  0.44920  0.35210  Biso   1.000  H
  H109     1.0000 0.69920  0.36720  0.89790  Biso   1.000  H
  H110     1.0000 0.80080  0.63280  0.39790  Biso   1.000  H
  H111     1.0000 0.61720  0.55080  0.64790  Biso   1.000  H
  H112     1.0000 0.88280  0.44920  0.14790  Biso   1.000  H
  H113     1.0000 0.69920  0.13280  0.89790  Biso   1.000  H
  H114     1.0000 0.80080  0.86720  0.39790  Biso   1.000  H
  H115     1.0000 0.11720  0.44920  0.14790  Biso   1.000  H
  H116     1.0000 0.38280  0.55080  0.64790  Biso   1.000  H
  H117     1.0000 0.80080  0.13280  0.60210  Biso   1.000  H
  H118     1.0000 0.69920  0.86720  0.10210  Biso   1.000  H
  H119     1.0000 0.38280  0.44920  0.35210  Biso   1.000  H
  H120     1.0000 0.11720  0.55080  0.85210  Biso   1.000  H
  H121     1.0000 0.19920  0.63280  0.39790  Biso   1.000  H
  H122     1.0000 0.30080  0.36720  0.89790  Biso   1.000  H
  H123     1.0000 0.61720  0.94920  0.64790  Biso   1.000  H
  H124     1.0000 0.88280  0.05080  0.14790  Biso   1.000  H
  H125     1.0000 0.30080  0.63280  0.10210  Biso   1.000  H
  H126     1.0000 0.19920  0.36720  0.60210  Biso   1.000  H
  H127     1.0000 0.88280  0.94920  0.85210  Biso   1.000  H
  H128     1.0000 0.61720  0.05080  0.35210  Biso   1.000  H
  C65      1.0000 0.19489  0.81968  0.07510  Biso   1.000  C
  C66      1.0000 0.30511  0.18032  0.57510  Biso   1.000  C
  C67      1.0000 0.43032  0.94489  0.32510  Biso   1.000  C
  C68      1.0000 0.06968  0.05511  0.82510  Biso   1.000  C
  C69      1.0000 0.30511  0.81968  0.42490  Biso   1.000  C
  C70      1.0000 0.19489  0.18032  0.92490  Biso   1.000  C
  C71      1.0000 0.06968  0.94489  0.17490  Biso   1.000  C
  C72      1.0000 0.43032  0.05511  0.67490  Biso   1.000  C
  C73      1.0000 0.69489  0.31968  0.57510  Biso   1.000  C
  C74      1.0000 0.80511  0.68032  0.07510  Biso   1.000  C
  C75      1.0000 0.93032  0.44489  0.82510  Biso   1.000  C
  C76      1.0000 0.56968  0.55511  0.32510  Biso   1.000  C
  C77      1.0000 0.80511  0.31968  0.92490  Biso   1.000  C
  C78      1.0000 0.69489  0.68032  0.42490  Biso   1.000  C
  C79      1.0000 0.56968  0.44489  0.67490  Biso   1.000  C
  C80      1.0000 0.93032  0.55511  0.17490  Biso   1.000  C
  C81      1.0000 0.80511  0.18032  0.92490  Biso   1.000  C
  C82      1.0000 0.69489  0.81968  0.42490  Biso   1.000  C
  C83      1.0000 0.06968  0.55511  0.17490  Biso   1.000  C
  C84      1.0000 0.43032  0.44489  0.67490  Biso   1.000  C
  C85      1.0000 0.69489  0.18032  0.57510  Biso   1.000  C
  C86      1.0000 0.80511  0.81968  0.07510  Biso   1.000  C
  C87      1.0000 0.43032  0.55511  0.32510  Biso   1.000  C
  C88      1.0000 0.06968  0.44489  0.82510  Biso   1.000  C
  C89      1.0000 0.30511  0.68032  0.42490  Biso   1.000  C
  C90      1.0000 0.19489  0.31968  0.92490  Biso   1.000  C
  C91      1.0000 0.56968  0.05511  0.67490  Biso   1.000  C
  C92      1.0000 0.93032  0.94489  0.17490  Biso   1.000  C
  C93      1.0000 0.19489  0.68032  0.07510  Biso   1.000  C
  C94      1.0000 0.30511  0.31968  0.57510  Biso   1.000  C
  C95      1.0000 0.93032  0.05511  0.82510  Biso   1.000  C
  C96      1.0000 0.56968  0.94489  0.32510  Biso   1.000  C
  H129     1.0000 0.19230  0.86710  0.05190  Biso   1.000  H
  H130     1.0000 0.30770  0.13290  0.55190  Biso   1.000  H
  H131     1.0000 0.38290  0.94230  0.30190  Biso   1.000  H
  H132     1.0000 0.11710  0.05770  0.80190  Biso   1.000  H
  H133     1.0000 0.30770  0.86710  0.44810  Biso   1.000  H
  H134     1.0000 0.19230  0.13290  0.94810  Biso   1.000  H
  H135     1.0000 0.11710  0.94230  0.19810  Biso   1.000  H
  H136     1.0000 0.38290  0.05770  0.69810  Biso   1.000  H
  H137     1.0000 0.69230  0.36710  0.55190  Biso   1.000  H
  H138     1.0000 0.80770  0.63290  0.05190  Biso   1.000  H
  H139     1.0000 0.88290  0.44230  0.80190  Biso   1.000  H
  H140     1.0000 0.61710  0.55770  0.30190  Biso   1.000  H
  H141     1.0000 0.80770  0.36710  0.94810  Biso   1.000  H
  H142     1.0000 0.69230  0.63290  0.44810  Biso   1.000  H
  H143     1.0000 0.61710  0.44230  0.69810  Biso   1.000  H
  H144     1.0000 0.88290  0.55770  0.19810  Biso   1.000  H
  H145     1.0000 0.80770  0.13290  0.94810  Biso   1.000  H
  H146     1.0000 0.69230  0.86710  0.44810  Biso   1.000  H
  H147     1.0000 0.11710  0.55770  0.19810  Biso   1.000  H
  H148     1.0000 0.38290  0.44230  0.69810  Biso   1.000  H
  H149     1.0000 0.69230  0.13290  0.55190  Biso   1.000  H
  H150     1.0000 0.80770  0.86710  0.05190  Biso   1.000  H
  H151     1.0000 0.38290  0.55770  0.30190  Biso   1.000  H
  H152     1.0000 0.11710  0.44230  0.80190  Biso   1.000  H
  H153     1.0000 0.30770  0.63290  0.44810  Biso   1.000  H
  H154     1.0000 0.19230  0.36710  0.94810  Biso   1.000  H
  H155     1.0000 0.61710  0.05770  0.69810  Biso   1.000  H
  H156     1.0000 0.88290  0.94230  0.19810  Biso   1.000  H
  H157     1.0000 0.19230  0.63290  0.05190  Biso   1.000  H
  H158     1.0000 0.30770  0.36710  0.55190  Biso   1.000  H
  H159     1.0000 0.88290  0.05770  0.80190  Biso   1.000  H
  H160     1.0000 0.61710  0.94230  0.30190  Biso   1.000  H
  H161     1.0000 0.14990  0.81920  0.10080  Biso   1.000  H
  H162     1.0000 0.35010  0.18080  0.60080  Biso   1.000  H
  H163     1.0000 0.43080  0.89990  0.35080  Biso   1.000  H
  H164     1.0000 0.06920  0.10010  0.85080  Biso   1.000  H
  H165     1.0000 0.35010  0.81920  0.39920  Biso   1.000  H
  H166     1.0000 0.14990  0.18080  0.89920  Biso   1.000  H
  H167     1.0000 0.06920  0.89990  0.14920  Biso   1.000  H
  H168     1.0000 0.43080  0.10010  0.64920  Biso   1.000  H
  H169     1.0000 0.64990  0.31920  0.60080  Biso   1.000  H
  H170     1.0000 0.85010  0.68080  0.10080  Biso   1.000  H
  H171     1.0000 0.93080  0.39990  0.85080  Biso   1.000  H
  H172     1.0000 0.56920  0.60010  0.35080  Biso   1.000  H
  H173     1.0000 0.85010  0.31920  0.89920  Biso   1.000  H
  H174     1.0000 0.64990  0.68080  0.39920  Biso   1.000  H
  H175     1.0000 0.56920  0.39990  0.64920  Biso   1.000  H
  H176     1.0000 0.93080  0.60010  0.14920  Biso   1.000  H
  H177     1.0000 0.85010  0.18080  0.89920  Biso   1.000  H
  H178     1.0000 0.64990  0.81920  0.39920  Biso   1.000  H
  H179     1.0000 0.06920  0.60010  0.14920  Biso   1.000  H
  H180     1.0000 0.43080  0.39990  0.64920  Biso   1.000  H
  H181     1.0000 0.64990  0.18080  0.60080  Biso   1.000  H
  H182     1.0000 0.85010  0.81920  0.10080  Biso   1.000  H
  H183     1.0000 0.43080  0.60010  0.35080  Biso   1.000  H
  H184     1.0000 0.06920  0.39990  0.85080  Biso   1.000  H
  H185     1.0000 0.35010  0.68080  0.39920  Biso   1.000  H
  H186     1.0000 0.14990  0.31920  0.89920  Biso   1.000  H
  H187     1.0000 0.56920  0.10010  0.64920  Biso   1.000  H
  H188     1.0000 0.93080  0.89990  0.14920  Biso   1.000  H
  H189     1.0000 0.14990  0.68080  0.10080  Biso   1.000  H
  H190     1.0000 0.35010  0.31920  0.60080  Biso   1.000  H
  H191     1.0000 0.93080  0.10010  0.85080  Biso   1.000  H
  H192     1.0000 0.56920  0.89990  0.35080  Biso   1.000  H
  N33      1.0000 0.75000  0.87220  0.75000  Biso   1.000  N
  N34      1.0000 0.75000  0.12780  0.25000  Biso   1.000  N
  N35      1.0000 0.37780  0.50000  0.00000  Biso   1.000  N
  N36      1.0000 0.12220  0.50000  0.50000  Biso   1.000  N
  N37      1.0000 0.25000  0.37220  0.25000  Biso   1.000  N
  N38      1.0000 0.25000  0.62780  0.75000  Biso   1.000  N
  N39      1.0000 0.87780  0.00000  0.50000  Biso   1.000  N
  N40      1.0000 0.62220  0.00000  0.00000  Biso   1.000  N
  N41      1.0000 0.25000  0.12780  0.25000  Biso   1.000  N
  N42      1.0000 0.25000  0.87220  0.75000  Biso   1.000  N
  N43      1.0000 0.12220  0.00000  0.50000  Biso   1.000  N
  N44      1.0000 0.37780  0.00000  0.00000  Biso   1.000  N
  N45      1.0000 0.75000  0.62780  0.75000  Biso   1.000  N
  N46      1.0000 0.75000  0.37220  0.25000  Biso   1.000  N
  N47      1.0000 0.62220  0.50000  0.00000  Biso   1.000  N
  N48      1.0000 0.87780  0.50000  0.50000  Biso   1.000  N
  N49      1.0000 0.75000  0.03470  0.75000  Biso   1.000  N
  N50      1.0000 0.75000  0.96530  0.25000  Biso   1.000  N
  N51      1.0000 0.21530  0.50000  0.00000  Biso   1.000  N
  N52      1.0000 0.28470  0.50000  0.50000  Biso   1.000  N
  N53      1.0000 0.25000  0.53470  0.25000  Biso   1.000  N
  N54      1.0000 0.25000  0.46530  0.75000  Biso   1.000  N
  N55      1.0000 0.71530  0.00000  0.50000  Biso   1.000  N
  N56      1.0000 0.78470  0.00000  0.00000  Biso   1.000  N
  N57      1.0000 0.25000  0.96530  0.25000  Biso   1.000  N
  N58      1.0000 0.25000  0.03470  0.75000  Biso   1.000  N
  N59      1.0000 0.28470  0.00000  0.50000  Biso   1.000  N
  N60      1.0000 0.21530  0.00000  0.00000  Biso   1.000  N
  N61      1.0000 0.75000  0.46530  0.75000  Biso   1.000  N
  N62      1.0000 0.75000  0.53470  0.25000  Biso   1.000  N
  N63      1.0000 0.78470  0.50000  0.00000  Biso   1.000  N
  N64      1.0000 0.71530  0.50000  0.50000  Biso   1.000  N
  C97      1.0000 0.78582  0.91332  0.70516  Biso   1.000  C
  C98      1.0000 0.71418  0.08668  0.20516  Biso   1.000  C
  C99      1.0000 0.33668  0.53582  0.95516  Biso   1.000  C
  C100     1.0000 0.16332  0.46418  0.45516  Biso   1.000  C
  C101     1.0000 0.71418  0.91332  0.79484  Biso   1.000  C
  C102     1.0000 0.78582  0.08668  0.29484  Biso   1.000  C
  C103     1.0000 0.16332  0.53582  0.54484  Biso   1.000  C
  C104     1.0000 0.33668  0.46418  0.04484  Biso   1.000  C
  C105     1.0000 0.28582  0.41332  0.20516  Biso   1.000  C
  C106     1.0000 0.21418  0.58668  0.70516  Biso   1.000  C
  C107     1.0000 0.83668  0.03582  0.45516  Biso   1.000  C
  C108     1.0000 0.66332  0.96418  0.95516  Biso   1.000  C
  C109     1.0000 0.21418  0.41332  0.29484  Biso   1.000  C
  C110     1.0000 0.28582  0.58668  0.79484  Biso   1.000  C
  C111     1.0000 0.66332  0.03582  0.04484  Biso   1.000  C
  C112     1.0000 0.83668  0.96418  0.54484  Biso   1.000  C
  C113     1.0000 0.21418  0.08668  0.29484  Biso   1.000  C
  C114     1.0000 0.28582  0.91332  0.79484  Biso   1.000  C
  C115     1.0000 0.16332  0.96418  0.54484  Biso   1.000  C
  C116     1.0000 0.33668  0.03582  0.04484  Biso   1.000  C
  C117     1.0000 0.28582  0.08668  0.20516  Biso   1.000  C
  C118     1.0000 0.21418  0.91332  0.70516  Biso   1.000  C
  C119     1.0000 0.33668  0.96418  0.95516  Biso   1.000  C
  C120     1.0000 0.16332  0.03582  0.45516  Biso   1.000  C
  C121     1.0000 0.71418  0.58668  0.79484  Biso   1.000  C
  C122     1.0000 0.78582  0.41332  0.29484  Biso   1.000  C
  C123     1.0000 0.66332  0.46418  0.04484  Biso   1.000  C
  C124     1.0000 0.83668  0.53582  0.54484  Biso   1.000  C
  C125     1.0000 0.78582  0.58668  0.70516  Biso   1.000  C
  C126     1.0000 0.71418  0.41332  0.20516  Biso   1.000  C
  C127     1.0000 0.83668  0.46418  0.45516  Biso   1.000  C
  C128     1.0000 0.66332  0.53582  0.95516  Biso   1.000  C
  H193     1.0000 0.81020  0.88610  0.67530  Biso   1.000  H
  H194     1.0000 0.68980  0.11390  0.17530  Biso   1.000  H
  H195     1.0000 0.36390  0.56020  0.92530  Biso   1.000  H
  H196     1.0000 0.13610  0.43980  0.42530  Biso   1.000  H
  H197     1.0000 0.68980  0.88610  0.82470  Biso   1.000  H
  H198     1.0000 0.81020  0.11390  0.32470  Biso   1.000  H
  H199     1.0000 0.13610  0.56020  0.57470  Biso   1.000  H
  H200     1.0000 0.36390  0.43980  0.07470  Biso   1.000  H
  H201     1.0000 0.31020  0.38610  0.17530  Biso   1.000  H
  H202     1.0000 0.18980  0.61390  0.67530  Biso   1.000  H
  H203     1.0000 0.86390  0.06020  0.42530  Biso   1.000  H
  H204     1.0000 0.63610  0.93980  0.92530  Biso   1.000  H
  H205     1.0000 0.18980  0.38610  0.32470  Biso   1.000  H
  H206     1.0000 0.31020  0.61390  0.82470  Biso   1.000  H
  H207     1.0000 0.63610  0.06020  0.07470  Biso   1.000  H
  H208     1.0000 0.86390  0.93980  0.57470  Biso   1.000  H
  H209     1.0000 0.18980  0.11390  0.32470  Biso   1.000  H
  H210     1.0000 0.31020  0.88610  0.82470  Biso   1.000  H
  H211     1.0000 0.13610  0.93980  0.57470  Biso   1.000  H
  H212     1.0000 0.36390  0.06020  0.07470  Biso   1.000  H
  H213     1.0000 0.31020  0.11390  0.17530  Biso   1.000  H
  H214     1.0000 0.18980  0.88610  0.67530  Biso   1.000  H
  H215     1.0000 0.36390  0.93980  0.92530  Biso   1.000  H
  H216     1.0000 0.13610  0.06020  0.42530  Biso   1.000  H
  H217     1.0000 0.68980  0.61390  0.82470  Biso   1.000  H
  H218     1.0000 0.81020  0.38610  0.32470  Biso   1.000  H
  H219     1.0000 0.63610  0.43980  0.07470  Biso   1.000  H
  H220     1.0000 0.86390  0.56020  0.57470  Biso   1.000  H
  H221     1.0000 0.81020  0.61390  0.67530  Biso   1.000  H
  H222     1.0000 0.68980  0.38610  0.17530  Biso   1.000  H
  H223     1.0000 0.86390  0.43980  0.42530  Biso   1.000  H
  H224     1.0000 0.63610  0.56020  0.92530  Biso   1.000  H
  C129     1.0000 0.78535  0.99303  0.70488  Biso   1.000  C
  C130     1.0000 0.71465  0.00697  0.20488  Biso   1.000  C
  C131     1.0000 0.25697  0.53535  0.95488  Biso   1.000  C
  C132     1.0000 0.24303  0.46465  0.45488  Biso   1.000  C
  C133     1.0000 0.71465  0.99303  0.79512  Biso   1.000  C
  C134     1.0000 0.78535  0.00697  0.29512  Biso   1.000  C
  C135     1.0000 0.24303  0.53535  0.54512  Biso   1.000  C
  C136     1.0000 0.25697  0.46465  0.04512  Biso   1.000  C
  C137     1.0000 0.28535  0.49303  0.20488  Biso   1.000  C
  C138     1.0000 0.21465  0.50697  0.70488  Biso   1.000  C
  C139     1.0000 0.75697  0.03535  0.45488  Biso   1.000  C
  C140     1.0000 0.74303  0.96465  0.95488  Biso   1.000  C
  C141     1.0000 0.21465  0.49303  0.29512  Biso   1.000  C
  C142     1.0000 0.28535  0.50697  0.79512  Biso   1.000  C
  C143     1.0000 0.74303  0.03535  0.04512  Biso   1.000  C
  C144     1.0000 0.75697  0.96465  0.54512  Biso   1.000  C
  C145     1.0000 0.21465  0.00697  0.29512  Biso   1.000  C
  C146     1.0000 0.28535  0.99303  0.79512  Biso   1.000  C
  C147     1.0000 0.24303  0.96465  0.54512  Biso   1.000  C
  C148     1.0000 0.25697  0.03535  0.04512  Biso   1.000  C
  C149     1.0000 0.28535  0.00697  0.20488  Biso   1.000  C
  C150     1.0000 0.21465  0.99303  0.70488  Biso   1.000  C
  C151     1.0000 0.25697  0.96465  0.95488  Biso   1.000  C
  C152     1.0000 0.24303  0.03535  0.45488  Biso   1.000  C
  C153     1.0000 0.71465  0.50697  0.79512  Biso   1.000  C
  C154     1.0000 0.78535  0.49303  0.29512  Biso   1.000  C
  C155     1.0000 0.74303  0.46465  0.04512  Biso   1.000  C
  C156     1.0000 0.75697  0.53535  0.54512  Biso   1.000  C
  C157     1.0000 0.78535  0.50697  0.70488  Biso   1.000  C
  C158     1.0000 0.71465  0.49303  0.20488  Biso   1.000  C
  C159     1.0000 0.75697  0.46465  0.45488  Biso   1.000  C
  C160     1.0000 0.74303  0.53535  0.95488  Biso   1.000  C
  H225     1.0000 0.80870  0.02010  0.67450  Biso   1.000  H
  H226     1.0000 0.69130  0.97990  0.17450  Biso   1.000  H
  H227     1.0000 0.22990  0.55870  0.92450  Biso   1.000  H
  H228     1.0000 0.27010  0.44130  0.42450  Biso   1.000  H
  H229     1.0000 0.69130  0.02010  0.82550  Biso   1.000  H
  H230     1.0000 0.80870  0.97990  0.32550  Biso   1.000  H
  H231     1.0000 0.27010  0.55870  0.57550  Biso   1.000  H
  H232     1.0000 0.22990  0.44130  0.07550  Biso   1.000  H
  H233     1.0000 0.30870  0.52010  0.17450  Biso   1.000  H
  H234     1.0000 0.19130  0.47990  0.67450  Biso   1.000  H
  H235     1.0000 0.72990  0.05870  0.42450  Biso   1.000  H
  H236     1.0000 0.77010  0.94130  0.92450  Biso   1.000  H
  H237     1.0000 0.19130  0.52010  0.32550  Biso   1.000  H
  H238     1.0000 0.30870  0.47990  0.82550  Biso   1.000  H
  H239     1.0000 0.77010  0.05870  0.07550  Biso   1.000  H
  H240     1.0000 0.72990  0.94130  0.57550  Biso   1.000  H
  H241     1.0000 0.19130  0.97990  0.32550  Biso   1.000  H
  H242     1.0000 0.30870  0.02010  0.82550  Biso   1.000  H
  H243     1.0000 0.27010  0.94130  0.57550  Biso   1.000  H
  H244     1.0000 0.22990  0.05870  0.07550  Biso   1.000  H
  H245     1.0000 0.30870  0.97990  0.17450  Biso   1.000  H
  H246     1.0000 0.19130  0.02010  0.67450  Biso   1.000  H
  H247     1.0000 0.22990  0.94130  0.92450  Biso   1.000  H
  H248     1.0000 0.27010  0.05870  0.42450  Biso   1.000  H
  H249     1.0000 0.69130  0.47990  0.82550  Biso   1.000  H
  H250     1.0000 0.80870  0.52010  0.32550  Biso   1.000  H
  H251     1.0000 0.77010  0.44130  0.07550  Biso   1.000  H
  H252     1.0000 0.72990  0.55870  0.57550  Biso   1.000  H
  H253     1.0000 0.80870  0.47990  0.67450  Biso   1.000  H
  H254     1.0000 0.69130  0.52010  0.17450  Biso   1.000  H
  H255     1.0000 0.72990  0.44130  0.42450  Biso   1.000  H
  H256     1.0000 0.77010  0.55870  0.92450  Biso   1.000  H
  O1       1.0000 0.42030  0.75000  0.83320  Biso   1.000  O
  O2       1.0000 0.07970  0.25000  0.33320  Biso   1.000  O
  O3       1.0000 0.50000  0.17030  0.08320  Biso   1.000  O
  O4       1.0000 0.00000  0.82970  0.58320  Biso   1.000  O
  O5       1.0000 0.07970  0.75000  0.66680  Biso   1.000  O
  O6       1.0000 0.42030  0.25000  0.16680  Biso   1.000  O
  O7       1.0000 0.00000  0.17030  0.41680  Biso   1.000  O
  O8       1.0000 0.50000  0.82970  0.91680  Biso   1.000  O
  O9       1.0000 0.92030  0.25000  0.33320  Biso   1.000  O
  O10      1.0000 0.57970  0.75000  0.83320  Biso   1.000  O
  O11      1.0000 0.00000  0.67030  0.58320  Biso   1.000  O
  O12      1.0000 0.50000  0.32970  0.08320  Biso   1.000  O
  O13      1.0000 0.57970  0.25000  0.16680  Biso   1.000  O
  O14      1.0000 0.92030  0.75000  0.66680  Biso   1.000  O
  O15      1.0000 0.50000  0.67030  0.91680  Biso   1.000  O
  O16      1.0000 0.00000  0.32970  0.41680  Biso   1.000  O
  O17      1.0000 0.50000  0.75000  0.81550  Biso   1.000  O
  O18      1.0000 0.00000  0.25000  0.31550  Biso   1.000  O
  O19      1.0000 0.50000  0.25000  0.06550  Biso   1.000  O
  O20      1.0000 0.00000  0.75000  0.56550  Biso   1.000  O
  O21      1.0000 0.00000  0.75000  0.68450  Biso   1.000  O
  O22      1.0000 0.50000  0.25000  0.18450  Biso   1.000  O
  O23      1.0000 0.00000  0.25000  0.43450  Biso   1.000  O
  O24      1.0000 0.50000  0.75000  0.93450  Biso   1.000  O
  O25      1.0000 0.42170  0.75000  0.88920  Biso   1.000  O
  O26      1.0000 0.07830  0.25000  0.38920  Biso   1.000  O
  O27      1.0000 0.50000  0.17170  0.13920  Biso   1.000  O
  O28      1.0000 0.00000  0.82830  0.63920  Biso   1.000  O
  O29      1.0000 0.07830  0.75000  0.61080  Biso   1.000  O
  O30      1.0000 0.42170  0.25000  0.11080  Biso   1.000  O
  O31      1.0000 0.00000  0.17170  0.36080  Biso   1.000  O
  O32      1.0000 0.50000  0.82830  0.86080  Biso   1.000  O
  O33      1.0000 0.92170  0.25000  0.38920  Biso   1.000  O
  O34      1.0000 0.57830  0.75000  0.88920  Biso   1.000  O
  O35      1.0000 0.00000  0.67170  0.63920  Biso   1.000  O
  O36      1.0000 0.50000  0.32830  0.13920  Biso   1.000  O
  O37      1.0000 0.57830  0.25000  0.11080  Biso   1.000  O
  O38      1.0000 0.92170  0.75000  0.61080  Biso   1.000  O
  O39      1.0000 0.50000  0.67170  0.86080  Biso   1.000  O
  O40      1.0000 0.00000  0.32830  0.36080  Biso   1.000  O
