data_image0
_cell_length_a       13.9077
_cell_length_b       13.9077
_cell_length_c       14.1742
_cell_angle_alpha    90
_cell_angle_beta     90
_cell_angle_gamma    90

_symmetry_space_group_name_H-M    "P 1"
_symmetry_int_tables_number       1

loop_
  _symmetry_equiv_pos_as_xyz
  'x, y, z'

loop_
  _atom_site_label
  _atom_site_occupancy
  _atom_site_fract_x
  _atom_site_fract_y
  _atom_site_fract_z
  _atom_site_thermal_displace_type
  _atom_site_B_iso_or_equiv
  _atom_site_type_symbol
  I1       1.0000 0.96706  0.73843  0.99897  Biso   1.000  I
  I2       1.0000 0.03294  0.26157  0.99897  Biso   1.000  I
  I3       1.0000 0.76157  0.46706  0.49897  Biso   1.000  I
  I4       1.0000 0.23843  0.53294  0.49897  Biso   1.000  I
  I5       1.0000 0.53294  0.23843  0.50103  Biso   1.000  I
  I6       1.0000 0.46706  0.76157  0.50103  Biso   1.000  I
  I7       1.0000 0.73843  0.96706  0.00103  Biso   1.000  I
  I8       1.0000 0.26157  0.03294  0.00103  Biso   1.000  I
  I9       1.0000 0.81928  0.47984  0.99430  Biso   1.000  I
  I10      1.0000 0.18072  0.52016  0.99430  Biso   1.000  I
  I11      1.0000 0.02016  0.31928  0.49430  Biso   1.000  I
  I12      1.0000 0.97984  0.68072  0.49430  Biso   1.000  I
  I13      1.0000 0.68072  0.97984  0.50570  Biso   1.000  I
  I14      1.0000 0.31928  0.02016  0.50570  Biso   1.000  I
  I15      1.0000 0.47984  0.81928  0.00570  Biso   1.000  I
  I16      1.0000 0.52016  0.18072  0.00570  Biso   1.000  I
  I17      1.0000 0.00000  0.50000  0.23133  Biso   1.000  I
  I18      1.0000 0.00000  0.50000  0.73133  Biso   1.000  I
  I19      1.0000 0.50000  0.00000  0.26867  Biso   1.000  I
  I20      1.0000 0.50000  0.00000  0.76867  Biso   1.000  I
  I21      1.0000 0.00000  0.00000  0.84040  Biso   1.000  I
  I22      1.0000 0.50000  0.50000  0.34040  Biso   1.000  I
  I23      1.0000 0.50000  0.50000  0.65960  Biso   1.000  I
  I24      1.0000 0.00000  0.00000  0.15960  Biso   1.000  I
  Cu1      1.0000 0.88910  0.61259  0.11821  Biso   1.000  Cu
  Cu2      1.0000 0.11090  0.38741  0.11821  Biso   1.000  Cu
  Cu3      1.0000 0.88741  0.38910  0.61821  Biso   1.000  Cu
  Cu4      1.0000 0.11259  0.61090  0.61821  Biso   1.000  Cu
  Cu5      1.0000 0.61090  0.11259  0.38179  Biso   1.000  Cu
  Cu6      1.0000 0.38910  0.88741  0.38179  Biso   1.000  Cu
  Cu7      1.0000 0.61259  0.88910  0.88179  Biso   1.000  Cu
  Cu8      1.0000 0.38741  0.11090  0.88179  Biso   1.000  Cu
  Cu9      1.0000 0.91820  0.36206  0.10954  Biso   1.000  Cu
  Cu10     1.0000 0.08180  0.63794  0.10954  Biso   1.000  Cu
  Cu11     1.0000 0.13794  0.41820  0.60954  Biso   1.000  Cu
  Cu12     1.0000 0.86206  0.58180  0.60954  Biso   1.000  Cu
  Cu13     1.0000 0.58180  0.86206  0.39046  Biso   1.000  Cu
  Cu14     1.0000 0.41820  0.13794  0.39046  Biso   1.000  Cu
  Cu15     1.0000 0.36206  0.91820  0.89046  Biso   1.000  Cu
  Cu16     1.0000 0.63794  0.08180  0.89046  Biso   1.000  Cu
  Cu17     1.0000 0.00000  0.50000  0.00160  Biso   1.000  Cu
  Cu18     1.0000 0.00000  0.50000  0.50160  Biso   1.000  Cu
  Cu19     1.0000 0.50000  0.00000  0.49840  Biso   1.000  Cu
  Cu20     1.0000 0.50000  0.00000  0.99840  Biso   1.000  Cu
  Cu21     1.0000 0.93328  0.93328  0.00000  Biso   1.000  Cu
  Cu22     1.0000 0.06672  0.06672  0.00000  Biso   1.000  Cu
  Cu23     1.0000 0.56672  0.43328  0.50000  Biso   1.000  Cu
  Cu24     1.0000 0.43328  0.56672  0.50000  Biso   1.000  Cu
  N1       1.0000 0.79210  0.68470  0.20240  Biso   1.000  N
  N2       1.0000 0.20790  0.31530  0.20240  Biso   1.000  N
  N3       1.0000 0.81530  0.29210  0.70240  Biso   1.000  N
  N4       1.0000 0.18470  0.70790  0.70240  Biso   1.000  N
  N5       1.0000 0.70790  0.18470  0.29760  Biso   1.000  N
  N6       1.0000 0.29210  0.81530  0.29760  Biso   1.000  N
  N7       1.0000 0.68470  0.79210  0.79760  Biso   1.000  N
  N8       1.0000 0.31530  0.20790  0.79760  Biso   1.000  N
  N9       1.0000 0.67630  0.78520  0.30780  Biso   1.000  N
  N10      1.0000 0.32370  0.21480  0.30780  Biso   1.000  N
  N11      1.0000 0.71480  0.17630  0.80780  Biso   1.000  N
  N12      1.0000 0.28520  0.82370  0.80780  Biso   1.000  N
  N13      1.0000 0.82370  0.28520  0.19220  Biso   1.000  N
  N14      1.0000 0.17630  0.71480  0.19220  Biso   1.000  N
  N15      1.0000 0.78520  0.67630  0.69220  Biso   1.000  N
  N16      1.0000 0.21480  0.32370  0.69220  Biso   1.000  N
  C1       1.0000 0.70200  0.70560  0.15470  Biso   1.000  C
  C2       1.0000 0.29800  0.29440  0.15470  Biso   1.000  C
  C3       1.0000 0.79440  0.20200  0.65470  Biso   1.000  C
  C4       1.0000 0.20560  0.79800  0.65470  Biso   1.000  C
  C5       1.0000 0.79800  0.20560  0.34530  Biso   1.000  C
  C6       1.0000 0.20200  0.79440  0.34530  Biso   1.000  C
  C7       1.0000 0.70560  0.70200  0.84530  Biso   1.000  C
  C8       1.0000 0.29440  0.29800  0.84530  Biso   1.000  C
  H1       1.0000 0.67430  0.64640  0.13090  Biso   1.000  H
  H2       1.0000 0.32570  0.35360  0.13090  Biso   1.000  H
  H3       1.0000 0.85360  0.17430  0.63090  Biso   1.000  H
  H4       1.0000 0.14640  0.82570  0.63090  Biso   1.000  H
  H5       1.0000 0.82570  0.14640  0.36910  Biso   1.000  H
  H6       1.0000 0.17430  0.85360  0.36910  Biso   1.000  H
  H7       1.0000 0.64640  0.67430  0.86910  Biso   1.000  H
  H8       1.0000 0.35360  0.32570  0.86910  Biso   1.000  H
  H9       1.0000 0.71400  0.74760  0.10130  Biso   1.000  H
  H10      1.0000 0.28600  0.25240  0.10130  Biso   1.000  H
  H11      1.0000 0.75240  0.21400  0.60130  Biso   1.000  H
  H12      1.0000 0.24760  0.78600  0.60130  Biso   1.000  H
  H13      1.0000 0.78600  0.24760  0.39870  Biso   1.000  H
  H14      1.0000 0.21400  0.75240  0.39870  Biso   1.000  H
  H15      1.0000 0.74760  0.71400  0.89870  Biso   1.000  H
  H16      1.0000 0.25240  0.28600  0.89870  Biso   1.000  H
  C9       1.0000 0.63060  0.75400  0.22200  Biso   1.000  C
  C10      1.0000 0.36940  0.24600  0.22200  Biso   1.000  C
  C11      1.0000 0.74600  0.13060  0.72200  Biso   1.000  C
  C12      1.0000 0.25400  0.86940  0.72200  Biso   1.000  C
  C13      1.0000 0.86940  0.25400  0.27800  Biso   1.000  C
  C14      1.0000 0.13060  0.74600  0.27800  Biso   1.000  C
  C15      1.0000 0.75400  0.63060  0.77800  Biso   1.000  C
  C16      1.0000 0.24600  0.36940  0.77800  Biso   1.000  C
  H17      1.0000 0.60180  0.80900  0.19080  Biso   1.000  H
  H18      1.0000 0.39820  0.19100  0.19080  Biso   1.000  H
  H19      1.0000 0.69100  0.10180  0.69080  Biso   1.000  H
  H20      1.0000 0.30900  0.89820  0.69080  Biso   1.000  H
  H21      1.0000 0.89820  0.30900  0.30920  Biso   1.000  H
  H22      1.0000 0.10180  0.69100  0.30920  Biso   1.000  H
  H23      1.0000 0.80900  0.60180  0.80920  Biso   1.000  H
  H24      1.0000 0.19100  0.39820  0.80920  Biso   1.000  H
  H25      1.0000 0.57960  0.70910  0.23720  Biso   1.000  H
  H26      1.0000 0.42040  0.29090  0.23720  Biso   1.000  H
  H27      1.0000 0.79090  0.07960  0.73720  Biso   1.000  H
  H28      1.0000 0.20910  0.92040  0.73720  Biso   1.000  H
  H29      1.0000 0.92040  0.20910  0.26280  Biso   1.000  H
  H30      1.0000 0.07960  0.79090  0.26280  Biso   1.000  H
  H31      1.0000 0.70910  0.57960  0.76280  Biso   1.000  H
  H32      1.0000 0.29090  0.42040  0.76280  Biso   1.000  H
  C17      1.0000 0.83480  0.77940  0.22960  Biso   1.000  C
  C18      1.0000 0.16520  0.22060  0.22960  Biso   1.000  C
  C19      1.0000 0.72060  0.33480  0.72960  Biso   1.000  C
  C20      1.0000 0.27940  0.66520  0.72960  Biso   1.000  C
  C21      1.0000 0.66520  0.27940  0.27040  Biso   1.000  C
  C22      1.0000 0.33480  0.72060  0.27040  Biso   1.000  C
  C23      1.0000 0.77940  0.83480  0.77040  Biso   1.000  C
  C24      1.0000 0.22060  0.16520  0.77040  Biso   1.000  C
  H33      1.0000 0.85790  0.81210  0.17360  Biso   1.000  H
  H34      1.0000 0.14210  0.18790  0.17360  Biso   1.000  H
  H35      1.0000 0.68790  0.35790  0.67360  Biso   1.000  H
  H36      1.0000 0.31210  0.64210  0.67360  Biso   1.000  H
  H37      1.0000 0.64210  0.31210  0.32640  Biso   1.000  H
  H38      1.0000 0.35790  0.68790  0.32640  Biso   1.000  H
  H39      1.0000 0.81210  0.85790  0.82640  Biso   1.000  H
  H40      1.0000 0.18790  0.14210  0.82640  Biso   1.000  H
  H41      1.0000 0.88920  0.76880  0.27120  Biso   1.000  H
  H42      1.0000 0.11080  0.23120  0.27120  Biso   1.000  H
  H43      1.0000 0.73120  0.38920  0.77120  Biso   1.000  H
  H44      1.0000 0.26880  0.61080  0.77120  Biso   1.000  H
  H45      1.0000 0.61080  0.26880  0.22880  Biso   1.000  H
  H46      1.0000 0.38920  0.73120  0.22880  Biso   1.000  H
  H47      1.0000 0.76880  0.88920  0.72880  Biso   1.000  H
  H48      1.0000 0.23120  0.11080  0.72880  Biso   1.000  H
  C25      1.0000 0.75980  0.84300  0.27990  Biso   1.000  C
  C26      1.0000 0.24020  0.15700  0.27990  Biso   1.000  C
  C27      1.0000 0.65700  0.25980  0.77990  Biso   1.000  C
  C28      1.0000 0.34300  0.74020  0.77990  Biso   1.000  C
  C29      1.0000 0.74020  0.34300  0.22010  Biso   1.000  C
  C30      1.0000 0.25980  0.65700  0.22010  Biso   1.000  C
  C31      1.0000 0.84300  0.75980  0.72010  Biso   1.000  C
  C32      1.0000 0.15700  0.24020  0.72010  Biso   1.000  C
  H49      1.0000 0.78850  0.87210  0.33540  Biso   1.000  H
  H50      1.0000 0.21150  0.12790  0.33540  Biso   1.000  H
  H51      1.0000 0.62790  0.28850  0.83540  Biso   1.000  H
  H52      1.0000 0.37210  0.71150  0.83540  Biso   1.000  H
  H53      1.0000 0.71150  0.37210  0.16460  Biso   1.000  H
  H54      1.0000 0.28850  0.62790  0.16460  Biso   1.000  H
  H55      1.0000 0.87210  0.78850  0.66460  Biso   1.000  H
  H56      1.0000 0.12790  0.21150  0.66460  Biso   1.000  H
  H57      1.0000 0.73940  0.89420  0.23790  Biso   1.000  H
  H58      1.0000 0.26060  0.10580  0.23790  Biso   1.000  H
  H59      1.0000 0.60580  0.23940  0.73790  Biso   1.000  H
  H60      1.0000 0.39420  0.76060  0.73790  Biso   1.000  H
  H61      1.0000 0.76060  0.39420  0.26210  Biso   1.000  H
  H62      1.0000 0.23940  0.60580  0.26210  Biso   1.000  H
  H63      1.0000 0.89420  0.73940  0.76210  Biso   1.000  H
  H64      1.0000 0.10580  0.26060  0.76210  Biso   1.000  H
  C33      1.0000 0.76790  0.63360  0.29360  Biso   1.000  C
  C34      1.0000 0.23210  0.36640  0.29360  Biso   1.000  C
  C35      1.0000 0.86640  0.26790  0.79360  Biso   1.000  C
  C36      1.0000 0.13360  0.73210  0.79360  Biso   1.000  C
  C37      1.0000 0.73210  0.13360  0.20640  Biso   1.000  C
  C38      1.0000 0.26790  0.86640  0.20640  Biso   1.000  C
  C39      1.0000 0.63360  0.76790  0.70640  Biso   1.000  C
  C40      1.0000 0.36640  0.23210  0.70640  Biso   1.000  C
  H65      1.0000 0.82680  0.61490  0.32520  Biso   1.000  H
  H66      1.0000 0.17320  0.38510  0.32520  Biso   1.000  H
  H67      1.0000 0.88510  0.32680  0.82520  Biso   1.000  H
  H68      1.0000 0.11490  0.67320  0.82520  Biso   1.000  H
  H69      1.0000 0.67320  0.11490  0.17480  Biso   1.000  H
  H70      1.0000 0.32680  0.88510  0.17480  Biso   1.000  H
  H71      1.0000 0.61490  0.82680  0.67480  Biso   1.000  H
  H72      1.0000 0.38510  0.17320  0.67480  Biso   1.000  H
  H73      1.0000 0.73160  0.57580  0.27980  Biso   1.000  H
  H74      1.0000 0.26840  0.42420  0.27980  Biso   1.000  H
  H75      1.0000 0.92420  0.23160  0.77980  Biso   1.000  H
  H76      1.0000 0.07580  0.76840  0.77980  Biso   1.000  H
  H77      1.0000 0.76840  0.07580  0.22020  Biso   1.000  H
  H78      1.0000 0.23160  0.92420  0.22020  Biso   1.000  H
  H79      1.0000 0.57580  0.73160  0.72020  Biso   1.000  H
  H80      1.0000 0.42420  0.26840  0.72020  Biso   1.000  H
  C41      1.0000 0.70920  0.69840  0.35830  Biso   1.000  C
  C42      1.0000 0.29080  0.30160  0.35830  Biso   1.000  C
  C43      1.0000 0.80160  0.20920  0.85830  Biso   1.000  C
  C44      1.0000 0.19840  0.79080  0.85830  Biso   1.000  C
  C45      1.0000 0.79080  0.19840  0.14170  Biso   1.000  C
  C46      1.0000 0.20920  0.80160  0.14170  Biso   1.000  C
  C47      1.0000 0.69840  0.70920  0.64170  Biso   1.000  C
  C48      1.0000 0.30160  0.29080  0.64170  Biso   1.000  C
  H81      1.0000 0.65390  0.66320  0.38170  Biso   1.000  H
  H82      1.0000 0.34610  0.33680  0.38170  Biso   1.000  H
  H83      1.0000 0.83680  0.15390  0.88170  Biso   1.000  H
  H84      1.0000 0.16320  0.84610  0.88170  Biso   1.000  H
  H85      1.0000 0.84610  0.16320  0.11830  Biso   1.000  H
  H86      1.0000 0.15390  0.83680  0.11830  Biso   1.000  H
  H87      1.0000 0.66320  0.65390  0.61830  Biso   1.000  H
  H88      1.0000 0.33680  0.34610  0.61830  Biso   1.000  H
  H89      1.0000 0.74820  0.71710  0.41200  Biso   1.000  H
  H90      1.0000 0.25180  0.28290  0.41200  Biso   1.000  H
  H91      1.0000 0.78290  0.24820  0.91200  Biso   1.000  H
  H92      1.0000 0.21710  0.75180  0.91200  Biso   1.000  H
  H93      1.0000 0.75180  0.21710  0.08800  Biso   1.000  H
  H94      1.0000 0.24820  0.78290  0.08800  Biso   1.000  H
  H95      1.0000 0.71710  0.74820  0.58800  Biso   1.000  H
  H96      1.0000 0.28290  0.25180  0.58800  Biso   1.000  H
  O1       1.0000 0.50000  0.50000  0.94100  Biso   1.000  O
  O2       1.0000 0.00000  0.00000  0.44100  Biso   1.000  O
  O3       1.0000 0.00000  0.00000  0.55900  Biso   1.000  O
  O4       1.0000 0.50000  0.50000  0.05900  Biso   1.000  O
