data_image0
_cell_length_a       8.0221
_cell_length_b       32.3844
_cell_length_c       13.5659
_cell_angle_alpha    90
_cell_angle_beta     90
_cell_angle_gamma    90

_symmetry_space_group_name_H-M    "P 1"
_symmetry_int_tables_number       1

loop_
  _symmetry_equiv_pos_as_xyz
  'x, y, z'

loop_
  _atom_site_label
  _atom_site_occupancy
  _atom_site_fract_x
  _atom_site_fract_y
  _atom_site_fract_z
  _atom_site_thermal_displace_type
  _atom_site_B_iso_or_equiv
  _atom_site_type_symbol
  Cu1      1.0000 0.58835  0.57516  0.45478  Biso   1.000  Cu
  Cu2      1.0000 0.08835  0.57516  0.04522  Biso   1.000  Cu
  Cu3      1.0000 0.58835  0.92484  0.95478  Biso   1.000  Cu
  Cu4      1.0000 0.91165  0.07516  0.45478  Biso   1.000  Cu
  Cu5      1.0000 0.41165  0.42484  0.54522  Biso   1.000  Cu
  Cu6      1.0000 0.91165  0.42484  0.95478  Biso   1.000  Cu
  Cu7      1.0000 0.41165  0.07516  0.04522  Biso   1.000  Cu
  Cu8      1.0000 0.08835  0.92484  0.54522  Biso   1.000  Cu
  Cu9      1.0000 0.64320  0.68389  0.47942  Biso   1.000  Cu
  Cu10     1.0000 0.14320  0.68389  0.02058  Biso   1.000  Cu
  Cu11     1.0000 0.64320  0.81611  0.97942  Biso   1.000  Cu
  Cu12     1.0000 0.85680  0.18389  0.47942  Biso   1.000  Cu
  Cu13     1.0000 0.35680  0.31611  0.52058  Biso   1.000  Cu
  Cu14     1.0000 0.85680  0.31611  0.97942  Biso   1.000  Cu
  Cu15     1.0000 0.35680  0.18389  0.02058  Biso   1.000  Cu
  Cu16     1.0000 0.14320  0.81611  0.52058  Biso   1.000  Cu
  S1       1.0000 0.33570  0.56888  0.55356  Biso   1.000  S
  S2       1.0000 0.83570  0.56888  0.94644  Biso   1.000  S
  S3       1.0000 0.33570  0.93112  0.05356  Biso   1.000  S
  S4       1.0000 0.16430  0.06888  0.55356  Biso   1.000  S
  S5       1.0000 0.66430  0.43112  0.44644  Biso   1.000  S
  S6       1.0000 0.16430  0.43112  0.05356  Biso   1.000  S
  S7       1.0000 0.66430  0.06888  0.94644  Biso   1.000  S
  S8       1.0000 0.83570  0.93112  0.44644  Biso   1.000  S
  S9       1.0000 0.37520  0.68203  0.54866  Biso   1.000  S
  S10      1.0000 0.87520  0.68203  0.95134  Biso   1.000  S
  S11      1.0000 0.37520  0.81797  0.04866  Biso   1.000  S
  S12      1.0000 0.12480  0.18203  0.54866  Biso   1.000  S
  S13      1.0000 0.62480  0.31797  0.45134  Biso   1.000  S
  S14      1.0000 0.12480  0.31797  0.04866  Biso   1.000  S
  S15      1.0000 0.62480  0.18203  0.95134  Biso   1.000  S
  S16      1.0000 0.87520  0.81797  0.45134  Biso   1.000  S
  N1       1.0000 0.35940  0.48311  0.58070  Biso   1.000  N
  N2       1.0000 0.85940  0.48311  0.91930  Biso   1.000  N
  N3       1.0000 0.35940  0.01689  0.08070  Biso   1.000  N
  N4       1.0000 0.14060  0.98311  0.58070  Biso   1.000  N
  N5       1.0000 0.64060  0.51689  0.41930  Biso   1.000  N
  N6       1.0000 0.14060  0.51689  0.08070  Biso   1.000  N
  N7       1.0000 0.64060  0.98311  0.91930  Biso   1.000  N
  N8       1.0000 0.85940  0.01689  0.41930  Biso   1.000  N
  N9       1.0000 0.24920  0.76219  0.53250  Biso   1.000  N
  N10      1.0000 0.74920  0.76219  0.96750  Biso   1.000  N
  N11      1.0000 0.24920  0.73781  0.03250  Biso   1.000  N
  N12      1.0000 0.25080  0.26219  0.53250  Biso   1.000  N
  N13      1.0000 0.75080  0.23781  0.46750  Biso   1.000  N
  N14      1.0000 0.25080  0.23781  0.03250  Biso   1.000  N
  N15      1.0000 0.75080  0.26219  0.96750  Biso   1.000  N
  N16      1.0000 0.74920  0.73781  0.46750  Biso   1.000  N
  N17      1.0000 0.75450  0.59997  0.55310  Biso   1.000  N
  N18      1.0000 0.25450  0.59997  0.94690  Biso   1.000  N
  N19      1.0000 0.75450  0.90003  0.05310  Biso   1.000  N
  N20      1.0000 0.74550  0.09997  0.55310  Biso   1.000  N
  N21      1.0000 0.24550  0.40003  0.44690  Biso   1.000  N
  N22      1.0000 0.74550  0.40003  0.05310  Biso   1.000  N
  N23      1.0000 0.24550  0.09997  0.94690  Biso   1.000  N
  N24      1.0000 0.25450  0.90003  0.44690  Biso   1.000  N
  N25      1.0000 0.77120  0.64239  0.56520  Biso   1.000  N
  N26      1.0000 0.27120  0.64239  0.93480  Biso   1.000  N
  N27      1.0000 0.77120  0.85761  0.06520  Biso   1.000  N
  N28      1.0000 0.72880  0.14239  0.56520  Biso   1.000  N
  N29      1.0000 0.22880  0.35761  0.43480  Biso   1.000  N
  N30      1.0000 0.72880  0.35761  0.06520  Biso   1.000  N
  N31      1.0000 0.22880  0.14239  0.93480  Biso   1.000  N
  N32      1.0000 0.27120  0.85761  0.43480  Biso   1.000  N
  N33      1.0000 0.94030  0.61206  0.66620  Biso   1.000  N
  N34      1.0000 0.44030  0.61206  0.83380  Biso   1.000  N
  N35      1.0000 0.94030  0.88794  0.16620  Biso   1.000  N
  N36      1.0000 0.55970  0.11206  0.66620  Biso   1.000  N
  N37      1.0000 0.05970  0.38794  0.33380  Biso   1.000  N
  N38      1.0000 0.55970  0.38794  0.16620  Biso   1.000  N
  N39      1.0000 0.05970  0.11206  0.83380  Biso   1.000  N
  N40      1.0000 0.44030  0.88794  0.33380  Biso   1.000  N
  N41      1.0000 0.06650  0.60680  0.73670  Biso   1.000  N
  N42      1.0000 0.56650  0.60680  0.76330  Biso   1.000  N
  N43      1.0000 0.06650  0.89320  0.23670  Biso   1.000  N
  N44      1.0000 0.43350  0.10680  0.73670  Biso   1.000  N
  N45      1.0000 0.93350  0.39320  0.26330  Biso   1.000  N
  N46      1.0000 0.43350  0.39320  0.23670  Biso   1.000  N
  N47      1.0000 0.93350  0.10680  0.76330  Biso   1.000  N
  N48      1.0000 0.56650  0.89320  0.26330  Biso   1.000  N
  H1       1.0000 0.11410  0.62800  0.76240  Biso   1.000  H
  H2       1.0000 0.61410  0.62800  0.73760  Biso   1.000  H
  H3       1.0000 0.11410  0.87200  0.26240  Biso   1.000  H
  H4       1.0000 0.38590  0.12800  0.76240  Biso   1.000  H
  H5       1.0000 0.88590  0.37200  0.23760  Biso   1.000  H
  H6       1.0000 0.38590  0.37200  0.26240  Biso   1.000  H
  H7       1.0000 0.88590  0.12800  0.73760  Biso   1.000  H
  H8       1.0000 0.61410  0.87200  0.23760  Biso   1.000  H
  H9       1.0000 0.09630  0.58240  0.75430  Biso   1.000  H
  H10      1.0000 0.59630  0.58240  0.74570  Biso   1.000  H
  H11      1.0000 0.09630  0.91760  0.25430  Biso   1.000  H
  H12      1.0000 0.40370  0.08240  0.75430  Biso   1.000  H
  H13      1.0000 0.90370  0.41760  0.24570  Biso   1.000  H
  H14      1.0000 0.40370  0.41760  0.25430  Biso   1.000  H
  H15      1.0000 0.90370  0.08240  0.74570  Biso   1.000  H
  H16      1.0000 0.59630  0.91760  0.24570  Biso   1.000  H
  N49      1.0000 0.57480  0.61387  0.33610  Biso   1.000  N
  N50      1.0000 0.07480  0.61387  0.16390  Biso   1.000  N
  N51      1.0000 0.57480  0.88613  0.83610  Biso   1.000  N
  N52      1.0000 0.92520  0.11387  0.33610  Biso   1.000  N
  N53      1.0000 0.42520  0.38613  0.66390  Biso   1.000  N
  N54      1.0000 0.92520  0.38613  0.83610  Biso   1.000  N
  N55      1.0000 0.42520  0.11387  0.16390  Biso   1.000  N
  N56      1.0000 0.07480  0.88613  0.66390  Biso   1.000  N
  N57      1.0000 0.61740  0.65512  0.34220  Biso   1.000  N
  N58      1.0000 0.11740  0.65512  0.15780  Biso   1.000  N
  N59      1.0000 0.61740  0.84488  0.84220  Biso   1.000  N
  N60      1.0000 0.88260  0.15512  0.34220  Biso   1.000  N
  N61      1.0000 0.38260  0.34488  0.65780  Biso   1.000  N
  N62      1.0000 0.88260  0.34488  0.84220  Biso   1.000  N
  N63      1.0000 0.38260  0.15512  0.15780  Biso   1.000  N
  N64      1.0000 0.11740  0.84488  0.65780  Biso   1.000  N
  N65      1.0000 0.57240  0.63957  0.19030  Biso   1.000  N
  N66      1.0000 0.07240  0.63957  0.30970  Biso   1.000  N
  N67      1.0000 0.57240  0.86043  0.69030  Biso   1.000  N
  N68      1.0000 0.92760  0.13957  0.19030  Biso   1.000  N
  N69      1.0000 0.42760  0.36043  0.80970  Biso   1.000  N
  N70      1.0000 0.92760  0.36043  0.69030  Biso   1.000  N
  N71      1.0000 0.42760  0.13957  0.30970  Biso   1.000  N
  N72      1.0000 0.07240  0.86043  0.80970  Biso   1.000  N
  N73      1.0000 0.55090  0.64200  0.08700  Biso   1.000  N
  N74      1.0000 0.05090  0.64200  0.41300  Biso   1.000  N
  N75      1.0000 0.55090  0.85800  0.58700  Biso   1.000  N
  N76      1.0000 0.94910  0.14200  0.08700  Biso   1.000  N
  N77      1.0000 0.44910  0.35800  0.91300  Biso   1.000  N
  N78      1.0000 0.94910  0.35800  0.58700  Biso   1.000  N
  N79      1.0000 0.44910  0.14200  0.41300  Biso   1.000  N
  N80      1.0000 0.05090  0.85800  0.91300  Biso   1.000  N
  H17      1.0000 0.51980  0.62050  0.05450  Biso   1.000  H
  H18      1.0000 0.01980  0.62050  0.44550  Biso   1.000  H
  H19      1.0000 0.51980  0.87950  0.55450  Biso   1.000  H
  H20      1.0000 0.98020  0.12050  0.05450  Biso   1.000  H
  H21      1.0000 0.48020  0.37950  0.94550  Biso   1.000  H
  H22      1.0000 0.98020  0.37950  0.55450  Biso   1.000  H
  H23      1.0000 0.48020  0.12050  0.44550  Biso   1.000  H
  H24      1.0000 0.01980  0.87950  0.94550  Biso   1.000  H
  H25      1.0000 0.56900  0.66490  0.05680  Biso   1.000  H
  H26      1.0000 0.06900  0.66490  0.44320  Biso   1.000  H
  H27      1.0000 0.56900  0.83510  0.55680  Biso   1.000  H
  H28      1.0000 0.93100  0.16490  0.05680  Biso   1.000  H
  H29      1.0000 0.43100  0.33510  0.94320  Biso   1.000  H
  H30      1.0000 0.93100  0.33510  0.55680  Biso   1.000  H
  H31      1.0000 0.43100  0.16490  0.44320  Biso   1.000  H
  H32      1.0000 0.06900  0.83510  0.94320  Biso   1.000  H
  C1       1.0000 0.34890  0.51840  0.57020  Biso   1.000  C
  C2       1.0000 0.84890  0.51840  0.92980  Biso   1.000  C
  C3       1.0000 0.34890  0.98160  0.07020  Biso   1.000  C
  C4       1.0000 0.15110  0.01840  0.57020  Biso   1.000  C
  C5       1.0000 0.65110  0.48160  0.42980  Biso   1.000  C
  C6       1.0000 0.15110  0.48160  0.07020  Biso   1.000  C
  C7       1.0000 0.65110  0.01840  0.92980  Biso   1.000  C
  C8       1.0000 0.84890  0.98160  0.42980  Biso   1.000  C
  C9       1.0000 0.30330  0.72960  0.53860  Biso   1.000  C
  C10      1.0000 0.80330  0.72960  0.96140  Biso   1.000  C
  C11      1.0000 0.30330  0.77040  0.03860  Biso   1.000  C
  C12      1.0000 0.19670  0.22960  0.53860  Biso   1.000  C
  C13      1.0000 0.69670  0.27040  0.46140  Biso   1.000  C
  C14      1.0000 0.19670  0.27040  0.03860  Biso   1.000  C
  C15      1.0000 0.69670  0.22960  0.96140  Biso   1.000  C
  C16      1.0000 0.80330  0.77040  0.46140  Biso   1.000  C
  C17      1.0000 0.85870  0.58230  0.61510  Biso   1.000  C
  C18      1.0000 0.35870  0.58230  0.88490  Biso   1.000  C
  C19      1.0000 0.85870  0.91770  0.11510  Biso   1.000  C
  C20      1.0000 0.64130  0.08230  0.61510  Biso   1.000  C
  C21      1.0000 0.14130  0.41770  0.38490  Biso   1.000  C
  C22      1.0000 0.64130  0.41770  0.11510  Biso   1.000  C
  C23      1.0000 0.14130  0.08230  0.88490  Biso   1.000  C
  C24      1.0000 0.35870  0.91770  0.38490  Biso   1.000  C
  C25      1.0000 0.88370  0.64900  0.63330  Biso   1.000  C
  C26      1.0000 0.38370  0.64900  0.86670  Biso   1.000  C
  C27      1.0000 0.88370  0.85100  0.13330  Biso   1.000  C
  C28      1.0000 0.61630  0.14900  0.63330  Biso   1.000  C
  C29      1.0000 0.11630  0.35100  0.36670  Biso   1.000  C
  C30      1.0000 0.61630  0.35100  0.13330  Biso   1.000  C
  C31      1.0000 0.11630  0.14900  0.86670  Biso   1.000  C
  C32      1.0000 0.38370  0.85100  0.36670  Biso   1.000  C
  C33      1.0000 0.88080  0.53740  0.62990  Biso   1.000  C
  C34      1.0000 0.38080  0.53740  0.87010  Biso   1.000  C
  C35      1.0000 0.88080  0.96260  0.12990  Biso   1.000  C
  C36      1.0000 0.61920  0.03740  0.62990  Biso   1.000  C
  C37      1.0000 0.11920  0.46260  0.37010  Biso   1.000  C
  C38      1.0000 0.61920  0.46260  0.12990  Biso   1.000  C
  C39      1.0000 0.11920  0.03740  0.87010  Biso   1.000  C
  C40      1.0000 0.38080  0.96260  0.37010  Biso   1.000  C
  H33      1.0000 0.81070  0.52260  0.58470  Biso   1.000  H
  H34      1.0000 0.31070  0.52260  0.91530  Biso   1.000  H
  H35      1.0000 0.81070  0.97740  0.08470  Biso   1.000  H
  H36      1.0000 0.68930  0.02260  0.58470  Biso   1.000  H
  H37      1.0000 0.18930  0.47740  0.41530  Biso   1.000  H
  H38      1.0000 0.68930  0.47740  0.08470  Biso   1.000  H
  H39      1.0000 0.18930  0.02260  0.91530  Biso   1.000  H
  H40      1.0000 0.31070  0.97740  0.41530  Biso   1.000  H
  H41      1.0000 0.85090  0.53030  0.69630  Biso   1.000  H
  H42      1.0000 0.35090  0.53030  0.80370  Biso   1.000  H
  H43      1.0000 0.85090  0.96970  0.19630  Biso   1.000  H
  H44      1.0000 0.64910  0.03030  0.69630  Biso   1.000  H
  H45      1.0000 0.14910  0.46970  0.30370  Biso   1.000  H
  H46      1.0000 0.64910  0.46970  0.19630  Biso   1.000  H
  H47      1.0000 0.14910  0.03030  0.80370  Biso   1.000  H
  H48      1.0000 0.35090  0.96970  0.30370  Biso   1.000  H
  H49      1.0000 0.99520  0.53010  0.61830  Biso   1.000  H
  H50      1.0000 0.49520  0.53010  0.88170  Biso   1.000  H
  H51      1.0000 0.99520  0.96990  0.11830  Biso   1.000  H
  H52      1.0000 0.50480  0.03010  0.61830  Biso   1.000  H
  H53      1.0000 0.00480  0.46990  0.38170  Biso   1.000  H
  H54      1.0000 0.50480  0.46990  0.11830  Biso   1.000  H
  H55      1.0000 0.00480  0.03010  0.88170  Biso   1.000  H
  H56      1.0000 0.49520  0.96990  0.38170  Biso   1.000  H
  C41      1.0000 0.94200  0.68980  0.67110  Biso   1.000  C
  C42      1.0000 0.44200  0.68980  0.82890  Biso   1.000  C
  C43      1.0000 0.94200  0.81020  0.17110  Biso   1.000  C
  C44      1.0000 0.55800  0.18980  0.67110  Biso   1.000  C
  C45      1.0000 0.05800  0.31020  0.32890  Biso   1.000  C
  C46      1.0000 0.55800  0.31020  0.17110  Biso   1.000  C
  C47      1.0000 0.05800  0.18980  0.82890  Biso   1.000  C
  C48      1.0000 0.44200  0.81020  0.32890  Biso   1.000  C
  H57      1.0000 0.88450  0.71150  0.63710  Biso   1.000  H
  H58      1.0000 0.38450  0.71150  0.86290  Biso   1.000  H
  H59      1.0000 0.88450  0.78850  0.13710  Biso   1.000  H
  H60      1.0000 0.61550  0.21150  0.63710  Biso   1.000  H
  H61      1.0000 0.11550  0.28850  0.36290  Biso   1.000  H
  H62      1.0000 0.61550  0.28850  0.13710  Biso   1.000  H
  H63      1.0000 0.11550  0.21150  0.86290  Biso   1.000  H
  H64      1.0000 0.38450  0.78850  0.36290  Biso   1.000  H
  H65      1.0000 0.05970  0.69240  0.66010  Biso   1.000  H
  H66      1.0000 0.55970  0.69240  0.83990  Biso   1.000  H
  H67      1.0000 0.05970  0.80760  0.16010  Biso   1.000  H
  H68      1.0000 0.44030  0.19240  0.66010  Biso   1.000  H
  H69      1.0000 0.94030  0.30760  0.33990  Biso   1.000  H
  H70      1.0000 0.44030  0.30760  0.16010  Biso   1.000  H
  H71      1.0000 0.94030  0.19240  0.83990  Biso   1.000  H
  H72      1.0000 0.55970  0.80760  0.33990  Biso   1.000  H
  H73      1.0000 0.91940  0.69160  0.74040  Biso   1.000  H
  H74      1.0000 0.41940  0.69160  0.75960  Biso   1.000  H
  H75      1.0000 0.91940  0.80840  0.24040  Biso   1.000  H
  H76      1.0000 0.58060  0.19160  0.74040  Biso   1.000  H
  H77      1.0000 0.08060  0.30840  0.25960  Biso   1.000  H
  H78      1.0000 0.58060  0.30840  0.24040  Biso   1.000  H
  H79      1.0000 0.08060  0.19160  0.75960  Biso   1.000  H
  H80      1.0000 0.41940  0.80840  0.25960  Biso   1.000  H
  C49      1.0000 0.54690  0.60520  0.24320  Biso   1.000  C
  C50      1.0000 0.04690  0.60520  0.25680  Biso   1.000  C
  C51      1.0000 0.54690  0.89480  0.74320  Biso   1.000  C
  C52      1.0000 0.95310  0.10520  0.24320  Biso   1.000  C
  C53      1.0000 0.45310  0.39480  0.75680  Biso   1.000  C
  C54      1.0000 0.95310  0.39480  0.74320  Biso   1.000  C
  C55      1.0000 0.45310  0.10520  0.25680  Biso   1.000  C
  C56      1.0000 0.04690  0.89480  0.75680  Biso   1.000  C
  C57      1.0000 0.61390  0.67030  0.25320  Biso   1.000  C
  C58      1.0000 0.11390  0.67030  0.24680  Biso   1.000  C
  C59      1.0000 0.61390  0.82970  0.75320  Biso   1.000  C
  C60      1.0000 0.88610  0.17030  0.25320  Biso   1.000  C
  C61      1.0000 0.38610  0.32970  0.74680  Biso   1.000  C
  C62      1.0000 0.88610  0.32970  0.75320  Biso   1.000  C
  C63      1.0000 0.38610  0.17030  0.24680  Biso   1.000  C
  C64      1.0000 0.11390  0.82970  0.74680  Biso   1.000  C
  C65      1.0000 0.50160  0.56450  0.20220  Biso   1.000  C
  C66      1.0000 0.00160  0.56450  0.29780  Biso   1.000  C
  C67      1.0000 0.50160  0.93550  0.70220  Biso   1.000  C
  C68      1.0000 0.99840  0.06450  0.20220  Biso   1.000  C
  C69      1.0000 0.49840  0.43550  0.79780  Biso   1.000  C
  C70      1.0000 0.99840  0.43550  0.70220  Biso   1.000  C
  C71      1.0000 0.49840  0.06450  0.29780  Biso   1.000  C
  C72      1.0000 0.00160  0.93550  0.79780  Biso   1.000  C
  H81      1.0000 0.49130  0.54480  0.25480  Biso   1.000  H
  H82      1.0000 0.99130  0.54480  0.24520  Biso   1.000  H
  H83      1.0000 0.49130  0.95520  0.75480  Biso   1.000  H
  H84      1.0000 0.00870  0.04480  0.25480  Biso   1.000  H
  H85      1.0000 0.50870  0.45520  0.74520  Biso   1.000  H
  H86      1.0000 0.00870  0.45520  0.75480  Biso   1.000  H
  H87      1.0000 0.50870  0.04480  0.24520  Biso   1.000  H
  H88      1.0000 0.99130  0.95520  0.74520  Biso   1.000  H
  H89      1.0000 0.58670  0.55550  0.15720  Biso   1.000  H
  H90      1.0000 0.08670  0.55550  0.34280  Biso   1.000  H
  H91      1.0000 0.58670  0.94450  0.65720  Biso   1.000  H
  H92      1.0000 0.91330  0.05550  0.15720  Biso   1.000  H
  H93      1.0000 0.41330  0.44450  0.84280  Biso   1.000  H
  H94      1.0000 0.91330  0.44450  0.65720  Biso   1.000  H
  H95      1.0000 0.41330  0.05550  0.34280  Biso   1.000  H
  H96      1.0000 0.08670  0.94450  0.84280  Biso   1.000  H
  H97      1.0000 0.39730  0.56660  0.16780  Biso   1.000  H
  H98      1.0000 0.89730  0.56660  0.33220  Biso   1.000  H
  H99      1.0000 0.39730  0.93340  0.66780  Biso   1.000  H
  H100     1.0000 0.10270  0.06660  0.16780  Biso   1.000  H
  H101     1.0000 0.60270  0.43340  0.83220  Biso   1.000  H
  H102     1.0000 0.10270  0.43340  0.66780  Biso   1.000  H
  H103     1.0000 0.60270  0.06660  0.33220  Biso   1.000  H
  H104     1.0000 0.89730  0.93340  0.83220  Biso   1.000  H
  C73      1.0000 0.65030  0.71320  0.22180  Biso   1.000  C
  C74      1.0000 0.15030  0.71320  0.27820  Biso   1.000  C
  C75      1.0000 0.65030  0.78680  0.72180  Biso   1.000  C
  C76      1.0000 0.84970  0.21320  0.22180  Biso   1.000  C
  C77      1.0000 0.34970  0.28680  0.77820  Biso   1.000  C
  C78      1.0000 0.84970  0.28680  0.72180  Biso   1.000  C
  C79      1.0000 0.34970  0.21320  0.27820  Biso   1.000  C
  C80      1.0000 0.15030  0.78680  0.77820  Biso   1.000  C
  H105     1.0000 0.67560  0.72980  0.27860  Biso   1.000  H
  H106     1.0000 0.17560  0.72980  0.22140  Biso   1.000  H
  H107     1.0000 0.67560  0.77020  0.77860  Biso   1.000  H
  H108     1.0000 0.82440  0.22980  0.27860  Biso   1.000  H
  H109     1.0000 0.32440  0.27020  0.72140  Biso   1.000  H
  H110     1.0000 0.82440  0.27020  0.77860  Biso   1.000  H
  H111     1.0000 0.32440  0.22980  0.22140  Biso   1.000  H
  H112     1.0000 0.17560  0.77020  0.72140  Biso   1.000  H
  H113     1.0000 0.55480  0.72450  0.18860  Biso   1.000  H
  H114     1.0000 0.05480  0.72450  0.31140  Biso   1.000  H
  H115     1.0000 0.55480  0.77550  0.68860  Biso   1.000  H
  H116     1.0000 0.94520  0.22450  0.18860  Biso   1.000  H
  H117     1.0000 0.44520  0.27550  0.81140  Biso   1.000  H
  H118     1.0000 0.94520  0.27550  0.68860  Biso   1.000  H
  H119     1.0000 0.44520  0.22450  0.31140  Biso   1.000  H
  H120     1.0000 0.05480  0.77550  0.81140  Biso   1.000  H
  H121     1.0000 0.74400  0.71320  0.17780  Biso   1.000  H
  H122     1.0000 0.24400  0.71320  0.32220  Biso   1.000  H
  H123     1.0000 0.74400  0.78680  0.67780  Biso   1.000  H
  H124     1.0000 0.75600  0.21320  0.17780  Biso   1.000  H
  H125     1.0000 0.25600  0.28680  0.82220  Biso   1.000  H
  H126     1.0000 0.75600  0.28680  0.67780  Biso   1.000  H
  H127     1.0000 0.25600  0.21320  0.32220  Biso   1.000  H
  H128     1.0000 0.24400  0.78680  0.82220  Biso   1.000  H
