data_image0
_cell_length_a       12.5424
_cell_length_b       13.7376
_cell_length_c       25.7877
_cell_angle_alpha    104.896
_cell_angle_beta     96.914
_cell_angle_gamma    97.413

_symmetry_space_group_name_H-M    "P 1"
_symmetry_int_tables_number       1

loop_
  _symmetry_equiv_pos_as_xyz
  'x, y, z'

loop_
  _atom_site_label
  _atom_site_occupancy
  _atom_site_fract_x
  _atom_site_fract_y
  _atom_site_fract_z
  _atom_site_thermal_displace_type
  _atom_site_B_iso_or_equiv
  _atom_site_type_symbol
  Cu1      1.0000 0.46975  0.19535  0.39045  Biso   1.000  Cu
  Cu2      1.0000 0.53025  0.80465  0.60955  Biso   1.000  Cu
  Cu3      1.0000 0.69197  0.73330  0.11501  Biso   1.000  Cu
  Cu4      1.0000 0.30803  0.26670  0.88499  Biso   1.000  Cu
  P1       1.0000 0.63423  0.18411  0.43208  Biso   1.000  P
  P2       1.0000 0.36577  0.81589  0.56792  Biso   1.000  P
  P3       1.0000 0.33316  0.25278  0.43285  Biso   1.000  P
  P4       1.0000 0.66684  0.74722  0.56715  Biso   1.000  P
  P5       1.0000 0.60734  0.84210  0.07830  Biso   1.000  P
  P6       1.0000 0.39266  0.15790  0.92170  Biso   1.000  P
  P7       1.0000 0.81616  0.64148  0.07619  Biso   1.000  P
  P8       1.0000 0.18384  0.35852  0.92381  Biso   1.000  P
  N1       1.0000 0.49857  0.26190  0.33147  Biso   1.000  N
  N2       1.0000 0.50143  0.73810  0.66853  Biso   1.000  N
  N3       1.0000 0.61062  0.64250  0.15320  Biso   1.000  N
  N4       1.0000 0.38938  0.35750  0.84680  Biso   1.000  N
  N5       1.0000 0.78795  0.83104  0.18511  Biso   1.000  N
  N6       1.0000 0.21205  0.16896  0.81489  Biso   1.000  N
  N7       1.0000 0.38612  0.05593  0.34028  Biso   1.000  N
  N8       1.0000 0.61388  0.94407  0.65972  Biso   1.000  N
  C1       1.0000 0.51819  0.31364  0.30442  Biso   1.000  C
  C2       1.0000 0.48181  0.68636  0.69558  Biso   1.000  C
  C3       1.0000 0.53887  0.38203  0.27147  Biso   1.000  C
  C4       1.0000 0.46113  0.61797  0.72853  Biso   1.000  C
  C5       1.0000 0.63850  0.44705  0.28201  Biso   1.000  C
  C6       1.0000 0.36150  0.55295  0.71799  Biso   1.000  C
  H1       1.0000 0.69420  0.44450  0.30980  Biso   1.000  H
  H2       1.0000 0.30580  0.55550  0.69020  Biso   1.000  H
  C7       1.0000 0.65544  0.51534  0.25152  Biso   1.000  C
  C8       1.0000 0.34456  0.48466  0.74848  Biso   1.000  C
  H3       1.0000 0.72280  0.56050  0.25820  Biso   1.000  H
  H4       1.0000 0.27720  0.43950  0.74180  Biso   1.000  H
  C9       1.0000 0.57220  0.51700  0.21077  Biso   1.000  C
  C10      1.0000 0.42780  0.48300  0.78923  Biso   1.000  C
  C11      1.0000 0.47260  0.45116  0.20026  Biso   1.000  C
  C12      1.0000 0.52740  0.54884  0.79974  Biso   1.000  C
  H5       1.0000 0.41700  0.45300  0.17220  Biso   1.000  H
  H6       1.0000 0.58300  0.54700  0.82780  Biso   1.000  H
  C13      1.0000 0.45570  0.38337  0.23097  Biso   1.000  C
  C14      1.0000 0.54430  0.61663  0.76903  Biso   1.000  C
  H7       1.0000 0.38830  0.33840  0.22450  Biso   1.000  H
  H8       1.0000 0.61170  0.66160  0.77550  Biso   1.000  H
  C15      1.0000 0.59167  0.58740  0.17864  Biso   1.000  C
  C16      1.0000 0.40833  0.41260  0.82136  Biso   1.000  C
  C17      1.0000 0.87250  0.86748  0.20963  Biso   1.000  C
  C18      1.0000 0.12750  0.13252  0.79037  Biso   1.000  C
  C19      1.0000 0.98098  0.90793  0.23853  Biso   1.000  C
  C20      1.0000 0.01902  0.09207  0.76147  Biso   1.000  C
  C21      1.0000 0.02462  0.86066  0.27576  Biso   1.000  C
  C22      1.0000 0.97538  0.13934  0.72424  Biso   1.000  C
  H9       1.0000 0.98230  0.80470  0.28310  Biso   1.000  H
  H10      1.0000 0.01770  0.19530  0.71690  Biso   1.000  H
  C23      1.0000 0.13073  0.89633  0.30200  Biso   1.000  C
  C24      1.0000 0.86927  0.10367  0.69800  Biso   1.000  C
  H11      1.0000 0.16220  0.86510  0.32760  Biso   1.000  H
  H12      1.0000 0.83780  0.13490  0.67240  Biso   1.000  H
  C25      1.0000 0.19073  0.97826  0.29045  Biso   1.000  C
  C26      1.0000 0.80927  0.02174  0.70955  Biso   1.000  C
  C27      1.0000 0.14650  0.02626  0.25338  Biso   1.000  C
  C28      1.0000 0.85350  0.97374  0.74662  Biso   1.000  C
  H13      1.0000 0.18850  0.08270  0.24630  Biso   1.000  H
  H14      1.0000 0.81150  0.91730  0.75370  Biso   1.000  H
  C29      1.0000 0.04060  0.99050  0.22705  Biso   1.000  C
  C30      1.0000 0.95940  0.00950  0.77295  Biso   1.000  C
  H15      1.0000 0.00900  0.02170  0.20150  Biso   1.000  H
  H16      1.0000 0.99100  0.97830  0.79850  Biso   1.000  H
  C31      1.0000 0.30029  0.01819  0.31816  Biso   1.000  C
  C32      1.0000 0.69971  0.98181  0.68184  Biso   1.000  C
  C33      1.0000 0.64297  0.18023  0.50267  Biso   1.000  C
  C34      1.0000 0.35703  0.81977  0.49733  Biso   1.000  C
  C35      1.0000 0.55235  0.12970  0.51690  Biso   1.000  C
  C36      1.0000 0.44765  0.87030  0.48310  Biso   1.000  C
  H17      1.0000 0.49220  0.09440  0.48960  Biso   1.000  H
  H18      1.0000 0.50780  0.90560  0.51040  Biso   1.000  H
  C37      1.0000 0.54880  0.13020  0.57043  Biso   1.000  C
  C38      1.0000 0.45120  0.86980  0.42957  Biso   1.000  C
  H19      1.0000 0.48680  0.09470  0.57950  Biso   1.000  H
  H20      1.0000 0.51320  0.90530  0.42050  Biso   1.000  H
  C39      1.0000 0.63520  0.18220  0.61068  Biso   1.000  C
  C40      1.0000 0.36480  0.81780  0.38932  Biso   1.000  C
  H21      1.0000 0.63220  0.18340  0.64750  Biso   1.000  H
  H22      1.0000 0.36780  0.81660  0.35250  Biso   1.000  H
  C41      1.0000 0.72600  0.23243  0.59704  Biso   1.000  C
  C42      1.0000 0.27400  0.76757  0.40296  Biso   1.000  C
  H23      1.0000 0.78560  0.26810  0.62460  Biso   1.000  H
  H24      1.0000 0.21440  0.73190  0.37540  Biso   1.000  H
  C43      1.0000 0.73056  0.23098  0.54335  Biso   1.000  C
  C44      1.0000 0.26944  0.76902  0.45665  Biso   1.000  C
  H25      1.0000 0.79370  0.26470  0.53430  Biso   1.000  H
  H26      1.0000 0.20630  0.73530  0.46570  Biso   1.000  H
  C45      1.0000 0.68023  0.06929  0.39482  Biso   1.000  C
  C46      1.0000 0.31977  0.93071  0.60518  Biso   1.000  C
  C47      1.0000 0.72560  0.00160  0.41904  Biso   1.000  C
  C48      1.0000 0.27440  0.99840  0.58096  Biso   1.000  C
  H27      1.0000 0.73620  0.01480  0.45750  Biso   1.000  H
  H28      1.0000 0.26380  0.98520  0.54250  Biso   1.000  H
  C49      1.0000 0.75560  0.91436  0.38708  Biso   1.000  C
  C50      1.0000 0.24440  0.08564  0.61292  Biso   1.000  C
  H29      1.0000 0.78600  0.86780  0.40370  Biso   1.000  H
  H30      1.0000 0.21400  0.13220  0.59630  Biso   1.000  H
  C51      1.0000 0.74130  0.89530  0.33126  Biso   1.000  C
  C52      1.0000 0.25870  0.10470  0.66874  Biso   1.000  C
  H31      1.0000 0.76170  0.83580  0.30960  Biso   1.000  H
  H32      1.0000 0.23830  0.16420  0.69040  Biso   1.000  H
  C53      1.0000 0.69720  0.96300  0.30691  Biso   1.000  C
  C54      1.0000 0.30280  0.03700  0.69309  Biso   1.000  C
  H33      1.0000 0.68850  0.95050  0.26850  Biso   1.000  H
  H34      1.0000 0.31150  0.04950  0.73150  Biso   1.000  H
  C55      1.0000 0.66560  0.04930  0.33850  Biso   1.000  C
  C56      1.0000 0.33440  0.95070  0.66150  Biso   1.000  C
  H35      1.0000 0.63390  0.09480  0.32160  Biso   1.000  H
  H36      1.0000 0.36610  0.90520  0.67840  Biso   1.000  H
  C57      1.0000 0.74319  0.28607  0.43265  Biso   1.000  C
  C58      1.0000 0.25681  0.71393  0.56735  Biso   1.000  C
  C59      1.0000 0.85297  0.27547  0.44058  Biso   1.000  C
  C60      1.0000 0.14703  0.72453  0.55942  Biso   1.000  C
  H37      1.0000 0.87240  0.21380  0.44610  Biso   1.000  H
  H38      1.0000 0.12760  0.78620  0.55390  Biso   1.000  H
  C61      1.0000 0.93350  0.35460  0.44044  Biso   1.000  C
  C62      1.0000 0.06650  0.64540  0.55956  Biso   1.000  C
  H39      1.0000 0.00790  0.34750  0.44670  Biso   1.000  H
  H40      1.0000 0.99210  0.65250  0.55330  Biso   1.000  H
  C63      1.0000 0.90600  0.44390  0.43129  Biso   1.000  C
  C64      1.0000 0.09400  0.55610  0.56871  Biso   1.000  C
  H41      1.0000 0.96150  0.49740  0.43060  Biso   1.000  H
  H42      1.0000 0.03850  0.50260  0.56940  Biso   1.000  H
  C65      1.0000 0.79827  0.45504  0.42326  Biso   1.000  C
  C66      1.0000 0.20173  0.54496  0.57674  Biso   1.000  C
  H43      1.0000 0.77930  0.51610  0.41680  Biso   1.000  H
  H44      1.0000 0.22070  0.48390  0.58320  Biso   1.000  H
  C67      1.0000 0.71732  0.37716  0.42458  Biso   1.000  C
  C68      1.0000 0.28268  0.62284  0.57542  Biso   1.000  C
  H45      1.0000 0.64330  0.38610  0.41990  Biso   1.000  H
  H46      1.0000 0.35670  0.61390  0.58010  Biso   1.000  H
  C69      1.0000 0.37435  0.31085  0.50581  Biso   1.000  C
  C70      1.0000 0.62565  0.68915  0.49419  Biso   1.000  C
  C71      1.0000 0.47854  0.36948  0.52328  Biso   1.000  C
  C72      1.0000 0.52146  0.63052  0.47672  Biso   1.000  C
  H47      1.0000 0.52220  0.38160  0.49720  Biso   1.000  H
  H48      1.0000 0.47780  0.61840  0.50280  Biso   1.000  H
  C73      1.0000 0.51856  0.41002  0.57817  Biso   1.000  C
  C74      1.0000 0.48144  0.58998  0.42183  Biso   1.000  C
  H49      1.0000 0.58890  0.45060  0.58970  Biso   1.000  H
  H50      1.0000 0.41110  0.54940  0.41030  Biso   1.000  H
  C75      1.0000 0.45530  0.39110  0.61635  Biso   1.000  C
  C76      1.0000 0.54470  0.60890  0.38365  Biso   1.000  C
  H51      1.0000 0.48340  0.41660  0.65400  Biso   1.000  H
  H52      1.0000 0.51660  0.58340  0.34600  Biso   1.000  H
  C77      1.0000 0.35144  0.33523  0.59946  Biso   1.000  C
  C78      1.0000 0.64856  0.66477  0.40054  Biso   1.000  C
  H53      1.0000 0.30770  0.32410  0.62570  Biso   1.000  H
  H54      1.0000 0.69230  0.67590  0.37430  Biso   1.000  H
  C79      1.0000 0.31046  0.29530  0.54454  Biso   1.000  C
  C80      1.0000 0.68954  0.70470  0.45546  Biso   1.000  C
  H55      1.0000 0.23880  0.25730  0.53330  Biso   1.000  H
  H56      1.0000 0.76120  0.74270  0.46670  Biso   1.000  H
  C81      1.0000 0.21534  0.15460  0.42729  Biso   1.000  C
  C82      1.0000 0.78466  0.84540  0.57271  Biso   1.000  C
  C83      1.0000 0.23067  0.07094  0.44665  Biso   1.000  C
  C84      1.0000 0.76933  0.92906  0.55335  Biso   1.000  C
  H57      1.0000 0.30120  0.06670  0.46310  Biso   1.000  H
  H58      1.0000 0.69880  0.93330  0.53690  Biso   1.000  H
  C85      1.0000 0.14470  0.99404  0.44231  Biso   1.000  C
  C86      1.0000 0.85530  0.00596  0.55769  Biso   1.000  C
  H59      1.0000 0.15630  0.93790  0.45620  Biso   1.000  H
  H60      1.0000 0.84370  0.06210  0.54380  Biso   1.000  H
  C87      1.0000 0.04129  0.99838  0.41771  Biso   1.000  C
  C88      1.0000 0.95871  0.00162  0.58229  Biso   1.000  C
  H61      1.0000 0.98200  0.94590  0.41510  Biso   1.000  H
  H62      1.0000 0.01800  0.05410  0.58490  Biso   1.000  H
  C89      1.0000 0.02544  0.07974  0.39712  Biso   1.000  C
  C90      1.0000 0.97456  0.92026  0.60288  Biso   1.000  C
  H63      1.0000 0.95520  0.08240  0.37960  Biso   1.000  H
  H64      1.0000 0.04480  0.91760  0.62040  Biso   1.000  H
  C91      1.0000 0.11149  0.15780  0.40184  Biso   1.000  C
  C92      1.0000 0.88851  0.84220  0.59816  Biso   1.000  C
  H65      1.0000 0.09970  0.21360  0.38770  Biso   1.000  H
  H66      1.0000 0.90030  0.78640  0.61230  Biso   1.000  H
  C93      1.0000 0.27210  0.34769  0.40695  Biso   1.000  C
  C94      1.0000 0.72790  0.65231  0.59305  Biso   1.000  C
  C95      1.0000 0.23713  0.42958  0.44119  Biso   1.000  C
  C96      1.0000 0.76287  0.57042  0.55881  Biso   1.000  C
  H67      1.0000 0.24890  0.43930  0.47940  Biso   1.000  H
  H68      1.0000 0.75110  0.56070  0.52060  Biso   1.000  H
  C97      1.0000 0.18513  0.49674  0.41943  Biso   1.000  C
  C98      1.0000 0.81487  0.50326  0.58057  Biso   1.000  C
  H69      1.0000 0.16210  0.55290  0.44280  Biso   1.000  H
  H70      1.0000 0.83790  0.44710  0.55720  Biso   1.000  H
  C99      1.0000 0.16666  0.48238  0.36387  Biso   1.000  C
  C100     1.0000 0.83334  0.51762  0.63613  Biso   1.000  C
  H71      1.0000 0.13020  0.52820  0.34920  Biso   1.000  H
  H72      1.0000 0.86980  0.47180  0.65080  Biso   1.000  H
  C101     1.0000 0.20120  0.40110  0.32939  Biso   1.000  C
  C102     1.0000 0.79880  0.59890  0.67061  Biso   1.000  C
  H73      1.0000 0.18850  0.39130  0.29120  Biso   1.000  H
  H74      1.0000 0.81150  0.60870  0.70880  Biso   1.000  H
  C103     1.0000 0.25460  0.33431  0.35100  Biso   1.000  C
  C104     1.0000 0.74540  0.66569  0.64900  Biso   1.000  C
  H75      1.0000 0.27920  0.27930  0.32750  Biso   1.000  H
  H76      1.0000 0.72080  0.72070  0.67250  Biso   1.000  H
  C105     1.0000 0.53516  0.92629  0.12284  Biso   1.000  C
  C106     1.0000 0.46484  0.07371  0.87716  Biso   1.000  C
  C107     1.0000 0.50070  0.89730  0.16634  Biso   1.000  C
  C108     1.0000 0.49930  0.10270  0.83366  Biso   1.000  C
  H77      1.0000 0.51490  0.83470  0.17260  Biso   1.000  H
  H78      1.0000 0.48510  0.16530  0.82740  Biso   1.000  H
  C109     1.0000 0.44490  0.95990  0.20110  Biso   1.000  C
  C110     1.0000 0.55510  0.04010  0.79890  Biso   1.000  C
  H79      1.0000 0.42240  0.94020  0.23130  Biso   1.000  H
  H80      1.0000 0.57760  0.05980  0.76870  Biso   1.000  H
  C111     1.0000 0.42250  0.04960  0.19203  Biso   1.000  C
  C112     1.0000 0.57750  0.95040  0.80797  Biso   1.000  C
  H81      1.0000 0.38370  0.09140  0.21570  Biso   1.000  H
  H82      1.0000 0.61630  0.90860  0.78430  Biso   1.000  H
  C113     1.0000 0.45570  0.07920  0.14894  Biso   1.000  C
  C114     1.0000 0.54430  0.92080  0.85106  Biso   1.000  C
  H83      1.0000 0.43910  0.14100  0.14240  Biso   1.000  H
  H84      1.0000 0.56090  0.85900  0.85760  Biso   1.000  H
  C115     1.0000 0.51370  0.01856  0.11473  Biso   1.000  C
  C116     1.0000 0.48630  0.98144  0.88527  Biso   1.000  C
  H85      1.0000 0.53880  0.04040  0.08560  Biso   1.000  H
  H86      1.0000 0.46120  0.95960  0.91440  Biso   1.000  H
  C117     1.0000 0.51129  0.78706  0.01524  Biso   1.000  C
  C118     1.0000 0.48871  0.21294  0.98476  Biso   1.000  C
  C119     1.0000 0.53350  0.70067  0.97915  Biso   1.000  C
  C120     1.0000 0.46650  0.29933  0.02085  Biso   1.000  C
  H87      1.0000 0.59550  0.67190  0.98850  Biso   1.000  H
  H88      1.0000 0.40450  0.32810  0.01150  Biso   1.000  H
  C121     1.0000 0.46620  0.65620  0.92983  Biso   1.000  C
  C122     1.0000 0.53380  0.34380  0.07017  Biso   1.000  C
  H89      1.0000 0.48300  0.59790  0.90530  Biso   1.000  H
  H90      1.0000 0.51700  0.40210  0.09470  Biso   1.000  H
  C123     1.0000 0.37470  0.69620  0.91594  Biso   1.000  C
  C124     1.0000 0.62530  0.30380  0.08406  Biso   1.000  C
  H91      1.0000 0.32860  0.66550  0.88200  Biso   1.000  H
  H92      1.0000 0.67140  0.33450  0.11800  Biso   1.000  H
  C125     1.0000 0.35090  0.78090  0.95179  Biso   1.000  C
  C126     1.0000 0.64910  0.21910  0.04821  Biso   1.000  C
  H93      1.0000 0.28780  0.80830  0.94260  Biso   1.000  H
  H94      1.0000 0.71220  0.19170  0.05740  Biso   1.000  H
  C127     1.0000 0.41850  0.82654  0.00121  Biso   1.000  C
  C128     1.0000 0.58150  0.17346  0.99879  Biso   1.000  C
  H95      1.0000 0.40140  0.88490  0.02560  Biso   1.000  H
  H96      1.0000 0.59860  0.11510  0.97440  Biso   1.000  H
  C129     1.0000 0.70951  0.93076  0.06101  Biso   1.000  C
  C130     1.0000 0.29049  0.06924  0.93899  Biso   1.000  C
  C131     1.0000 0.77461  0.00904  0.10310  Biso   1.000  C
  C132     1.0000 0.22539  0.99096  0.89690  Biso   1.000  C
  H97      1.0000 0.75900  0.02060  0.13910  Biso   1.000  H
  H98      1.0000 0.24100  0.97940  0.86090  Biso   1.000  H
  C133     1.0000 0.86200  0.06988  0.09236  Biso   1.000  C
  C134     1.0000 0.13800  0.93012  0.90764  Biso   1.000  C
  H99      1.0000 0.90580  0.12300  0.12100  Biso   1.000  H
  H100     1.0000 0.09420  0.87700  0.87900  Biso   1.000  H
  C135     1.0000 0.88520  0.05320  0.04006  Biso   1.000  C
  C136     1.0000 0.11480  0.94680  0.95994  Biso   1.000  C
  H101     1.0000 0.94530  0.09450  0.03280  Biso   1.000  H
  H102     1.0000 0.05470  0.90550  0.96720  Biso   1.000  H
  C137     1.0000 0.82120  0.97640  0.99836  Biso   1.000  C
  C138     1.0000 0.17880  0.02360  0.00164  Biso   1.000  C
  H103     1.0000 0.83710  0.96540  0.96240  Biso   1.000  H
  H104     1.0000 0.16290  0.03460  0.03760  Biso   1.000  H
  C139     1.0000 0.73360  0.91510  0.00856  Biso   1.000  C
  C140     1.0000 0.26640  0.08490  0.99144  Biso   1.000  C
  H105     1.0000 0.69000  0.86240  0.97960  Biso   1.000  H
  H106     1.0000 0.31000  0.13760  0.02040  Biso   1.000  H
  C141     1.0000 0.94788  0.71643  0.07638  Biso   1.000  C
  C142     1.0000 0.05212  0.28357  0.92362  Biso   1.000  C
  C143     1.0000 0.95663  0.82131  0.08534  Biso   1.000  C
  C144     1.0000 0.04337  0.17869  0.91466  Biso   1.000  C
  H107     1.0000 0.89370  0.85240  0.08980  Biso   1.000  H
  H108     1.0000 0.10630  0.14760  0.91020  Biso   1.000  H
  C145     1.0000 0.05590  0.88140  0.08787  Biso   1.000  C
  C146     1.0000 0.94410  0.11860  0.91213  Biso   1.000  C
  H109     1.0000 0.06090  0.95330  0.09460  Biso   1.000  H
  H110     1.0000 0.93910  0.04670  0.90540  Biso   1.000  H
  C147     1.0000 0.14790  0.83650  0.08061  Biso   1.000  C
  C148     1.0000 0.85210  0.16350  0.91939  Biso   1.000  C
  H111     1.0000 0.21620  0.87740  0.08260  Biso   1.000  H
  H112     1.0000 0.78380  0.12260  0.91740  Biso   1.000  H
  C149     1.0000 0.13950  0.73140  0.07048  Biso   1.000  C
  C150     1.0000 0.86050  0.26860  0.92952  Biso   1.000  C
  H113     1.0000 0.20190  0.70030  0.06460  Biso   1.000  H
  H114     1.0000 0.79810  0.29970  0.93540  Biso   1.000  H
  C151     1.0000 0.04080  0.67160  0.06884  Biso   1.000  C
  C152     1.0000 0.95920  0.32840  0.93116  Biso   1.000  C
  H115     1.0000 0.03630  0.59980  0.06260  Biso   1.000  H
  H116     1.0000 0.96370  0.40020  0.93740  Biso   1.000  H
  C153     1.0000 0.76862  0.57009  0.00528  Biso   1.000  C
  C154     1.0000 0.23138  0.42991  0.99472  Biso   1.000  C
  C155     1.0000 0.81330  0.59300  0.96240  Biso   1.000  C
  C156     1.0000 0.18670  0.40700  0.03760  Biso   1.000  C
  H117     1.0000 0.87310  0.64710  0.96940  Biso   1.000  H
  H118     1.0000 0.12690  0.35290  0.03060  Biso   1.000  H
  C157     1.0000 0.77080  0.53700  0.90913  Biso   1.000  C
  C158     1.0000 0.22920  0.46300  0.09087  Biso   1.000  C
  H119     1.0000 0.80160  0.55310  0.87980  Biso   1.000  H
  H120     1.0000 0.19840  0.44690  0.12020  Biso   1.000  H
  C159     1.0000 0.68390  0.45820  0.89878  Biso   1.000  C
  C160     1.0000 0.31610  0.54180  0.10122  Biso   1.000  C
  H121     1.0000 0.65600  0.41930  0.86240  Biso   1.000  H
  H122     1.0000 0.34400  0.58070  0.13760  Biso   1.000  H
  C161     1.0000 0.63750  0.43593  0.94136  Biso   1.000  C
  C162     1.0000 0.36250  0.56407  0.05864  Biso   1.000  C
  H123     1.0000 0.57710  0.38230  0.93410  Biso   1.000  H
  H124     1.0000 0.42290  0.61770  0.06590  Biso   1.000  H
  C163     1.0000 0.67890  0.49161  0.99430  Biso   1.000  C
  C164     1.0000 0.32110  0.50839  0.00570  Biso   1.000  C
  H125     1.0000 0.64640  0.47660  0.02340  Biso   1.000  H
  H126     1.0000 0.35360  0.52340  0.97660  Biso   1.000  H
  C165     1.0000 0.85624  0.54324  0.10734  Biso   1.000  C
  C166     1.0000 0.14376  0.45676  0.89266  Biso   1.000  C
  C167     1.0000 0.88390  0.45222  0.07741  Biso   1.000  C
  C168     1.0000 0.11610  0.54778  0.92259  Biso   1.000  C
  H127     1.0000 0.87560  0.43670  0.03890  Biso   1.000  H
  H128     1.0000 0.12440  0.56330  0.96110  Biso   1.000  H
  C169     1.0000 0.92320  0.38460  0.10345  Biso   1.000  C
  C170     1.0000 0.07680  0.61540  0.89655  Biso   1.000  C
  H129     1.0000 0.94240  0.32330  0.08280  Biso   1.000  H
  H130     1.0000 0.05760  0.67670  0.91720  Biso   1.000  H
  C171     1.0000 0.93470  0.40600  0.15952  Biso   1.000  C
  C172     1.0000 0.06530  0.59400  0.84048  Biso   1.000  C
  H131     1.0000 0.96210  0.35980  0.17730  Biso   1.000  H
  H132     1.0000 0.03790  0.64020  0.82270  Biso   1.000  H
  C173     1.0000 0.90600  0.49510  0.18953  Biso   1.000  C
  C174     1.0000 0.09400  0.50490  0.81047  Biso   1.000  C
  H133     1.0000 0.91320  0.50940  0.22800  Biso   1.000  H
  H134     1.0000 0.08680  0.49060  0.77200  Biso   1.000  H
  C175     1.0000 0.86690  0.56360  0.16369  Biso   1.000  C
  C176     1.0000 0.13310  0.43640  0.83631  Biso   1.000  C
  H135     1.0000 0.84730  0.62450  0.18450  Biso   1.000  H
  H136     1.0000 0.15270  0.37550  0.81550  Biso   1.000  H
  B1       1.0000 0.93150  0.65000  0.34251  Biso   1.000  B
  B2       1.0000 0.06850  0.35000  0.65749  Biso   1.000  B
  F1       1.0000 0.93830  0.69000  0.39662  Biso   1.000  F
  F2       1.0000 0.06170  0.31000  0.60338  Biso   1.000  F
  F3       1.0000 0.03145  0.66807  0.32582  Biso   1.000  F
  F4       1.0000 0.96855  0.33193  0.67418  Biso   1.000  F
  F5       1.0000 0.85877  0.69407  0.31376  Biso   1.000  F
  F6       1.0000 0.14123  0.30593  0.68624  Biso   1.000  F
  F7       1.0000 0.89327  0.54551  0.32800  Biso   1.000  F
  F8       1.0000 0.10673  0.45449  0.67200  Biso   1.000  F
  B3       1.0000 0.19270  0.22670  0.16600  Biso   1.000  B
  B4       1.0000 0.80730  0.77330  0.83400  Biso   1.000  B
  F9       1.0000 0.26780  0.23810  0.13298  Biso   1.000  F
  F10      1.0000 0.73220  0.76190  0.86702  Biso   1.000  F
  F11      1.0000 0.25050  0.21080  0.21090  Biso   1.000  F
  F12      1.0000 0.74950  0.78920  0.78910  Biso   1.000  F
  F13      1.0000 0.18880  0.32660  0.17560  Biso   1.000  F
  F14      1.0000 0.81120  0.67340  0.82440  Biso   1.000  F
  F15      1.0000 0.11880  0.14130  0.14610  Biso   1.000  F
  F16      1.0000 0.88120  0.85870  0.85390  Biso   1.000  F
  B5       1.0000 0.16560  0.22190  0.17400  Biso   1.000  B
  B6       1.0000 0.83440  0.77810  0.82600  Biso   1.000  B
  F17      1.0000 0.06710  0.21010  0.19346  Biso   1.000  F
  F18      1.0000 0.93290  0.78990  0.80654  Biso   1.000  F
  F19      1.0000 0.23710  0.22430  0.21860  Biso   1.000  F
  F20      1.0000 0.76290  0.77570  0.78140  Biso   1.000  F
  F21      1.0000 0.14250  0.31310  0.17580  Biso   1.000  F
  F22      1.0000 0.85750  0.68690  0.82420  Biso   1.000  F
  F23      1.0000 0.16160  0.14880  0.12770  Biso   1.000  F
  F24      1.0000 0.83840  0.85120  0.87230  Biso   1.000  F
  C177     1.0000 0.83520  0.27080  0.28580  Biso   1.000  C
  C178     1.0000 0.16480  0.72920  0.71420  Biso   1.000  C
  H137     1.0000 0.85450  0.34290  0.28560  Biso   1.000  H
  H138     1.0000 0.14550  0.65710  0.71440  Biso   1.000  H
  H139     1.0000 0.81400  0.27040  0.32150  Biso   1.000  H
  H140     1.0000 0.18600  0.72960  0.67850  Biso   1.000  H
  Cl1      1.0000 0.72339  0.20931  0.23349  Biso   1.000  Cl
  Cl2      1.0000 0.27661  0.79069  0.76651  Biso   1.000  Cl
  Cl3      1.0000 0.94668  0.21130  0.27735  Biso   1.000  Cl
  Cl4      1.0000 0.05332  0.78870  0.72265  Biso   1.000  Cl
  C179     1.0000 0.87870  0.28050  0.26270  Biso   1.000  C
  C180     1.0000 0.12130  0.71950  0.73730  Biso   1.000  C
  H141     1.0000 0.94350  0.28130  0.24420  Biso   1.000  H
  H142     1.0000 0.05650  0.71870  0.75580  Biso   1.000  H
  H143     1.0000 0.87770  0.35130  0.28410  Biso   1.000  H
  H144     1.0000 0.12230  0.64870  0.71590  Biso   1.000  H
  Cl5      1.0000 0.88820  0.20300  0.30595  Biso   1.000  Cl
  Cl6      1.0000 0.11180  0.79700  0.69405  Biso   1.000  Cl
  Cl7      1.0000 0.76030  0.23720  0.21369  Biso   1.000  Cl
  Cl8      1.0000 0.23970  0.76280  0.78631  Biso   1.000  Cl
  C181     1.0000 0.18250  0.65940  0.22080  Biso   1.000  C
  C182     1.0000 0.81750  0.34060  0.77920  Biso   1.000  C
  H145     1.0000 0.13180  0.68750  0.24510  Biso   1.000  H
  H146     1.0000 0.86820  0.31250  0.75490  Biso   1.000  H
  H147     1.0000 0.13950  0.62650  0.18420  Biso   1.000  H
  H148     1.0000 0.86050  0.37350  0.81580  Biso   1.000  H
  Cl9      1.0000 0.23888  0.56910  0.24446  Biso   1.000  Cl
  Cl10     1.0000 0.76112  0.43090  0.75554  Biso   1.000  Cl
  Cl11     1.0000 0.28009  0.76080  0.21685  Biso   1.000  Cl
  Cl12     1.0000 0.71991  0.23920  0.78315  Biso   1.000  Cl
  C183     1.0000 0.17540  0.59290  0.23490  Biso   1.000  C
  C184     1.0000 0.82460  0.40710  0.76510  Biso   1.000  C
  H149     1.0000 0.15340  0.51960  0.21520  Biso   1.000  H
  H150     1.0000 0.84660  0.48040  0.78480  Biso   1.000  H
  H151     1.0000 0.13020  0.60910  0.26390  Biso   1.000  H
  H152     1.0000 0.86980  0.39090  0.73610  Biso   1.000  H
  Cl13     1.0000 0.31530  0.61573  0.26511  Biso   1.000  Cl
  Cl14     1.0000 0.68470  0.38427  0.73489  Biso   1.000  Cl
  Cl15     1.0000 0.15107  0.66416  0.19083  Biso   1.000  Cl
  Cl16     1.0000 0.84893  0.33584  0.80917  Biso   1.000  Cl
