data_image0
_cell_length_a       14.7185
_cell_length_b       15.7165
_cell_length_c       16.5877
_cell_angle_alpha    90
_cell_angle_beta     90
_cell_angle_gamma    90

_symmetry_space_group_name_H-M    "P 1"
_symmetry_int_tables_number       1

loop_
  _symmetry_equiv_pos_as_xyz
  'x, y, z'

loop_
  _atom_site_label
  _atom_site_occupancy
  _atom_site_fract_x
  _atom_site_fract_y
  _atom_site_fract_z
  _atom_site_thermal_displace_type
  _atom_site_B_iso_or_equiv
  _atom_site_type_symbol
  Cu1      1.0000 0.33175  0.19130  0.72753  Biso   1.000  Cu
  Cu2      1.0000 0.16825  0.80870  0.22753  Biso   1.000  Cu
  Cu3      1.0000 0.66825  0.69130  0.77247  Biso   1.000  Cu
  Cu4      1.0000 0.83175  0.30870  0.27247  Biso   1.000  Cu
  P1       1.0000 0.47414  0.24441  0.73551  Biso   1.000  P
  P2       1.0000 0.02586  0.75559  0.23551  Biso   1.000  P
  P3       1.0000 0.52586  0.74441  0.76449  Biso   1.000  P
  P4       1.0000 0.97414  0.25559  0.26449  Biso   1.000  P
  P5       1.0000 0.19837  0.25759  0.75397  Biso   1.000  P
  P6       1.0000 0.30163  0.74241  0.25397  Biso   1.000  P
  P7       1.0000 0.80163  0.75759  0.74603  Biso   1.000  P
  P8       1.0000 0.69837  0.24241  0.24603  Biso   1.000  P
  N1       1.0000 0.32105  0.15577  0.60983  Biso   1.000  N
  N2       1.0000 0.17895  0.84423  0.10983  Biso   1.000  N
  N3       1.0000 0.67895  0.65577  0.89017  Biso   1.000  N
  N4       1.0000 0.82105  0.34423  0.39017  Biso   1.000  N
  N5       1.0000 0.17976  0.92301  0.28206  Biso   1.000  N
  N6       1.0000 0.32024  0.07699  0.78206  Biso   1.000  N
  N7       1.0000 0.82024  0.42301  0.21794  Biso   1.000  N
  N8       1.0000 0.67976  0.57699  0.71794  Biso   1.000  N
  C1       1.0000 0.31173  0.14863  0.54197  Biso   1.000  C
  C2       1.0000 0.18827  0.85137  0.04197  Biso   1.000  C
  C3       1.0000 0.68827  0.64863  0.95803  Biso   1.000  C
  C4       1.0000 0.81173  0.35137  0.45803  Biso   1.000  C
  C5       1.0000 0.30037  0.13977  0.45632  Biso   1.000  C
  C6       1.0000 0.19963  0.86023  0.95632  Biso   1.000  C
  C7       1.0000 0.69963  0.63977  0.04368  Biso   1.000  C
  C8       1.0000 0.80037  0.36023  0.54368  Biso   1.000  C
  C9       1.0000 0.26040  0.06596  0.42620  Biso   1.000  C
  C10      1.0000 0.23960  0.93404  0.92620  Biso   1.000  C
  C11      1.0000 0.73960  0.56596  0.07380  Biso   1.000  C
  C12      1.0000 0.76040  0.43404  0.57380  Biso   1.000  C
  H1       1.0000 0.24050  0.02200  0.46130  Biso   1.000  H
  H2       1.0000 0.25950  0.97800  0.96130  Biso   1.000  H
  H3       1.0000 0.75950  0.52200  0.03870  Biso   1.000  H
  H4       1.0000 0.74050  0.47800  0.53870  Biso   1.000  H
  C13      1.0000 0.25066  0.05882  0.34312  Biso   1.000  C
  C14      1.0000 0.24934  0.94118  0.84312  Biso   1.000  C
  C15      1.0000 0.74934  0.55882  0.15688  Biso   1.000  C
  C16      1.0000 0.75066  0.44118  0.65688  Biso   1.000  C
  C17      1.0000 0.28040  0.12279  0.29093  Biso   1.000  C
  C18      1.0000 0.21960  0.87721  0.79093  Biso   1.000  C
  C19      1.0000 0.71960  0.62279  0.20907  Biso   1.000  C
  C20      1.0000 0.78040  0.37721  0.70907  Biso   1.000  C
  H5       1.0000 0.27390  0.11630  0.23430  Biso   1.000  H
  H6       1.0000 0.22610  0.88370  0.73430  Biso   1.000  H
  H7       1.0000 0.72610  0.61630  0.26570  Biso   1.000  H
  H8       1.0000 0.77390  0.38370  0.76570  Biso   1.000  H
  C21      1.0000 0.31944  0.19580  0.32261  Biso   1.000  C
  C22      1.0000 0.18056  0.80420  0.82261  Biso   1.000  C
  C23      1.0000 0.68056  0.69580  0.17739  Biso   1.000  C
  C24      1.0000 0.81944  0.30420  0.67739  Biso   1.000  C
  H9       1.0000 0.33910  0.23990  0.28760  Biso   1.000  H
  H10      1.0000 0.16090  0.76010  0.78760  Biso   1.000  H
  H11      1.0000 0.66090  0.73990  0.21240  Biso   1.000  H
  H12      1.0000 0.83910  0.26010  0.71240  Biso   1.000  H
  C25      1.0000 0.32982  0.20468  0.40502  Biso   1.000  C
  C26      1.0000 0.17018  0.79532  0.90502  Biso   1.000  C
  C27      1.0000 0.67018  0.70468  0.09498  Biso   1.000  C
  C28      1.0000 0.82982  0.29532  0.59498  Biso   1.000  C
  H13      1.0000 0.35680  0.25460  0.42660  Biso   1.000  H
  H14      1.0000 0.14320  0.74540  0.92660  Biso   1.000  H
  H15      1.0000 0.64320  0.75460  0.07340  Biso   1.000  H
  H16      1.0000 0.85680  0.24540  0.57340  Biso   1.000  H
  C29      1.0000 0.21020  0.98296  0.30983  Biso   1.000  C
  C30      1.0000 0.28980  0.01704  0.80983  Biso   1.000  C
  C31      1.0000 0.78980  0.48296  0.19017  Biso   1.000  C
  C32      1.0000 0.71020  0.51704  0.69017  Biso   1.000  C
  C33      1.0000 0.50242  0.30415  0.82614  Biso   1.000  C
  C34      1.0000 0.99758  0.69585  0.32614  Biso   1.000  C
  C35      1.0000 0.49758  0.80415  0.67386  Biso   1.000  C
  C36      1.0000 0.00242  0.19585  0.17386  Biso   1.000  C
  C37      1.0000 0.46133  0.27582  0.89684  Biso   1.000  C
  C38      1.0000 0.03867  0.72418  0.39684  Biso   1.000  C
  C39      1.0000 0.53867  0.77582  0.60316  Biso   1.000  C
  C40      1.0000 0.96133  0.22418  0.10316  Biso   1.000  C
  H17      1.0000 0.41730  0.23170  0.89460  Biso   1.000  H
  H18      1.0000 0.08270  0.76830  0.39460  Biso   1.000  H
  H19      1.0000 0.58270  0.73170  0.60540  Biso   1.000  H
  H20      1.0000 0.91730  0.26830  0.10540  Biso   1.000  H
  C41      1.0000 0.48423  0.31153  0.97062  Biso   1.000  C
  C42      1.0000 0.01577  0.68847  0.47062  Biso   1.000  C
  C43      1.0000 0.51577  0.81153  0.52938  Biso   1.000  C
  C44      1.0000 0.98423  0.18847  0.02938  Biso   1.000  C
  H21      1.0000 0.45670  0.29120  0.01870  Biso   1.000  H
  H22      1.0000 0.04330  0.70880  0.51870  Biso   1.000  H
  H23      1.0000 0.54330  0.79120  0.48130  Biso   1.000  H
  H24      1.0000 0.95670  0.20880  0.98130  Biso   1.000  H
  C45      1.0000 0.54749  0.37698  0.97393  Biso   1.000  C
  C46      1.0000 0.95251  0.62302  0.47393  Biso   1.000  C
  C47      1.0000 0.45251  0.87698  0.52607  Biso   1.000  C
  C48      1.0000 0.04749  0.12302  0.02607  Biso   1.000  C
  H25      1.0000 0.56270  0.40210  0.02420  Biso   1.000  H
  H26      1.0000 0.93730  0.59790  0.52420  Biso   1.000  H
  H27      1.0000 0.43730  0.90210  0.47580  Biso   1.000  H
  H28      1.0000 0.06270  0.09790  0.97580  Biso   1.000  H
  C49      1.0000 0.58851  0.40562  0.90360  Biso   1.000  C
  C50      1.0000 0.91149  0.59438  0.40360  Biso   1.000  C
  C51      1.0000 0.41149  0.90562  0.59640  Biso   1.000  C
  C52      1.0000 0.08851  0.09438  0.09640  Biso   1.000  C
  H29      1.0000 0.63200  0.45020  0.90580  Biso   1.000  H
  H30      1.0000 0.86800  0.54980  0.40580  Biso   1.000  H
  H31      1.0000 0.36800  0.95020  0.59420  Biso   1.000  H
  H32      1.0000 0.13200  0.04980  0.09420  Biso   1.000  H
  C53      1.0000 0.56618  0.36925  0.83023  Biso   1.000  C
  C54      1.0000 0.93382  0.63075  0.33023  Biso   1.000  C
  C55      1.0000 0.43382  0.86925  0.66977  Biso   1.000  C
  C56      1.0000 0.06618  0.13075  0.16977  Biso   1.000  C
  H33      1.0000 0.59460  0.38890  0.78230  Biso   1.000  H
  H34      1.0000 0.90540  0.61110  0.28230  Biso   1.000  H
  H35      1.0000 0.40540  0.88890  0.71770  Biso   1.000  H
  H36      1.0000 0.09460  0.11110  0.21770  Biso   1.000  H
  C57      1.0000 0.55966  0.16004  0.73546  Biso   1.000  C
  C58      1.0000 0.94034  0.83996  0.23546  Biso   1.000  C
  C59      1.0000 0.44034  0.66004  0.76454  Biso   1.000  C
  C60      1.0000 0.05966  0.33996  0.26454  Biso   1.000  C
  C61      1.0000 0.63832  0.16532  0.78195  Biso   1.000  C
  C62      1.0000 0.86168  0.83468  0.28195  Biso   1.000  C
  C63      1.0000 0.36168  0.66532  0.71805  Biso   1.000  C
  C64      1.0000 0.13832  0.33468  0.21805  Biso   1.000  C
  H37      1.0000 0.64910  0.21410  0.81430  Biso   1.000  H
  H38      1.0000 0.85090  0.78590  0.31430  Biso   1.000  H
  H39      1.0000 0.35090  0.71410  0.68570  Biso   1.000  H
  H40      1.0000 0.14910  0.28590  0.18570  Biso   1.000  H
  C65      1.0000 0.70120  0.09901  0.78092  Biso   1.000  C
  C66      1.0000 0.79880  0.90099  0.28092  Biso   1.000  C
  C67      1.0000 0.29880  0.59901  0.71908  Biso   1.000  C
  C68      1.0000 0.20120  0.40099  0.21908  Biso   1.000  C
  H41      1.0000 0.75400  0.10210  0.81370  Biso   1.000  H
  H42      1.0000 0.74600  0.89790  0.31370  Biso   1.000  H
  H43      1.0000 0.24600  0.60210  0.68630  Biso   1.000  H
  H44      1.0000 0.25400  0.39790  0.18630  Biso   1.000  H
  C69      1.0000 0.68699  0.02857  0.73220  Biso   1.000  C
  C70      1.0000 0.81301  0.97143  0.23220  Biso   1.000  C
  C71      1.0000 0.31301  0.52857  0.76780  Biso   1.000  C
  C72      1.0000 0.18699  0.47143  0.26780  Biso   1.000  C
  H45      1.0000 0.73050  0.98400  0.73100  Biso   1.000  H
  H46      1.0000 0.76950  0.01600  0.23100  Biso   1.000  H
  H47      1.0000 0.26950  0.48400  0.76900  Biso   1.000  H
  H48      1.0000 0.23050  0.51600  0.26900  Biso   1.000  H
  C73      1.0000 0.60956  0.02327  0.68547  Biso   1.000  C
  C74      1.0000 0.89044  0.97673  0.18547  Biso   1.000  C
  C75      1.0000 0.39044  0.52327  0.81453  Biso   1.000  C
  C76      1.0000 0.10956  0.47673  0.31453  Biso   1.000  C
  H49      1.0000 0.60040  0.97550  0.65140  Biso   1.000  H
  H50      1.0000 0.89960  0.02450  0.15140  Biso   1.000  H
  H51      1.0000 0.39960  0.47550  0.84860  Biso   1.000  H
  H52      1.0000 0.10040  0.52450  0.34860  Biso   1.000  H
  C77      1.0000 0.54493  0.08799  0.68835  Biso   1.000  C
  C78      1.0000 0.95507  0.91201  0.18835  Biso   1.000  C
  C79      1.0000 0.45507  0.58799  0.81165  Biso   1.000  C
  C80      1.0000 0.04493  0.41201  0.31165  Biso   1.000  C
  H53      1.0000 0.49050  0.08290  0.65800  Biso   1.000  H
  H54      1.0000 0.00950  0.91710  0.15800  Biso   1.000  H
  H55      1.0000 0.50950  0.58290  0.84200  Biso   1.000  H
  H56      1.0000 0.99050  0.41710  0.34200  Biso   1.000  H
  C81      1.0000 0.50667  0.31011  0.64907  Biso   1.000  C
  C82      1.0000 0.99333  0.68989  0.14907  Biso   1.000  C
  C83      1.0000 0.49333  0.81011  0.85093  Biso   1.000  C
  C84      1.0000 0.00667  0.18989  0.35093  Biso   1.000  C
  C85      1.0000 0.54543  0.27348  0.58056  Biso   1.000  C
  C86      1.0000 0.95457  0.72652  0.08056  Biso   1.000  C
  C87      1.0000 0.45457  0.77348  0.91944  Biso   1.000  C
  C88      1.0000 0.04543  0.22652  0.41944  Biso   1.000  C
  H57      1.0000 0.56080  0.21480  0.58080  Biso   1.000  H
  H58      1.0000 0.93920  0.78520  0.08080  Biso   1.000  H
  H59      1.0000 0.43920  0.71480  0.91920  Biso   1.000  H
  H60      1.0000 0.06080  0.28520  0.41920  Biso   1.000  H
  C89      1.0000 0.56173  0.32201  0.51200  Biso   1.000  C
  C90      1.0000 0.93827  0.67799  0.01200  Biso   1.000  C
  C91      1.0000 0.43827  0.82201  0.98800  Biso   1.000  C
  C92      1.0000 0.06173  0.17799  0.48800  Biso   1.000  C
  H61      1.0000 0.58710  0.29610  0.46540  Biso   1.000  H
  H62      1.0000 0.91290  0.70390  0.96540  Biso   1.000  H
  H63      1.0000 0.41290  0.79610  0.03460  Biso   1.000  H
  H64      1.0000 0.08710  0.20390  0.53460  Biso   1.000  H
  C93      1.0000 0.54095  0.40849  0.51128  Biso   1.000  C
  C94      1.0000 0.95905  0.59151  0.01128  Biso   1.000  C
  C95      1.0000 0.45905  0.90849  0.98872  Biso   1.000  C
  C96      1.0000 0.04095  0.09151  0.48872  Biso   1.000  C
  H65      1.0000 0.55260  0.44180  0.46460  Biso   1.000  H
  H66      1.0000 0.94740  0.55820  0.96460  Biso   1.000  H
  H67      1.0000 0.44740  0.94180  0.03540  Biso   1.000  H
  H68      1.0000 0.05260  0.05820  0.53540  Biso   1.000  H
  C97      1.0000 0.50322  0.44549  0.57909  Biso   1.000  C
  C98      1.0000 0.99678  0.55451  0.07909  Biso   1.000  C
  C99      1.0000 0.49678  0.94549  0.92091  Biso   1.000  C
  C100     1.0000 0.00322  0.05451  0.42091  Biso   1.000  C
  H69      1.0000 0.48990  0.50460  0.57920  Biso   1.000  H
  H70      1.0000 0.01010  0.49540  0.07920  Biso   1.000  H
  H71      1.0000 0.51010  0.00460  0.92080  Biso   1.000  H
  H72      1.0000 0.98990  0.99540  0.42080  Biso   1.000  H
  C101     1.0000 0.48461  0.39682  0.64726  Biso   1.000  C
  C102     1.0000 0.01539  0.60318  0.14726  Biso   1.000  C
  C103     1.0000 0.51539  0.89682  0.85274  Biso   1.000  C
  C104     1.0000 0.98461  0.10318  0.35274  Biso   1.000  C
  H73      1.0000 0.45680  0.42260  0.69280  Biso   1.000  H
  H74      1.0000 0.04320  0.57740  0.19280  Biso   1.000  H
  H75      1.0000 0.54320  0.92260  0.80720  Biso   1.000  H
  H76      1.0000 0.95680  0.07740  0.30720  Biso   1.000  H
  C105     1.0000 0.19012  0.31823  0.84727  Biso   1.000  C
  C106     1.0000 0.30988  0.68177  0.34727  Biso   1.000  C
  C107     1.0000 0.80988  0.81823  0.65273  Biso   1.000  C
  C108     1.0000 0.69012  0.18177  0.15273  Biso   1.000  C
  C109     1.0000 0.22343  0.27899  0.91687  Biso   1.000  C
  C110     1.0000 0.27657  0.72101  0.41687  Biso   1.000  C
  C111     1.0000 0.77657  0.77899  0.58313  Biso   1.000  C
  C112     1.0000 0.72343  0.22101  0.08313  Biso   1.000  C
  H77      1.0000 0.25200  0.22490  0.91330  Biso   1.000  H
  H78      1.0000 0.24800  0.77510  0.41330  Biso   1.000  H
  H79      1.0000 0.74800  0.72490  0.58670  Biso   1.000  H
  H80      1.0000 0.75200  0.27510  0.08670  Biso   1.000  H
  C113     1.0000 0.21484  0.31866  0.99101  Biso   1.000  C
  C114     1.0000 0.28516  0.68134  0.49101  Biso   1.000  C
  C115     1.0000 0.78516  0.81866  0.50899  Biso   1.000  C
  C116     1.0000 0.71484  0.18134  0.00899  Biso   1.000  C
  H81      1.0000 0.23690  0.29160  0.03830  Biso   1.000  H
  H82      1.0000 0.26310  0.70840  0.53830  Biso   1.000  H
  H83      1.0000 0.76310  0.79160  0.46170  Biso   1.000  H
  H84      1.0000 0.73690  0.20840  0.96170  Biso   1.000  H
  C117     1.0000 0.17388  0.39820  0.99610  Biso   1.000  C
  C118     1.0000 0.32612  0.60180  0.49610  Biso   1.000  C
  C119     1.0000 0.82612  0.89820  0.50390  Biso   1.000  C
  C120     1.0000 0.67388  0.10180  0.00390  Biso   1.000  C
  H85      1.0000 0.16870  0.42570  0.04690  Biso   1.000  H
  H86      1.0000 0.33130  0.57430  0.54690  Biso   1.000  H
  H87      1.0000 0.83130  0.92570  0.45310  Biso   1.000  H
  H88      1.0000 0.66870  0.07430  0.95310  Biso   1.000  H
  C121     1.0000 0.14069  0.43729  0.92769  Biso   1.000  C
  C122     1.0000 0.35931  0.56271  0.42769  Biso   1.000  C
  C123     1.0000 0.85931  0.93729  0.57231  Biso   1.000  C
  C124     1.0000 0.64069  0.06271  0.07231  Biso   1.000  C
  H89      1.0000 0.11260  0.49160  0.93140  Biso   1.000  H
  H90      1.0000 0.38740  0.50840  0.43140  Biso   1.000  H
  H91      1.0000 0.88740  0.99160  0.56860  Biso   1.000  H
  H92      1.0000 0.61260  0.00840  0.06860  Biso   1.000  H
  C125     1.0000 0.14836  0.39708  0.85333  Biso   1.000  C
  C126     1.0000 0.35164  0.60292  0.35333  Biso   1.000  C
  C127     1.0000 0.85164  0.89708  0.64667  Biso   1.000  C
  C128     1.0000 0.64836  0.10292  0.14667  Biso   1.000  C
  H93      1.0000 0.12490  0.42380  0.80640  Biso   1.000  H
  H94      1.0000 0.37510  0.57620  0.30640  Biso   1.000  H
  H95      1.0000 0.87510  0.92380  0.69360  Biso   1.000  H
  H96      1.0000 0.62490  0.07620  0.19360  Biso   1.000  H
  C129     1.0000 0.10037  0.18657  0.76266  Biso   1.000  C
  C130     1.0000 0.39963  0.81343  0.26266  Biso   1.000  C
  C131     1.0000 0.89963  0.68657  0.73734  Biso   1.000  C
  C132     1.0000 0.60037  0.31343  0.23734  Biso   1.000  C
  C133     1.0000 0.10001  0.11116  0.71840  Biso   1.000  C
  C134     1.0000 0.39999  0.88884  0.21840  Biso   1.000  C
  C135     1.0000 0.89999  0.61116  0.78160  Biso   1.000  C
  C136     1.0000 0.60001  0.38884  0.28160  Biso   1.000  C
  H97      1.0000 0.15080  0.09690  0.68580  Biso   1.000  H
  H98      1.0000 0.34920  0.90310  0.18580  Biso   1.000  H
  H99      1.0000 0.84920  0.59690  0.81420  Biso   1.000  H
  H100     1.0000 0.65080  0.40310  0.31420  Biso   1.000  H
  C137     1.0000 0.02578  0.05672  0.72176  Biso   1.000  C
  C138     1.0000 0.47422  0.94328  0.22176  Biso   1.000  C
  C139     1.0000 0.97422  0.55672  0.77824  Biso   1.000  C
  C140     1.0000 0.52578  0.44328  0.27824  Biso   1.000  C
  H101     1.0000 0.02570  0.00540  0.69150  Biso   1.000  H
  H102     1.0000 0.47430  0.99460  0.19150  Biso   1.000  H
  H103     1.0000 0.97430  0.50540  0.80850  Biso   1.000  H
  H104     1.0000 0.52570  0.49460  0.30850  Biso   1.000  H
  C141     1.0000 0.95166  0.07773  0.76951  Biso   1.000  C
  C142     1.0000 0.54834  0.92227  0.26951  Biso   1.000  C
  C143     1.0000 0.04834  0.57773  0.73049  Biso   1.000  C
  C144     1.0000 0.45166  0.42227  0.23049  Biso   1.000  C
  H105     1.0000 0.90090  0.04050  0.77210  Biso   1.000  H
  H106     1.0000 0.59910  0.95950  0.27210  Biso   1.000  H
  H107     1.0000 0.09910  0.54050  0.72790  Biso   1.000  H
  H108     1.0000 0.40090  0.45950  0.22790  Biso   1.000  H
  C145     1.0000 0.95133  0.15291  0.81357  Biso   1.000  C
  C146     1.0000 0.54867  0.84709  0.31357  Biso   1.000  C
  C147     1.0000 0.04867  0.65291  0.68643  Biso   1.000  C
  C148     1.0000 0.45133  0.34709  0.18643  Biso   1.000  C
  H109     1.0000 0.90010  0.16720  0.84570  Biso   1.000  H
  H110     1.0000 0.59990  0.83280  0.34570  Biso   1.000  H
  H111     1.0000 0.09990  0.66720  0.65430  Biso   1.000  H
  H112     1.0000 0.40010  0.33280  0.15430  Biso   1.000  H
  C149     1.0000 0.02534  0.20706  0.81079  Biso   1.000  C
  C150     1.0000 0.47466  0.79294  0.31079  Biso   1.000  C
  C151     1.0000 0.97466  0.70706  0.68921  Biso   1.000  C
  C152     1.0000 0.52534  0.29294  0.18921  Biso   1.000  C
  H113     1.0000 0.02530  0.25810  0.84150  Biso   1.000  H
  H114     1.0000 0.47470  0.74190  0.34150  Biso   1.000  H
  H115     1.0000 0.97470  0.75810  0.65850  Biso   1.000  H
  H116     1.0000 0.52530  0.24190  0.15850  Biso   1.000  H
  C153     1.0000 0.16386  0.32963  0.67278  Biso   1.000  C
  C154     1.0000 0.33614  0.67037  0.17278  Biso   1.000  C
  C155     1.0000 0.83614  0.82963  0.82722  Biso   1.000  C
  C156     1.0000 0.66386  0.17037  0.32722  Biso   1.000  C
  C157     1.0000 0.23081  0.35880  0.62000  Biso   1.000  C
  C158     1.0000 0.26919  0.64120  0.12000  Biso   1.000  C
  C159     1.0000 0.76919  0.85880  0.88000  Biso   1.000  C
  C160     1.0000 0.73081  0.14120  0.38000  Biso   1.000  C
  H117     1.0000 0.29230  0.34250  0.62770  Biso   1.000  H
  H118     1.0000 0.20770  0.65750  0.12770  Biso   1.000  H
  H119     1.0000 0.70770  0.84250  0.87230  Biso   1.000  H
  H120     1.0000 0.79230  0.15750  0.37230  Biso   1.000  H
  C161     1.0000 0.20740  0.41192  0.55601  Biso   1.000  C
  C162     1.0000 0.29260  0.58808  0.05601  Biso   1.000  C
  C163     1.0000 0.79260  0.91192  0.94399  Biso   1.000  C
  C164     1.0000 0.70740  0.08808  0.44399  Biso   1.000  C
  H121     1.0000 0.25310  0.43160  0.52020  Biso   1.000  H
  H122     1.0000 0.24690  0.56840  0.02020  Biso   1.000  H
  H123     1.0000 0.74690  0.93160  0.97980  Biso   1.000  H
  H124     1.0000 0.75310  0.06840  0.47980  Biso   1.000  H
  C165     1.0000 0.11830  0.43616  0.54426  Biso   1.000  C
  C166     1.0000 0.38170  0.56384  0.04426  Biso   1.000  C
  C167     1.0000 0.88170  0.93616  0.95574  Biso   1.000  C
  C168     1.0000 0.61830  0.06384  0.45574  Biso   1.000  C
  H125     1.0000 0.10290  0.47260  0.50060  Biso   1.000  H
  H126     1.0000 0.39710  0.52740  0.00060  Biso   1.000  H
  H127     1.0000 0.89710  0.97260  0.99940  Biso   1.000  H
  H128     1.0000 0.60290  0.02740  0.49940  Biso   1.000  H
  C169     1.0000 0.05166  0.40748  0.59590  Biso   1.000  C
  C170     1.0000 0.44834  0.59252  0.09590  Biso   1.000  C
  C171     1.0000 0.94834  0.90748  0.90410  Biso   1.000  C
  C172     1.0000 0.55166  0.09252  0.40410  Biso   1.000  C
  H129     1.0000 0.99030  0.42430  0.58790  Biso   1.000  H
  H130     1.0000 0.50970  0.57570  0.08790  Biso   1.000  H
  H131     1.0000 0.00970  0.92430  0.91210  Biso   1.000  H
  H132     1.0000 0.49030  0.07570  0.41210  Biso   1.000  H
  C173     1.0000 0.07410  0.35384  0.65985  Biso   1.000  C
  C174     1.0000 0.42590  0.64616  0.15985  Biso   1.000  C
  C175     1.0000 0.92590  0.85384  0.84015  Biso   1.000  C
  C176     1.0000 0.57410  0.14616  0.34015  Biso   1.000  C
  H133     1.0000 0.02780  0.33370  0.69480  Biso   1.000  H
  H134     1.0000 0.47220  0.66630  0.19480  Biso   1.000  H
  H135     1.0000 0.97220  0.83370  0.80520  Biso   1.000  H
  H136     1.0000 0.52780  0.16630  0.30520  Biso   1.000  H
  B1       1.0000 0.65301  0.61014  0.42747  Biso   1.000  B
  B2       1.0000 0.84699  0.38986  0.92747  Biso   1.000  B
  B3       1.0000 0.34699  0.11014  0.07253  Biso   1.000  B
  B4       1.0000 0.15301  0.88986  0.57253  Biso   1.000  B
  F1       1.0000 0.69390  0.53754  0.39464  Biso   1.000  F
  F2       1.0000 0.80610  0.46246  0.89464  Biso   1.000  F
  F3       1.0000 0.30610  0.03754  0.10536  Biso   1.000  F
  F4       1.0000 0.19390  0.96246  0.60536  Biso   1.000  F
  F5       1.0000 0.67282  0.61370  0.50910  Biso   1.000  F
  F6       1.0000 0.82718  0.38630  0.00910  Biso   1.000  F
  F7       1.0000 0.32718  0.11370  0.99090  Biso   1.000  F
  F8       1.0000 0.17282  0.88630  0.49090  Biso   1.000  F
  F9       1.0000 0.68695  0.68258  0.38869  Biso   1.000  F
  F10      1.0000 0.81305  0.31742  0.88869  Biso   1.000  F
  F11      1.0000 0.31305  0.18258  0.11131  Biso   1.000  F
  F12      1.0000 0.18695  0.81742  0.61131  Biso   1.000  F
  F13      1.0000 0.56039  0.60564  0.41539  Biso   1.000  F
  F14      1.0000 0.93961  0.39436  0.91539  Biso   1.000  F
  F15      1.0000 0.43961  0.10564  0.08461  Biso   1.000  F
  F16      1.0000 0.06039  0.89436  0.58461  Biso   1.000  F
