data_image0
_cell_length_a       7.464
_cell_length_b       10.195
_cell_length_c       15.094
_cell_angle_alpha    81.617
_cell_angle_beta     89.582
_cell_angle_gamma    78.333

_symmetry_space_group_name_H-M    "P 1"
_symmetry_int_tables_number       1

loop_
  _symmetry_equiv_pos_as_xyz
  'x, y, z'

loop_
  _atom_site_label
  _atom_site_occupancy
  _atom_site_fract_x
  _atom_site_fract_y
  _atom_site_fract_z
  _atom_site_thermal_displace_type
  _atom_site_B_iso_or_equiv
  _atom_site_type_symbol
  Cu1      1.0000 0.59617  0.88918  0.97311  Biso   1.000  Cu
  Cu2      1.0000 0.40383  0.11082  0.02689  Biso   1.000  Cu
  Cu3      1.0000 0.10610  0.39170  0.45015  Biso   1.000  Cu
  Cu4      1.0000 0.89390  0.60830  0.54985  Biso   1.000  Cu
  Cu5      1.0000 0.45427  0.40702  0.56593  Biso   1.000  Cu
  Cu6      1.0000 0.54573  0.59298  0.43407  Biso   1.000  Cu
  I1       1.0000 0.11019  0.38076  0.62499  Biso   1.000  I
  I2       1.0000 0.88981  0.61924  0.37501  Biso   1.000  I
  I3       1.0000 0.72781  0.99918  0.09683  Biso   1.000  I
  I4       1.0000 0.27219  0.00082  0.90317  Biso   1.000  I
  I5       1.0000 0.45864  0.37165  0.39632  Biso   1.000  I
  I6       1.0000 0.54136  0.62835  0.60368  Biso   1.000  I
  S1       1.0000 0.80120  0.86800  0.84989  Biso   1.000  S
  S2       1.0000 0.19880  0.13200  0.15011  Biso   1.000  S
  N1       1.0000 0.63110  0.67950  0.01170  Biso   1.000  N
  N2       1.0000 0.36890  0.32050  0.98830  Biso   1.000  N
  N3       1.0000 0.59760  0.23700  0.64250  Biso   1.000  N
  N4       1.0000 0.40240  0.76300  0.35750  Biso   1.000  N
  N5       1.0000 0.01910  0.23780  0.40880  Biso   1.000  N
  N6       1.0000 0.98090  0.76220  0.59120  Biso   1.000  N
  C1       1.0000 0.72250  0.57870  0.96820  Biso   1.000  C
  C2       1.0000 0.27750  0.42130  0.03180  Biso   1.000  C
  C3       1.0000 0.58970  0.65010  0.09630  Biso   1.000  C
  C4       1.0000 0.41030  0.34990  0.90370  Biso   1.000  C
  H1       1.0000 0.52790  0.71990  0.12530  Biso   1.000  H
  H2       1.0000 0.47210  0.28010  0.87470  Biso   1.000  H
  C5       1.0000 0.63400  0.51900  0.14520  Biso   1.000  C
  C6       1.0000 0.36600  0.48100  0.85480  Biso   1.000  C
  H3       1.0000 0.59870  0.50240  0.20430  Biso   1.000  H
  H4       1.0000 0.40130  0.49760  0.79570  Biso   1.000  H
  C7       1.0000 0.72810  0.41830  0.10480  Biso   1.000  C
  C8       1.0000 0.27190  0.58170  0.89520  Biso   1.000  C
  H5       1.0000 0.76060  0.33130  0.13650  Biso   1.000  H
  H6       1.0000 0.23940  0.66870  0.86350  Biso   1.000  H
  C9       1.0000 0.77790  0.44430  0.01450  Biso   1.000  C
  C10      1.0000 0.22210  0.55570  0.98550  Biso   1.000  C
  C11      1.0000 0.88320  0.34230  0.96990  Biso   1.000  C
  C12      1.0000 0.11680  0.65770  0.03010  Biso   1.000  C
  H7       1.0000 0.92000  0.25480  0.00030  Biso   1.000  H
  H8       1.0000 0.08000  0.74520  0.99970  Biso   1.000  H
  C13      1.0000 0.92970  0.37060  0.88500  Biso   1.000  C
  C14      1.0000 0.07030  0.62940  0.11500  Biso   1.000  C
  H9       1.0000 0.00210  0.30390  0.85700  Biso   1.000  H
  H10      1.0000 0.99790  0.69610  0.14300  Biso   1.000  H
  C15      1.0000 0.86910  0.50200  0.83740  Biso   1.000  C
  C16      1.0000 0.13090  0.49800  0.16260  Biso   1.000  C
  H11      1.0000 0.90050  0.51970  0.77770  Biso   1.000  H
  H12      1.0000 0.09950  0.48030  0.22230  Biso   1.000  H
  C17      1.0000 0.76610  0.60390  0.87610  Biso   1.000  C
  C18      1.0000 0.23390  0.39610  0.12390  Biso   1.000  C
  C19      1.0000 0.69530  0.73600  0.81730  Biso   1.000  C
  C20      1.0000 0.30470  0.26400  0.18270  Biso   1.000  C
  H13      1.0000 0.56360  0.76110  0.82250  Biso   1.000  H
  H14      1.0000 0.43640  0.23890  0.17750  Biso   1.000  H
  H15      1.0000 0.72190  0.72640  0.75530  Biso   1.000  H
  H16      1.0000 0.27810  0.27360  0.24470  Biso   1.000  H
  C21      1.0000 0.71940  0.00570  0.76660  Biso   1.000  C
  C22      1.0000 0.28060  0.99430  0.23340  Biso   1.000  C
  C23      1.0000 0.75770  0.12880  0.77770  Biso   1.000  C
  C24      1.0000 0.24230  0.87120  0.22230  Biso   1.000  C
  H17      1.0000 0.82670  0.13650  0.82710  Biso   1.000  H
  H18      1.0000 0.17330  0.86350  0.17290  Biso   1.000  H
  C25      1.0000 0.69300  0.24080  0.71490  Biso   1.000  C
  C26      1.0000 0.30700  0.75920  0.28510  Biso   1.000  C
  H19      1.0000 0.71800  0.32350  0.72420  Biso   1.000  H
  H20      1.0000 0.28200  0.67650  0.27580  Biso   1.000  H
  C27      1.0000 0.56340  0.11750  0.63140  Biso   1.000  C
  C28      1.0000 0.43660  0.88250  0.36860  Biso   1.000  C
  H21      1.0000 0.49660  0.11250  0.58060  Biso   1.000  H
  H22      1.0000 0.50340  0.88750  0.41940  Biso   1.000  H
  C29      1.0000 0.62180  0.99890  0.69150  Biso   1.000  C
  C30      1.0000 0.37820  0.00110  0.30850  Biso   1.000  C
  H23      1.0000 0.59520  0.91730  0.68080  Biso   1.000  H
  H24      1.0000 0.40480  0.08270  0.31920  Biso   1.000  H
  C31      1.0000 0.95460  0.15470  0.38930  Biso   1.000  C
  C32      1.0000 0.04540  0.84530  0.61070  Biso   1.000  C
  C33      1.0000 0.87500  0.04600  0.36780  Biso   1.000  C
  C34      1.0000 0.12500  0.95400  0.63220  Biso   1.000  C
  H25      1.0000 0.77590  0.03470  0.40740  Biso   1.000  H
  H26      1.0000 0.22410  0.96530  0.59260  Biso   1.000  H
  H27      1.0000 0.96570  0.96370  0.37450  Biso   1.000  H
  H28      1.0000 0.03430  0.03630  0.62550  Biso   1.000  H
  H29      1.0000 0.82860  0.06690  0.30700  Biso   1.000  H
  H30      1.0000 0.17140  0.93310  0.69300  Biso   1.000  H
