data_image0
_cell_length_a       8.169
_cell_length_b       14.708
_cell_length_c       15.701
_cell_angle_alpha    84.412
_cell_angle_beta     75.395
_cell_angle_gamma    77.426

_symmetry_space_group_name_H-M    "P 1"
_symmetry_int_tables_number       1

loop_
  _symmetry_equiv_pos_as_xyz
  'x, y, z'

loop_
  _atom_site_label
  _atom_site_occupancy
  _atom_site_fract_x
  _atom_site_fract_y
  _atom_site_fract_z
  _atom_site_thermal_displace_type
  _atom_site_B_iso_or_equiv
  _atom_site_type_symbol
  Cu1      1.0000 0.04568  0.58255  0.46506  Biso   1.000  Cu
  Cu2      1.0000 0.95432  0.41745  0.53494  Biso   1.000  Cu
  Cu3      1.0000 0.15803  0.45522  0.32774  Biso   1.000  Cu
  Cu4      1.0000 0.84197  0.54478  0.67226  Biso   1.000  Cu
  Cu5      1.0000 0.32823  0.53623  0.17364  Biso   1.000  Cu
  Cu6      1.0000 0.67177  0.46377  0.82636  Biso   1.000  Cu
  Cu7      1.0000 0.46667  0.41410  0.03483  Biso   1.000  Cu
  Cu8      1.0000 0.53333  0.58590  0.96517  Biso   1.000  Cu
  I1       1.0000 0.28696  0.42161  0.46984  Biso   1.000  I
  I2       1.0000 0.71304  0.57839  0.53016  Biso   1.000  I
  I3       1.0000 0.08236  0.63696  0.29832  Biso   1.000  I
  I4       1.0000 0.91764  0.36304  0.70168  Biso   1.000  I
  I5       1.0000 0.40992  0.35455  0.20075  Biso   1.000  I
  I6       1.0000 0.59008  0.64545  0.79925  Biso   1.000  I
  I7       1.0000 0.20765  0.56980  0.02863  Biso   1.000  I
  I8       1.0000 0.79235  0.43020  0.97137  Biso   1.000  I
  C1       1.0000 0.08660  0.60910  0.79660  Biso   1.000  C
  C2       1.0000 0.91340  0.39090  0.20340  Biso   1.000  C
  H1       1.0000 0.01630  0.56280  0.80730  Biso   1.000  H
  H2       1.0000 0.98370  0.43720  0.19270  Biso   1.000  H
  H3       1.0000 0.02830  0.66140  0.83220  Biso   1.000  H
  H4       1.0000 0.97170  0.33860  0.16780  Biso   1.000  H
  H5       1.0000 0.19490  0.58290  0.81130  Biso   1.000  H
  H6       1.0000 0.80510  0.41710  0.18870  Biso   1.000  H
  C3       1.0000 0.11840  0.64070  0.70120  Biso   1.000  C
  C4       1.0000 0.88160  0.35930  0.29880  Biso   1.000  C
  C5       1.0000 0.20790  0.70490  0.55460  Biso   1.000  C
  C6       1.0000 0.79210  0.29510  0.44540  Biso   1.000  C
  C7       1.0000 0.42330  0.83080  0.48270  Biso   1.000  C
  C8       1.0000 0.57670  0.16920  0.51730  Biso   1.000  C
  H7       1.0000 0.44590  0.81050  0.54000  Biso   1.000  H
  H8       1.0000 0.55410  0.18950  0.46000  Biso   1.000  H
  H9       1.0000 0.53330  0.82350  0.43970  Biso   1.000  H
  H10      1.0000 0.46670  0.17650  0.56030  Biso   1.000  H
  C9       1.0000 0.33730  0.93090  0.48420  Biso   1.000  C
  C10      1.0000 0.66270  0.06910  0.51580  Biso   1.000  C
  C11      1.0000 0.26400  0.97250  0.56210  Biso   1.000  C
  C12      1.0000 0.73600  0.02750  0.43790  Biso   1.000  C
  H11      1.0000 0.26720  0.93740  0.61450  Biso   1.000  H
  H12      1.0000 0.73280  0.06260  0.38550  Biso   1.000  H
  C13      1.0000 0.18400  0.06690  0.56570  Biso   1.000  C
  C14      1.0000 0.81600  0.93310  0.43430  Biso   1.000  C
  H13      1.0000 0.13930  0.09360  0.62020  Biso   1.000  H
  H14      1.0000 0.86070  0.90640  0.37980  Biso   1.000  H
  C15      1.0000 0.17000  0.11840  0.49410  Biso   1.000  C
  C16      1.0000 0.83000  0.88160  0.50590  Biso   1.000  C
  H15      1.0000 0.11370  0.18040  0.49820  Biso   1.000  H
  H16      1.0000 0.88630  0.81960  0.50180  Biso   1.000  H
  C17      1.0000 0.24300  0.07970  0.40940  Biso   1.000  C
  C18      1.0000 0.75700  0.92030  0.59060  Biso   1.000  C
  C19      1.0000 0.23700  0.12580  0.33080  Biso   1.000  C
  C20      1.0000 0.76300  0.87420  0.66920  Biso   1.000  C
  H17      1.0000 0.18670  0.18890  0.32980  Biso   1.000  H
  H18      1.0000 0.81330  0.81110  0.67020  Biso   1.000  H
  C21      1.0000 0.30400  0.08150  0.25200  Biso   1.000  C
  C22      1.0000 0.69600  0.91850  0.74800  Biso   1.000  C
  H19      1.0000 0.29660  0.11390  0.19880  Biso   1.000  H
  H20      1.0000 0.70340  0.88610  0.80120  Biso   1.000  H
  C23      1.0000 0.38700  0.98260  0.25400  Biso   1.000  C
  C24      1.0000 0.61300  0.01740  0.74600  Biso   1.000  C
  H21      1.0000 0.43370  0.95240  0.20140  Biso   1.000  H
  H22      1.0000 0.56630  0.04760  0.79860  Biso   1.000  H
  C25      1.0000 0.32460  0.98160  0.40420  Biso   1.000  C
  C26      1.0000 0.67540  0.01840  0.59580  Biso   1.000  C
  C27      1.0000 0.58300  0.58690  0.29800  Biso   1.000  C
  C28      1.0000 0.41700  0.41310  0.70200  Biso   1.000  C
  H23      1.0000 0.52740  0.53460  0.30480  Biso   1.000  H
  H24      1.0000 0.47260  0.46540  0.69520  Biso   1.000  H
  H25      1.0000 0.69290  0.56740  0.31280  Biso   1.000  H
  H26      1.0000 0.30710  0.43260  0.68720  Biso   1.000  H
  H27      1.0000 0.51200  0.63470  0.33630  Biso   1.000  H
  H28      1.0000 0.48800  0.36530  0.66370  Biso   1.000  H
  C29      1.0000 0.60880  0.62370  0.20590  Biso   1.000  C
  C30      1.0000 0.39120  0.37630  0.79410  Biso   1.000  C
  C31      1.0000 0.69070  0.69910  0.06410  Biso   1.000  C
  C32      1.0000 0.30930  0.30090  0.93590  Biso   1.000  C
  C33      1.0000 0.90720  0.82220  0.00920  Biso   1.000  C
  C34      1.0000 0.09280  0.17780  0.99080  Biso   1.000  C
  H29      1.0000 0.99180  0.77760  0.03350  Biso   1.000  H
  H30      1.0000 0.00820  0.22240  0.96650  Biso   1.000  H
  H31      1.0000 0.83630  0.86270  0.05550  Biso   1.000  H
  H32      1.0000 0.16370  0.13730  0.94450  Biso   1.000  H
  C35      1.0000 0.99610  0.87810  0.93560  Biso   1.000  C
  C36      1.0000 0.00390  0.12190  0.06440  Biso   1.000  C
  C37      1.0000 0.15570  0.84210  0.88690  Biso   1.000  C
  C38      1.0000 0.84430  0.15790  0.11310  Biso   1.000  C
  H33      1.0000 0.20690  0.78050  0.89750  Biso   1.000  H
  H34      1.0000 0.79310  0.21950  0.10250  Biso   1.000  H
  C39      1.0000 0.24430  0.89690  0.82050  Biso   1.000  C
  C40      1.0000 0.75570  0.10310  0.17950  Biso   1.000  C
  H35      1.0000 0.35510  0.87150  0.78920  Biso   1.000  H
  H36      1.0000 0.64490  0.12850  0.21080  Biso   1.000  H
  C41      1.0000 0.17080  0.98790  0.80060  Biso   1.000  C
  C42      1.0000 0.82920  0.01210  0.19940  Biso   1.000  C
  H37      1.0000 0.23020  0.02350  0.75610  Biso   1.000  H
  H38      1.0000 0.76980  0.97650  0.24390  Biso   1.000  H
  C43      1.0000 0.00310  0.02530  0.84950  Biso   1.000  C
  C44      1.0000 0.99690  0.97470  0.15050  Biso   1.000  C
  C45      1.0000 0.91800  0.11830  0.83510  Biso   1.000  C
  C46      1.0000 0.08200  0.88170  0.16490  Biso   1.000  C
  H39      1.0000 0.97210  0.15670  0.79150  Biso   1.000  H
  H40      1.0000 0.02790  0.84330  0.20850  Biso   1.000  H
  C47      1.0000 0.75900  0.15130  0.88460  Biso   1.000  C
  C48      1.0000 0.24100  0.84870  0.11540  Biso   1.000  C
  H41      1.0000 0.70090  0.21180  0.87490  Biso   1.000  H
  H42      1.0000 0.29910  0.78820  0.12510  Biso   1.000  H
  C49      1.0000 0.68200  0.09140  0.95160  Biso   1.000  C
  C50      1.0000 0.31800  0.90860  0.04840  Biso   1.000  C
  H43      1.0000 0.57460  0.11570  0.98750  Biso   1.000  H
  H44      1.0000 0.42540  0.88430  0.01250  Biso   1.000  H
  C51      1.0000 0.91230  0.97120  0.91690  Biso   1.000  C
  C52      1.0000 0.08770  0.02880  0.08310  Biso   1.000  C
  N1       1.0000 0.04480  0.61380  0.64650  Biso   1.000  N
  N2       1.0000 0.95520  0.38620  0.35350  Biso   1.000  N
  N3       1.0000 0.09720  0.64990  0.56050  Biso   1.000  N
  N4       1.0000 0.90280  0.35010  0.43950  Biso   1.000  N
  N5       1.0000 0.39650  0.93540  0.32970  Biso   1.000  N
  N6       1.0000 0.60350  0.06460  0.67030  Biso   1.000  N
  N7       1.0000 0.53230  0.60390  0.14930  Biso   1.000  N
  N8       1.0000 0.46770  0.39610  0.85070  Biso   1.000  N
  N9       1.0000 0.57960  0.64630  0.06670  Biso   1.000  N
  N10      1.0000 0.42040  0.35370  0.93330  Biso   1.000  N
  N11      1.0000 0.75200  0.00300  0.96670  Biso   1.000  N
  N12      1.0000 0.24800  0.99700  0.03330  Biso   1.000  N
  S1       1.0000 0.25460  0.71480  0.65461  Biso   1.000  S
  S2       1.0000 0.74540  0.28520  0.34539  Biso   1.000  S
  S3       1.0000 0.29040  0.75660  0.45492  Biso   1.000  S
  S4       1.0000 0.70960  0.24340  0.54508  Biso   1.000  S
  S5       1.0000 0.74540  0.70050  0.16335  Biso   1.000  S
  S6       1.0000 0.25460  0.29950  0.83665  Biso   1.000  S
  S7       1.0000 0.77170  0.76053  0.96888  Biso   1.000  S
  S8       1.0000 0.22830  0.23947  0.03112  Biso   1.000  S
