data_image0
_cell_length_a       16.259
_cell_length_b       6.147
_cell_length_c       16.544
_cell_angle_alpha    90
_cell_angle_beta     93.55
_cell_angle_gamma    90

_symmetry_space_group_name_H-M    "P 1"
_symmetry_int_tables_number       1

loop_
  _symmetry_equiv_pos_as_xyz
  'x, y, z'

loop_
  _atom_site_label
  _atom_site_occupancy
  _atom_site_fract_x
  _atom_site_fract_y
  _atom_site_fract_z
  _atom_site_thermal_displace_type
  _atom_site_B_iso_or_equiv
  _atom_site_type_symbol
  O1       1.0000 0.87250  0.99160  0.30220  Biso   1.000  O
  O2       1.0000 0.62750  0.49160  0.19780  Biso   1.000  O
  O3       1.0000 0.12750  0.00840  0.69780  Biso   1.000  O
  O4       1.0000 0.37250  0.50840  0.80220  Biso   1.000  O
  Cu1      1.0000 0.00000  0.50000  0.50000  Biso   1.000  Cu
  Cu2      1.0000 0.50000  0.00000  0.00000  Biso   1.000  Cu
  Cu3      1.0000 0.11528  0.31380  0.44219  Biso   1.000  Cu
  Cu4      1.0000 0.38472  0.81380  0.05781  Biso   1.000  Cu
  Cu5      1.0000 0.88472  0.68620  0.55781  Biso   1.000  Cu
  Cu6      1.0000 0.61528  0.18620  0.94219  Biso   1.000  Cu
  Cl1      1.0000 0.10589  0.89850  0.44048  Biso   1.000  Cl
  Cl2      1.0000 0.39411  0.39850  0.05952  Biso   1.000  Cl
  Cl3      1.0000 0.89411  0.10150  0.55952  Biso   1.000  Cl
  Cl4      1.0000 0.60589  0.60150  0.94048  Biso   1.000  Cl
  Cu7      1.0000 0.00000  0.00000  0.50000  Biso   1.000  Cu
  Cu8      1.0000 0.50000  0.50000  0.00000  Biso   1.000  Cu
  N1       1.0000 0.17600  0.38180  0.54360  Biso   1.000  N
  N2       1.0000 0.32400  0.88180  0.95640  Biso   1.000  N
  N3       1.0000 0.82400  0.61820  0.45640  Biso   1.000  N
  N4       1.0000 0.67600  0.11820  0.04360  Biso   1.000  N
  N5       1.0000 0.05940  0.49460  0.60300  Biso   1.000  N
  N6       1.0000 0.44060  0.99460  0.89700  Biso   1.000  N
  N7       1.0000 0.94060  0.50540  0.39700  Biso   1.000  N
  N8       1.0000 0.55940  0.00540  0.10300  Biso   1.000  N
  N9       1.0000 0.05520  0.37400  0.34160  Biso   1.000  N
  N10      1.0000 0.44480  0.87400  0.15840  Biso   1.000  N
  N11      1.0000 0.94480  0.62600  0.65840  Biso   1.000  N
  N12      1.0000 0.55520  0.12600  0.84160  Biso   1.000  N
  C1       1.0000 0.26310  0.35030  0.54610  Biso   1.000  C
  C2       1.0000 0.23690  0.85030  0.95390  Biso   1.000  C
  C3       1.0000 0.73690  0.64970  0.45390  Biso   1.000  C
  C4       1.0000 0.76310  0.14970  0.04610  Biso   1.000  C
  C5       1.0000 0.31640  0.51610  0.56580  Biso   1.000  C
  C6       1.0000 0.18360  0.01610  0.93420  Biso   1.000  C
  C7       1.0000 0.68360  0.48390  0.43420  Biso   1.000  C
  C8       1.0000 0.81640  0.98390  0.06580  Biso   1.000  C
  H1       1.0000 0.29600  0.65450  0.57810  Biso   1.000  H
  H2       1.0000 0.20400  0.15450  0.92190  Biso   1.000  H
  H3       1.0000 0.70400  0.34550  0.42190  Biso   1.000  H
  H4       1.0000 0.79600  0.84550  0.07810  Biso   1.000  H
  C9       1.0000 0.40160  0.47980  0.56780  Biso   1.000  C
  C10      1.0000 0.09840  0.97980  0.93220  Biso   1.000  C
  C11      1.0000 0.59840  0.52020  0.43220  Biso   1.000  C
  C12      1.0000 0.90160  0.02020  0.06780  Biso   1.000  C
  H5       1.0000 0.43840  0.59310  0.58250  Biso   1.000  H
  H6       1.0000 0.06160  0.09310  0.91750  Biso   1.000  H
  H7       1.0000 0.56160  0.40690  0.41750  Biso   1.000  H
  H8       1.0000 0.93840  0.90690  0.08250  Biso   1.000  H
  C13      1.0000 0.43170  0.27690  0.54790  Biso   1.000  C
  C14      1.0000 0.06830  0.77690  0.95210  Biso   1.000  C
  C15      1.0000 0.56830  0.72310  0.45210  Biso   1.000  C
  C16      1.0000 0.93170  0.22310  0.04790  Biso   1.000  C
  H9       1.0000 0.48890  0.25270  0.54990  Biso   1.000  H
  H10      1.0000 0.01110  0.75270  0.95010  Biso   1.000  H
  H11      1.0000 0.51110  0.74730  0.45010  Biso   1.000  H
  H12      1.0000 0.98890  0.24730  0.04990  Biso   1.000  H
  C17      1.0000 0.37960  0.11410  0.52580  Biso   1.000  C
  C18      1.0000 0.12040  0.61410  0.97420  Biso   1.000  C
  C19      1.0000 0.62040  0.88590  0.47420  Biso   1.000  C
  C20      1.0000 0.87960  0.38590  0.02580  Biso   1.000  C
  H13      1.0000 0.40050  0.97840  0.51070  Biso   1.000  H
  H14      1.0000 0.09950  0.47840  0.98930  Biso   1.000  H
  H15      1.0000 0.59950  0.02160  0.48930  Biso   1.000  H
  H16      1.0000 0.90050  0.52160  0.01070  Biso   1.000  H
  C21      1.0000 0.29310  0.14780  0.52540  Biso   1.000  C
  C22      1.0000 0.20690  0.64780  0.97460  Biso   1.000  C
  C23      1.0000 0.70690  0.85220  0.47460  Biso   1.000  C
  C24      1.0000 0.79310  0.35220  0.02540  Biso   1.000  C
  H17      1.0000 0.25650  0.03380  0.51110  Biso   1.000  H
  H18      1.0000 0.24350  0.53380  0.98890  Biso   1.000  H
  H19      1.0000 0.74350  0.96620  0.48890  Biso   1.000  H
  H20      1.0000 0.75650  0.46620  0.01110  Biso   1.000  H
  C25      1.0000 0.14200  0.44010  0.60810  Biso   1.000  C
  C26      1.0000 0.35800  0.94010  0.89190  Biso   1.000  C
  C27      1.0000 0.85800  0.55990  0.39190  Biso   1.000  C
  C28      1.0000 0.64200  0.05990  0.10810  Biso   1.000  C
  C29      1.0000 0.18810  0.45900  0.68980  Biso   1.000  C
  C30      1.0000 0.31190  0.95900  0.81020  Biso   1.000  C
  C31      1.0000 0.81190  0.54100  0.31020  Biso   1.000  C
  C32      1.0000 0.68810  0.04100  0.18980  Biso   1.000  C
  H21      1.0000 0.23710  0.36620  0.69100  Biso   1.000  H
  H22      1.0000 0.26290  0.86620  0.80900  Biso   1.000  H
  H23      1.0000 0.76290  0.63380  0.30900  Biso   1.000  H
  H24      1.0000 0.73710  0.13380  0.19100  Biso   1.000  H
  H25      1.0000 0.20630  0.60970  0.69840  Biso   1.000  H
  H26      1.0000 0.29370  0.10970  0.80160  Biso   1.000  H
  H27      1.0000 0.79370  0.39030  0.30160  Biso   1.000  H
  H28      1.0000 0.70630  0.89030  0.19840  Biso   1.000  H
  C33      1.0000 0.13680  0.39500  0.75450  Biso   1.000  C
  C34      1.0000 0.36320  0.89500  0.74550  Biso   1.000  C
  C35      1.0000 0.86320  0.60500  0.24550  Biso   1.000  C
  C36      1.0000 0.63680  0.10500  0.25450  Biso   1.000  C
  H29      1.0000 0.16740  0.41790  0.80670  Biso   1.000  H
  H30      1.0000 0.33260  0.91790  0.69330  Biso   1.000  H
  H31      1.0000 0.83260  0.58210  0.19330  Biso   1.000  H
  H32      1.0000 0.66740  0.08210  0.30670  Biso   1.000  H
  H33      1.0000 0.12440  0.23940  0.74940  Biso   1.000  H
  H34      1.0000 0.37560  0.73940  0.75060  Biso   1.000  H
  H35      1.0000 0.87560  0.76060  0.25060  Biso   1.000  H
  H36      1.0000 0.62440  0.26060  0.24940  Biso   1.000  H
  C37      1.0000 0.05830  0.51850  0.75340  Biso   1.000  C
  C38      1.0000 0.44170  0.01850  0.74660  Biso   1.000  C
  C39      1.0000 0.94170  0.48150  0.24660  Biso   1.000  C
  C40      1.0000 0.55830  0.98150  0.25340  Biso   1.000  C
  H37      1.0000 0.06900  0.66160  0.77800  Biso   1.000  H
  H38      1.0000 0.43100  0.16160  0.72200  Biso   1.000  H
  H39      1.0000 0.93100  0.33840  0.22200  Biso   1.000  H
  H40      1.0000 0.56900  0.83840  0.27800  Biso   1.000  H
  H41      1.0000 0.01980  0.44140  0.78660  Biso   1.000  H
  H42      1.0000 0.48020  0.94140  0.71340  Biso   1.000  H
  H43      1.0000 0.98020  0.55860  0.21340  Biso   1.000  H
  H44      1.0000 0.51980  0.05860  0.28660  Biso   1.000  H
  C41      1.0000 0.01860  0.54920  0.66960  Biso   1.000  C
  C42      1.0000 0.48140  0.04920  0.83040  Biso   1.000  C
  C43      1.0000 0.98140  0.45080  0.33040  Biso   1.000  C
  C44      1.0000 0.51860  0.95080  0.16960  Biso   1.000  C
  C45      1.0000 0.10000  0.32170  0.27060  Biso   1.000  C
  C46      1.0000 0.40000  0.82170  0.22940  Biso   1.000  C
  C47      1.0000 0.90000  0.67830  0.72940  Biso   1.000  C
  C48      1.0000 0.60000  0.17830  0.77060  Biso   1.000  C
  C49      1.0000 0.15340  0.47390  0.24190  Biso   1.000  C
  C50      1.0000 0.34660  0.97390  0.25810  Biso   1.000  C
  C51      1.0000 0.84660  0.52610  0.75810  Biso   1.000  C
  C52      1.0000 0.65340  0.02610  0.74190  Biso   1.000  C
  H45      1.0000 0.15890  0.61100  0.26670  Biso   1.000  H
  H46      1.0000 0.34110  0.11100  0.23330  Biso   1.000  H
  H47      1.0000 0.84110  0.38900  0.73330  Biso   1.000  H
  H48      1.0000 0.65890  0.88900  0.76670  Biso   1.000  H
  C53      1.0000 0.19880  0.42400  0.17650  Biso   1.000  C
  C54      1.0000 0.30120  0.92400  0.32350  Biso   1.000  C
  C55      1.0000 0.80120  0.57600  0.82350  Biso   1.000  C
  C56      1.0000 0.69880  0.07600  0.67650  Biso   1.000  C
  H49      1.0000 0.23590  0.52610  0.15710  Biso   1.000  H
  H50      1.0000 0.26410  0.02610  0.34290  Biso   1.000  H
  H51      1.0000 0.76410  0.47390  0.84290  Biso   1.000  H
  H52      1.0000 0.73590  0.97390  0.65710  Biso   1.000  H
  C57      1.0000 0.18940  0.22530  0.14030  Biso   1.000  C
  C58      1.0000 0.31060  0.72530  0.35970  Biso   1.000  C
  C59      1.0000 0.81060  0.77470  0.85970  Biso   1.000  C
  C60      1.0000 0.68940  0.27470  0.64030  Biso   1.000  C
  H53      1.0000 0.22040  0.19110  0.09590  Biso   1.000  H
  H54      1.0000 0.27960  0.69110  0.40410  Biso   1.000  H
  H55      1.0000 0.77960  0.80890  0.90410  Biso   1.000  H
  H56      1.0000 0.72040  0.30890  0.59590  Biso   1.000  H
  C61      1.0000 0.13630  0.07700  0.16720  Biso   1.000  C
  C62      1.0000 0.36370  0.57700  0.33280  Biso   1.000  C
  C63      1.0000 0.86370  0.92300  0.83280  Biso   1.000  C
  C64      1.0000 0.63630  0.42300  0.66720  Biso   1.000  C
  H57      1.0000 0.12950  0.94230  0.14070  Biso   1.000  H
  H58      1.0000 0.37050  0.44230  0.35930  Biso   1.000  H
  H59      1.0000 0.87050  0.05770  0.85930  Biso   1.000  H
  H60      1.0000 0.62950  0.55770  0.64070  Biso   1.000  H
  C65      1.0000 0.09120  0.12370  0.23480  Biso   1.000  C
  C66      1.0000 0.40880  0.62370  0.26520  Biso   1.000  C
  C67      1.0000 0.90880  0.87630  0.76520  Biso   1.000  C
  C68      1.0000 0.59120  0.37630  0.73480  Biso   1.000  C
  H61      1.0000 0.05550  0.01940  0.25500  Biso   1.000  H
  H62      1.0000 0.44450  0.51940  0.24500  Biso   1.000  H
  H63      1.0000 0.94450  0.98060  0.74500  Biso   1.000  H
  H64      1.0000 0.55550  0.48060  0.75500  Biso   1.000  H
  Cu9      1.0000 0.87390  0.58050  0.56130  Biso   1.000  Cu
  Cu10     1.0000 0.62610  0.08050  0.93870  Biso   1.000  Cu
  Cu11     1.0000 0.12610  0.41950  0.43870  Biso   1.000  Cu
  Cu12     1.0000 0.37390  0.91950  0.06130  Biso   1.000  Cu
  Cl5      1.0000 0.89550  0.08430  0.44400  Biso   1.000  Cl
  Cl6      1.0000 0.60450  0.58430  0.05600  Biso   1.000  Cl
  Cl7      1.0000 0.10450  0.91570  0.55600  Biso   1.000  Cl
  Cl8      1.0000 0.39550  0.41570  0.94400  Biso   1.000  Cl
