data_image0
_cell_length_a       7.2257
_cell_length_b       9.83
_cell_length_c       13.04
_cell_angle_alpha    82.84
_cell_angle_beta     85.61
_cell_angle_gamma    80.93

_symmetry_space_group_name_H-M    "P 1"
_symmetry_int_tables_number       1

loop_
  _symmetry_equiv_pos_as_xyz
  'x, y, z'

loop_
  _atom_site_label
  _atom_site_occupancy
  _atom_site_fract_x
  _atom_site_fract_y
  _atom_site_fract_z
  _atom_site_thermal_displace_type
  _atom_site_B_iso_or_equiv
  _atom_site_type_symbol
  Br1      1.0000 0.98474  0.59924  0.33485  Biso   1.000  Br
  Br2      1.0000 0.01526  0.40076  0.66515  Biso   1.000  Br
  Br3      1.0000 0.10165  0.96907  0.22587  Biso   1.000  Br
  Br4      1.0000 0.89835  0.03093  0.77413  Biso   1.000  Br
  Br5      1.0000 0.44471  0.61529  0.16209  Biso   1.000  Br
  Br6      1.0000 0.55529  0.38471  0.83791  Biso   1.000  Br
  C1       1.0000 0.56940  0.39540  0.38990  Biso   1.000  C
  C2       1.0000 0.43060  0.60460  0.61010  Biso   1.000  C
  H1       1.0000 0.61140  0.45750  0.33680  Biso   1.000  H
  H2       1.0000 0.38860  0.54250  0.66320  Biso   1.000  H
  C3       1.0000 0.67030  0.35860  0.47690  Biso   1.000  C
  C4       1.0000 0.32970  0.64140  0.52310  Biso   1.000  C
  H3       1.0000 0.77870  0.39690  0.48170  Biso   1.000  H
  H4       1.0000 0.22130  0.60310  0.51830  Biso   1.000  H
  C5       1.0000 0.46180  0.21280  0.54460  Biso   1.000  C
  C6       1.0000 0.53820  0.78720  0.45540  Biso   1.000  C
  C7       1.0000 0.35890  0.25070  0.45610  Biso   1.000  C
  C8       1.0000 0.64110  0.74930  0.54390  Biso   1.000  C
  C9       1.0000 0.95810  0.39940  0.12870  Biso   1.000  C
  C10      1.0000 0.04190  0.60060  0.87130  Biso   1.000  C
  H5       1.0000 0.88290  0.45770  0.17120  Biso   1.000  H
  H6       1.0000 0.11710  0.54230  0.82880  Biso   1.000  H
  C11      1.0000 0.88330  0.36200  0.04520  Biso   1.000  C
  C12      1.0000 0.11670  0.63800  0.95480  Biso   1.000  C
  H7       1.0000 0.76040  0.39880  0.03010  Biso   1.000  H
  H8       1.0000 0.23960  0.60120  0.96990  Biso   1.000  H
  C13      1.0000 0.15930  0.22160  0.00820  Biso   1.000  C
  C14      1.0000 0.84070  0.77840  0.99180  Biso   1.000  C
  C15      1.0000 0.23760  0.26520  0.09230  Biso   1.000  C
  C16      1.0000 0.76240  0.73480  0.90770  Biso   1.000  C
  C17      1.0000 0.40600  0.10970  0.63200  Biso   1.000  C
  C18      1.0000 0.59400  0.89030  0.36800  Biso   1.000  C
  H9       1.0000 0.50060  0.09140  0.68180  Biso   1.000  H
  H10      1.0000 0.49940  0.90860  0.31820  Biso   1.000  H
  H11      1.0000 0.39340  0.02500  0.60550  Biso   1.000  H
  H12      1.0000 0.60660  0.97500  0.39450  Biso   1.000  H
  H13      1.0000 0.28840  0.14670  0.66460  Biso   1.000  H
  H14      1.0000 0.71160  0.85330  0.33540  Biso   1.000  H
  C19      1.0000 0.18510  0.18880  0.44330  Biso   1.000  C
  C20      1.0000 0.81490  0.81120  0.55670  Biso   1.000  C
  H15      1.0000 0.10010  0.20020  0.50300  Biso   1.000  H
  H16      1.0000 0.89990  0.79980  0.49700  Biso   1.000  H
  H17      1.0000 0.21930  0.09190  0.43630  Biso   1.000  H
  H18      1.0000 0.78070  0.90810  0.56370  Biso   1.000  H
  H19      1.0000 0.12530  0.23500  0.38250  Biso   1.000  H
  H20      1.0000 0.87470  0.76500  0.61750  Biso   1.000  H
  C21      1.0000 0.26700  0.11500  0.94570  Biso   1.000  C
  C22      1.0000 0.73300  0.88500  0.05430  Biso   1.000  C
  H21      1.0000 0.19010  0.09720  0.89350  Biso   1.000  H
  H22      1.0000 0.80990  0.90280  0.10650  Biso   1.000  H
  H23      1.0000 0.30240  0.03090  0.99010  Biso   1.000  H
  H24      1.0000 0.69760  0.96910  0.00990  Biso   1.000  H
  H25      1.0000 0.37760  0.14840  0.91340  Biso   1.000  H
  H26      1.0000 0.62240  0.85160  0.08660  Biso   1.000  H
  C23      1.0000 0.43670  0.21130  0.11840  Biso   1.000  C
  C24      1.0000 0.56330  0.78870  0.88160  Biso   1.000  C
  H27      1.0000 0.47680  0.26910  0.16390  Biso   1.000  H
  H28      1.0000 0.52320  0.73090  0.83610  Biso   1.000  H
  H29      1.0000 0.51640  0.21220  0.05610  Biso   1.000  H
  H30      1.0000 0.48360  0.78780  0.94390  Biso   1.000  H
  H31      1.0000 0.44400  0.11820  0.15200  Biso   1.000  H
  H32      1.0000 0.55600  0.88180  0.84800  Biso   1.000  H
  Cu1      1.0000 0.24773  0.43333  0.26384  Biso   1.000  Cu
  Cu2      1.0000 0.75227  0.56667  0.73616  Biso   1.000  Cu
  Cu3      1.0000 0.23832  0.75633  0.32019  Biso   1.000  Cu
  Cu4      1.0000 0.76168  0.24367  0.67981  Biso   1.000  Cu
  Cu5      1.0000 0.12969  0.76433  0.14051  Biso   1.000  Cu
  Cu6      1.0000 0.87031  0.23567  0.85949  Biso   1.000  Cu
  N1       1.0000 0.41180  0.34370  0.38020  Biso   1.000  N
  N2       1.0000 0.58820  0.65630  0.61980  Biso   1.000  N
  N3       1.0000 0.61620  0.26880  0.55480  Biso   1.000  N
  N4       1.0000 0.38380  0.73120  0.44520  Biso   1.000  N
  N5       1.0000 0.13670  0.35440  0.15100  Biso   1.000  N
  N6       1.0000 0.86330  0.64560  0.84900  Biso   1.000  N
  N7       1.0000 0.98430  0.27270  0.98400  Biso   1.000  N
  N8       1.0000 0.01570  0.72730  0.01600  Biso   1.000  N
