data_image0
_cell_length_a       12.639
_cell_length_b       15.558
_cell_length_c       16.5787
_cell_angle_alpha    113.349
_cell_angle_beta     91.187
_cell_angle_gamma    106.02

_symmetry_space_group_name_H-M    "P 1"
_symmetry_int_tables_number       1

loop_
  _symmetry_equiv_pos_as_xyz
  'x, y, z'

loop_
  _atom_site_label
  _atom_site_occupancy
  _atom_site_fract_x
  _atom_site_fract_y
  _atom_site_fract_z
  _atom_site_thermal_displace_type
  _atom_site_B_iso_or_equiv
  _atom_site_type_symbol
  P1       1.0000 0.45700  0.30820  0.66010  Biso   1.000  P
  P2       1.0000 0.54300  0.69180  0.33990  Biso   1.000  P
  P3       1.0000 0.20770  0.96050  0.85930  Biso   1.000  P
  P4       1.0000 0.79230  0.03950  0.14070  Biso   1.000  P
  F1       1.0000 0.37100  0.23200  0.58900  Biso   1.000  F
  F2       1.0000 0.62900  0.76800  0.41100  Biso   1.000  F
  F3       1.0000 0.55200  0.37500  0.71900  Biso   1.000  F
  F4       1.0000 0.44800  0.62500  0.28100  Biso   1.000  F
  F5       1.0000 0.51600  0.23100  0.63410  Biso   1.000  F
  F6       1.0000 0.48400  0.76900  0.36590  Biso   1.000  F
  F7       1.0000 0.38200  0.37200  0.69180  Biso   1.000  F
  F8       1.0000 0.61800  0.62800  0.30820  Biso   1.000  F
  F9       1.0000 0.48000  0.34800  0.59320  Biso   1.000  F
  F10      1.0000 0.52000  0.65200  0.40680  Biso   1.000  F
  F11      1.0000 0.43200  0.27600  0.73300  Biso   1.000  F
  F12      1.0000 0.56800  0.72400  0.26700  Biso   1.000  F
  F13      1.0000 0.22600  0.88790  0.76940  Biso   1.000  F
  F14      1.0000 0.77400  0.11210  0.23060  Biso   1.000  F
  F15      1.0000 0.18900  0.03770  0.94470  Biso   1.000  F
  F16      1.0000 0.81100  0.96230  0.05530  Biso   1.000  F
  F17      1.0000 0.14100  0.87230  0.86800  Biso   1.000  F
  F18      1.0000 0.85900  0.12770  0.13200  Biso   1.000  F
  F19      1.0000 0.27000  0.04830  0.84060  Biso   1.000  F
  F20      1.0000 0.73000  0.95170  0.15940  Biso   1.000  F
  F21      1.0000 0.11000  0.96000  0.81500  Biso   1.000  F
  F22      1.0000 0.89000  0.04000  0.18500  Biso   1.000  F
  F23      1.0000 0.30060  0.96300  0.90520  Biso   1.000  F
  F24      1.0000 0.69940  0.03700  0.09480  Biso   1.000  F
  O1       1.0000 0.36700  0.00900  0.35600  Biso   1.000  O
  O2       1.0000 0.63300  0.99100  0.64400  Biso   1.000  O
  O3       1.0000 0.06200  0.15100  0.76000  Biso   1.000  O
  O4       1.0000 0.93800  0.84900  0.24000  Biso   1.000  O
  N1       1.0000 0.20140  0.34440  0.21340  Biso   1.000  N
  N2       1.0000 0.79860  0.65560  0.78660  Biso   1.000  N
  N3       1.0000 0.56840  0.66260  0.93670  Biso   1.000  N
  N4       1.0000 0.43160  0.33740  0.06330  Biso   1.000  N
  N5       1.0000 0.17160  0.26920  0.37210  Biso   1.000  N
  N6       1.0000 0.82840  0.73080  0.62790  Biso   1.000  N
  N7       1.0000 0.63860  0.27060  0.97650  Biso   1.000  N
  N8       1.0000 0.36140  0.72940  0.02350  Biso   1.000  N
  N9       1.0000 0.42870  0.31850  0.32830  Biso   1.000  N
  N10      1.0000 0.57130  0.68150  0.67170  Biso   1.000  N
  N11      1.0000 0.31640  0.63850  0.80880  Biso   1.000  N
  N12      1.0000 0.68360  0.36150  0.19120  Biso   1.000  N
  N13      1.0000 0.21070  0.12950  0.18460  Biso   1.000  N
  N14      1.0000 0.78930  0.87050  0.81540  Biso   1.000  N
  N15      1.0000 0.51170  0.84290  0.90720  Biso   1.000  N
  N16      1.0000 0.48830  0.15710  0.09280  Biso   1.000  N
  C1       1.0000 0.23270  0.44100  0.24120  Biso   1.000  C
  C2       1.0000 0.76730  0.55900  0.75880  Biso   1.000  C
  C3       1.0000 0.17590  0.49040  0.21180  Biso   1.000  C
  C4       1.0000 0.82410  0.50960  0.78820  Biso   1.000  C
  C5       1.0000 0.07800  0.43730  0.15410  Biso   1.000  C
  C6       1.0000 0.92200  0.56270  0.84590  Biso   1.000  C
  C7       1.0000 0.04570  0.33710  0.12410  Biso   1.000  C
  C8       1.0000 0.95430  0.66290  0.87590  Biso   1.000  C
  C9       1.0000 0.10720  0.29350  0.15600  Biso   1.000  C
  C10      1.0000 0.89280  0.70650  0.84400  Biso   1.000  C
  C11      1.0000 0.55530  0.56940  0.91950  Biso   1.000  C
  C12      1.0000 0.44470  0.43060  0.08050  Biso   1.000  C
  C13      1.0000 0.63240  0.53870  0.95150  Biso   1.000  C
  C14      1.0000 0.36760  0.46130  0.04850  Biso   1.000  C
  C15      1.0000 0.72760  0.60750  0.00610  Biso   1.000  C
  C16      1.0000 0.27240  0.39250  0.99390  Biso   1.000  C
  C17      1.0000 0.74160  0.70310  0.02350  Biso   1.000  C
  C18      1.0000 0.25840  0.29690  0.97650  Biso   1.000  C
  C19      1.0000 0.66090  0.72680  0.98680  Biso   1.000  C
  C20      1.0000 0.33910  0.27320  0.01320  Biso   1.000  C
  C21      1.0000 0.01060  0.48190  0.12390  Biso   1.000  C
  C22      1.0000 0.98940  0.51810  0.87610  Biso   1.000  C
  C23      1.0000 0.94910  0.51670  0.09850  Biso   1.000  C
  C24      1.0000 0.05090  0.48330  0.90150  Biso   1.000  C
  C25      1.0000 0.87490  0.55000  0.06890  Biso   1.000  C
  C26      1.0000 0.12510  0.45000  0.93110  Biso   1.000  C
  C27      1.0000 0.80840  0.57620  0.04060  Biso   1.000  C
  C28      1.0000 0.19160  0.42380  0.95940  Biso   1.000  C
  C29      1.0000 0.06220  0.25440  0.35920  Biso   1.000  C
  C30      1.0000 0.93780  0.74560  0.64080  Biso   1.000  C
  C31      1.0000 0.99230  0.24650  0.42040  Biso   1.000  C
  C32      1.0000 0.00770  0.75350  0.57960  Biso   1.000  C
  C33      1.0000 0.03750  0.25290  0.49980  Biso   1.000  C
  C34      1.0000 0.96250  0.74710  0.50020  Biso   1.000  C
  C35      1.0000 0.15010  0.27050  0.51320  Biso   1.000  C
  C36      1.0000 0.84990  0.72950  0.48680  Biso   1.000  C
  C37      1.0000 0.21270  0.27630  0.44850  Biso   1.000  C
  C38      1.0000 0.78730  0.72370  0.55150  Biso   1.000  C
  C39      1.0000 0.74770  0.28240  0.98140  Biso   1.000  C
  C40      1.0000 0.25230  0.71760  0.01860  Biso   1.000  C
  C41      1.0000 0.80900  0.27760  0.91260  Biso   1.000  C
  C42      1.0000 0.19100  0.72240  0.08740  Biso   1.000  C
  C43      1.0000 0.75360  0.25750  0.83160  Biso   1.000  C
  C44      1.0000 0.24640  0.74250  0.16840  Biso   1.000  C
  C45      1.0000 0.63980  0.24210  0.82460  Biso   1.000  C
  C46      1.0000 0.36020  0.75790  0.17540  Biso   1.000  C
  C47      1.0000 0.58610  0.25020  0.89740  Biso   1.000  C
  C48      1.0000 0.41390  0.74980  0.10260  Biso   1.000  C
  C49      1.0000 0.97190  0.24830  0.56910  Biso   1.000  C
  C50      1.0000 0.02810  0.75170  0.43090  Biso   1.000  C
  C51      1.0000 0.91960  0.25040  0.62840  Biso   1.000  C
  C52      1.0000 0.08040  0.74960  0.37160  Biso   1.000  C
  C53      1.0000 0.86080  0.25040  0.69700  Biso   1.000  C
  C54      1.0000 0.13920  0.74960  0.30300  Biso   1.000  C
  C55      1.0000 0.81160  0.25180  0.75770  Biso   1.000  C
  C56      1.0000 0.18840  0.74820  0.24230  Biso   1.000  C
  C57      1.0000 0.49180  0.41170  0.35980  Biso   1.000  C
  C58      1.0000 0.50820  0.58830  0.64020  Biso   1.000  C
  C59      1.0000 0.59280  0.44810  0.41130  Biso   1.000  C
  C60      1.0000 0.40720  0.55190  0.58870  Biso   1.000  C
  C61      1.0000 0.63390  0.38450  0.43070  Biso   1.000  C
  C62      1.0000 0.36610  0.61550  0.56930  Biso   1.000  C
  C63      1.0000 0.57070  0.28720  0.39570  Biso   1.000  C
  C64      1.0000 0.42930  0.71280  0.60430  Biso   1.000  C
  C65      1.0000 0.47080  0.25710  0.34340  Biso   1.000  C
  C66      1.0000 0.52920  0.74290  0.65660  Biso   1.000  C
  C67      1.0000 0.26440  0.54330  0.77420  Biso   1.000  C
  C68      1.0000 0.73560  0.45670  0.22580  Biso   1.000  C
  C69      1.0000 0.16690  0.49830  0.71400  Biso   1.000  C
  C70      1.0000 0.83310  0.50170  0.28600  Biso   1.000  C
  C71      1.0000 0.11940  0.55360  0.69020  Biso   1.000  C
  C72      1.0000 0.88060  0.44640  0.30980  Biso   1.000  C
  C73      1.0000 0.17300  0.65400  0.72510  Biso   1.000  C
  C74      1.0000 0.82700  0.34600  0.27490  Biso   1.000  C
  C75      1.0000 0.27000  0.69320  0.78430  Biso   1.000  C
  C76      1.0000 0.73000  0.30680  0.21570  Biso   1.000  C
  C77      1.0000 0.74150  0.41910  0.48570  Biso   1.000  C
  C78      1.0000 0.25850  0.58090  0.51430  Biso   1.000  C
  C79      1.0000 0.82980  0.44790  0.53090  Biso   1.000  C
  C80      1.0000 0.17020  0.55210  0.46910  Biso   1.000  C
  C81      1.0000 0.92770  0.48270  0.58380  Biso   1.000  C
  C82      1.0000 0.07230  0.51730  0.41620  Biso   1.000  C
  C83      1.0000 0.01640  0.51130  0.63070  Biso   1.000  C
  C84      1.0000 0.98360  0.48870  0.36930  Biso   1.000  C
  C85      1.0000 0.16060  0.05120  0.14400  Biso   1.000  C
  C86      1.0000 0.83940  0.94880  0.85600  Biso   1.000  C
  C87      1.0000 0.09900  0.95050  0.08600  Biso   1.000  C
  C88      1.0000 0.90100  0.04950  0.91400  Biso   1.000  C
  C89      1.0000 0.54190  0.91470  0.89900  Biso   1.000  C
  C90      1.0000 0.45810  0.08530  0.10100  Biso   1.000  C
  C91      1.0000 0.58060  0.00730  0.89390  Biso   1.000  C
  C92      1.0000 0.41940  0.99270  0.10610  Biso   1.000  C
  H1       1.0000 0.29780  0.47890  0.28390  Biso   1.000  H
  H2       1.0000 0.70220  0.52110  0.71610  Biso   1.000  H
  H3       1.0000 0.20440  0.55970  0.23130  Biso   1.000  H
  H4       1.0000 0.79560  0.44030  0.76870  Biso   1.000  H
  H5       1.0000 0.98100  0.29760  0.08130  Biso   1.000  H
  H6       1.0000 0.01900  0.70240  0.91870  Biso   1.000  H
  H7       1.0000 0.08140  0.22400  0.13630  Biso   1.000  H
  H8       1.0000 0.91860  0.77600  0.86370  Biso   1.000  H
  H9       1.0000 0.48910  0.52100  0.88320  Biso   1.000  H
  H10      1.0000 0.51090  0.47900  0.11680  Biso   1.000  H
  H11      1.0000 0.61990  0.47070  0.93590  Biso   1.000  H
  H12      1.0000 0.38010  0.52930  0.06410  Biso   1.000  H
  H13      1.0000 0.80630  0.75330  0.06060  Biso   1.000  H
  H14      1.0000 0.19370  0.24670  0.93940  Biso   1.000  H
  H15      1.0000 0.67340  0.79410  0.99860  Biso   1.000  H
  H16      1.0000 0.32660  0.20590  0.00140  Biso   1.000  H
  H17      1.0000 0.03050  0.24910  0.30430  Biso   1.000  H
  H18      1.0000 0.96950  0.75090  0.69570  Biso   1.000  H
  H19      1.0000 0.91510  0.23680  0.40820  Biso   1.000  H
  H20      1.0000 0.08490  0.76320  0.59180  Biso   1.000  H
  H21      1.0000 0.18500  0.27880  0.56820  Biso   1.000  H
  H22      1.0000 0.81500  0.72120  0.43180  Biso   1.000  H
  H23      1.0000 0.29010  0.28610  0.45940  Biso   1.000  H
  H24      1.0000 0.70990  0.71390  0.54060  Biso   1.000  H
  H25      1.0000 0.78630  0.29500  0.03670  Biso   1.000  H
  H26      1.0000 0.21370  0.70500  0.96330  Biso   1.000  H
  H27      1.0000 0.88690  0.28790  0.92090  Biso   1.000  H
  H28      1.0000 0.11310  0.71210  0.07910  Biso   1.000  H
  H29      1.0000 0.59860  0.22580  0.76920  Biso   1.000  H
  H30      1.0000 0.40140  0.77420  0.23080  Biso   1.000  H
  H31      1.0000 0.50840  0.24080  0.89100  Biso   1.000  H
  H32      1.0000 0.49160  0.75920  0.10900  Biso   1.000  H
  H33      1.0000 0.46480  0.45600  0.34560  Biso   1.000  H
  H34      1.0000 0.53520  0.54400  0.65440  Biso   1.000  H
  H35      1.0000 0.63390  0.51600  0.43340  Biso   1.000  H
  H36      1.0000 0.36610  0.48400  0.56660  Biso   1.000  H
  H37      1.0000 0.59630  0.24090  0.40770  Biso   1.000  H
  H38      1.0000 0.40370  0.75910  0.59230  Biso   1.000  H
  H39      1.0000 0.43010  0.18900  0.31700  Biso   1.000  H
  H40      1.0000 0.56990  0.81100  0.68300  Biso   1.000  H
  H41      1.0000 0.29540  0.50300  0.79150  Biso   1.000  H
  H42      1.0000 0.70460  0.49700  0.20850  Biso   1.000  H
  H43      1.0000 0.13400  0.42890  0.68980  Biso   1.000  H
  H44      1.0000 0.86600  0.57110  0.31020  Biso   1.000  H
  H45      1.0000 0.14330  0.69540  0.70840  Biso   1.000  H
  H46      1.0000 0.85670  0.30460  0.29160  Biso   1.000  H
  H47      1.0000 0.30530  0.76230  0.80870  Biso   1.000  H
  H48      1.0000 0.69470  0.23770  0.19130  Biso   1.000  H
  H49      1.0000 0.05220  0.92180  0.11900  Biso   1.000  H
  H50      1.0000 0.94780  0.07820  0.88100  Biso   1.000  H
  H51      1.0000 0.05540  0.94880  0.03830  Biso   1.000  H
  H52      1.0000 0.94460  0.05120  0.96170  Biso   1.000  H
  H53      1.0000 0.14990  0.91450  0.06420  Biso   1.000  H
  H54      1.0000 0.85010  0.08550  0.93580  Biso   1.000  H
  H55      1.0000 0.65520  0.04010  0.92300  Biso   1.000  H
  H56      1.0000 0.34480  0.95990  0.07700  Biso   1.000  H
  H57      1.0000 0.57750  0.99700  0.83340  Biso   1.000  H
  H58      1.0000 0.42250  0.00300  0.16660  Biso   1.000  H
  H59      1.0000 0.53480  0.04640  0.92200  Biso   1.000  H
  H60      1.0000 0.46520  0.95360  0.07800  Biso   1.000  H
  Cu1      1.0000 0.26858  0.27291  0.27037  Biso   1.000  Cu
  Cu2      1.0000 0.73142  0.72709  0.72963  Biso   1.000  Cu
  Cu3      1.0000 0.44379  0.71118  0.91145  Biso   1.000  Cu
  Cu4      1.0000 0.55621  0.28882  0.08855  Biso   1.000  Cu
