data_image0
_cell_length_a       8.3829
_cell_length_b       9.0841
_cell_length_c       10.0175
_cell_angle_alpha    91.757
_cell_angle_beta     92.424
_cell_angle_gamma    107.182

_symmetry_space_group_name_H-M    "P 1"
_symmetry_int_tables_number       1

loop_
  _symmetry_equiv_pos_as_xyz
  'x, y, z'

loop_
  _atom_site_label
  _atom_site_occupancy
  _atom_site_fract_x
  _atom_site_fract_y
  _atom_site_fract_z
  _atom_site_thermal_displace_type
  _atom_site_B_iso_or_equiv
  _atom_site_type_symbol
  Cu1      1.0000 0.00988  0.06528  0.86518  Biso   1.000  Cu
  Cu2      1.0000 0.99012  0.93472  0.13482  Biso   1.000  Cu
  Cl1      1.0000 0.76911  0.92374  0.97458  Biso   1.000  Cl
  Cl2      1.0000 0.23089  0.07626  0.02542  Biso   1.000  Cl
  C1       1.0000 0.46440  0.05550  0.69740  Biso   1.000  C
  C2       1.0000 0.53560  0.94450  0.30260  Biso   1.000  C
  C3       1.0000 0.57760  0.21410  0.75580  Biso   1.000  C
  C4       1.0000 0.42240  0.78590  0.24420  Biso   1.000  C
  O1       1.0000 0.52150  0.95600  0.65675  Biso   1.000  O
  O2       1.0000 0.47850  0.04400  0.34325  Biso   1.000  O
  O3       1.0000 0.52490  0.32400  0.76890  Biso   1.000  O
  O4       1.0000 0.47510  0.67600  0.23110  Biso   1.000  O
  N1       1.0000 0.30210  0.05120  0.69490  Biso   1.000  N
  N2       1.0000 0.69790  0.94880  0.30510  Biso   1.000  N
  H1       1.0000 0.27400  0.12000  0.73900  Biso   1.000  H
  H2       1.0000 0.72600  0.88000  0.26100  Biso   1.000  H
  N3       1.0000 0.73550  0.20980  0.78230  Biso   1.000  N
  N4       1.0000 0.26450  0.79020  0.21770  Biso   1.000  N
  H3       1.0000 0.75300  0.12600  0.77500  Biso   1.000  H
  H4       1.0000 0.24700  0.87400  0.22500  Biso   1.000  H
  N5       1.0000 0.01760  0.93610  0.69630  Biso   1.000  N
  N6       1.0000 0.98240  0.06390  0.30370  Biso   1.000  N
  N7       1.0000 0.01680  0.28860  0.84210  Biso   1.000  N
  N8       1.0000 0.98320  0.71140  0.15790  Biso   1.000  N
  C5       1.0000 0.16210  0.93130  0.64610  Biso   1.000  C
  C6       1.0000 0.83790  0.06870  0.35390  Biso   1.000  C
  C7       1.0000 0.17130  0.81990  0.55140  Biso   1.000  C
  C8       1.0000 0.82870  0.18010  0.44860  Biso   1.000  C
  H5       1.0000 0.27580  0.81790  0.51970  Biso   1.000  H
  H6       1.0000 0.72420  0.18210  0.48030  Biso   1.000  H
  C9       1.0000 0.02410  0.71170  0.50440  Biso   1.000  C
  C10      1.0000 0.97590  0.28830  0.49560  Biso   1.000  C
  H7       1.0000 0.02720  0.63380  0.43990  Biso   1.000  H
  H8       1.0000 0.97280  0.36620  0.56010  Biso   1.000  H
  C11      1.0000 0.87140  0.71660  0.55120  Biso   1.000  C
  C12      1.0000 0.12860  0.28340  0.44880  Biso   1.000  C
  C13      1.0000 0.87530  0.83020  0.64700  Biso   1.000  C
  C14      1.0000 0.12470  0.16980  0.35300  Biso   1.000  C
  H9       1.0000 0.77220  0.83440  0.68030  Biso   1.000  H
  H10      1.0000 0.22780  0.16560  0.31970  Biso   1.000  H
  C15      1.0000 0.70880  0.60090  0.50330  Biso   1.000  C
  C16      1.0000 0.29120  0.39910  0.49670  Biso   1.000  C
  H11      1.0000 0.61720  0.62100  0.55110  Biso   1.000  H
  H12      1.0000 0.38280  0.37900  0.44890  Biso   1.000  H
  H13      1.0000 0.71360  0.49660  0.52060  Biso   1.000  H
  H14      1.0000 0.28640  0.50340  0.47940  Biso   1.000  H
  H15      1.0000 0.68950  0.60960  0.40710  Biso   1.000  H
  H16      1.0000 0.31050  0.39040  0.59290  Biso   1.000  H
  C17      1.0000 0.87950  0.33270  0.81690  Biso   1.000  C
  C18      1.0000 0.12050  0.66730  0.18310  Biso   1.000  C
  C19      1.0000 0.88240  0.48690  0.82030  Biso   1.000  C
  C20      1.0000 0.11760  0.51310  0.17970  Biso   1.000  C
  H17      1.0000 0.78250  0.51490  0.80680  Biso   1.000  H
  H18      1.0000 0.21750  0.48510  0.19320  Biso   1.000  H
  C21      1.0000 0.03570  0.59820  0.84400  Biso   1.000  C
  C22      1.0000 0.96430  0.40180  0.15600  Biso   1.000  C
  H19      1.0000 0.04120  0.70430  0.84750  Biso   1.000  H
  H20      1.0000 0.95880  0.29570  0.15250  Biso   1.000  H
  C23      1.0000 0.18160  0.55640  0.86260  Biso   1.000  C
  C24      1.0000 0.81840  0.44360  0.13740  Biso   1.000  C
  C25      1.0000 0.16380  0.40020  0.86380  Biso   1.000  C
  C26      1.0000 0.83620  0.59980  0.13620  Biso   1.000  C
  H21      1.0000 0.26140  0.36950  0.88110  Biso   1.000  H
  H22      1.0000 0.73860  0.63050  0.11890  Biso   1.000  H
  C27      1.0000 0.35140  0.67400  0.88300  Biso   1.000  C
  C28      1.0000 0.64860  0.32600  0.11700  Biso   1.000  C
  H23      1.0000 0.42370  0.63300  0.94110  Biso   1.000  H
  H24      1.0000 0.57630  0.36700  0.05890  Biso   1.000  H
  H25      1.0000 0.33980  0.76890  0.92490  Biso   1.000  H
  H26      1.0000 0.66020  0.23110  0.07510  Biso   1.000  H
  H27      1.0000 0.40120  0.69640  0.79640  Biso   1.000  H
  H28      1.0000 0.59880  0.30360  0.20360  Biso   1.000  H
