data_image0
_cell_length_a       17.723
_cell_length_b       17.723
_cell_length_c       20.014
_cell_angle_alpha    90
_cell_angle_beta     90
_cell_angle_gamma    90

_symmetry_space_group_name_H-M    "P 1"
_symmetry_int_tables_number       1

loop_
  _symmetry_equiv_pos_as_xyz
  'x, y, z'

loop_
  _atom_site_label
  _atom_site_occupancy
  _atom_site_fract_x
  _atom_site_fract_y
  _atom_site_fract_z
  _atom_site_thermal_displace_type
  _atom_site_B_iso_or_equiv
  _atom_site_type_symbol
  Cu1      1.0000 0.15334  0.06360  0.10700  Biso   1.000  Cu
  Cu2      1.0000 0.34666  0.93640  0.60700  Biso   1.000  Cu
  Cu3      1.0000 0.68640  0.40334  0.35700  Biso   1.000  Cu
  Cu4      1.0000 0.81360  0.59666  0.85700  Biso   1.000  Cu
  Cu5      1.0000 0.65334  0.56360  0.60700  Biso   1.000  Cu
  Cu6      1.0000 0.84666  0.43640  0.10700  Biso   1.000  Cu
  Cu7      1.0000 0.18640  0.90334  0.85700  Biso   1.000  Cu
  Cu8      1.0000 0.31360  0.09666  0.35700  Biso   1.000  Cu
  Cu9      1.0000 0.84666  0.93640  0.89300  Biso   1.000  Cu
  Cu10     1.0000 0.65334  0.06360  0.39300  Biso   1.000  Cu
  Cu11     1.0000 0.81360  0.09666  0.14300  Biso   1.000  Cu
  Cu12     1.0000 0.68640  0.90334  0.64300  Biso   1.000  Cu
  Cu13     1.0000 0.34666  0.43640  0.39300  Biso   1.000  Cu
  Cu14     1.0000 0.15334  0.56360  0.89300  Biso   1.000  Cu
  Cu15     1.0000 0.31360  0.59666  0.64300  Biso   1.000  Cu
  Cu16     1.0000 0.18640  0.40334  0.14300  Biso   1.000  Cu
  Cu17     1.0000 0.02481  0.33156  0.07260  Biso   1.000  Cu
  Cu18     1.0000 0.47519  0.66844  0.57260  Biso   1.000  Cu
  Cu19     1.0000 0.41844  0.27481  0.32260  Biso   1.000  Cu
  Cu20     1.0000 0.08156  0.72519  0.82260  Biso   1.000  Cu
  Cu21     1.0000 0.52481  0.83156  0.57260  Biso   1.000  Cu
  Cu22     1.0000 0.97519  0.16844  0.07260  Biso   1.000  Cu
  Cu23     1.0000 0.91844  0.77481  0.82260  Biso   1.000  Cu
  Cu24     1.0000 0.58156  0.22519  0.32260  Biso   1.000  Cu
  Cu25     1.0000 0.97519  0.66844  0.92740  Biso   1.000  Cu
  Cu26     1.0000 0.52481  0.33156  0.42740  Biso   1.000  Cu
  Cu27     1.0000 0.08156  0.22519  0.17740  Biso   1.000  Cu
  Cu28     1.0000 0.41844  0.77481  0.67740  Biso   1.000  Cu
  Cu29     1.0000 0.47519  0.16844  0.42740  Biso   1.000  Cu
  Cu30     1.0000 0.02481  0.83156  0.92740  Biso   1.000  Cu
  Cu31     1.0000 0.58156  0.72519  0.67740  Biso   1.000  Cu
  Cu32     1.0000 0.91844  0.27481  0.17740  Biso   1.000  Cu
  Br1      1.0000 0.10350  0.20317  0.05162  Biso   1.000  Br
  Br2      1.0000 0.39650  0.79683  0.55162  Biso   1.000  Br
  Br3      1.0000 0.54683  0.35350  0.30162  Biso   1.000  Br
  Br4      1.0000 0.95317  0.64650  0.80162  Biso   1.000  Br
  Br5      1.0000 0.60350  0.70317  0.55162  Biso   1.000  Br
  Br6      1.0000 0.89650  0.29683  0.05162  Biso   1.000  Br
  Br7      1.0000 0.04683  0.85350  0.80162  Biso   1.000  Br
  Br8      1.0000 0.45317  0.14650  0.30162  Biso   1.000  Br
  Br9      1.0000 0.89650  0.79683  0.94838  Biso   1.000  Br
  Br10     1.0000 0.60350  0.20317  0.44838  Biso   1.000  Br
  Br11     1.0000 0.95317  0.14650  0.19838  Biso   1.000  Br
  Br12     1.0000 0.54683  0.85350  0.69838  Biso   1.000  Br
  Br13     1.0000 0.39650  0.29683  0.44838  Biso   1.000  Br
  Br14     1.0000 0.10350  0.70317  0.94838  Biso   1.000  Br
  Br15     1.0000 0.45317  0.64650  0.69838  Biso   1.000  Br
  Br16     1.0000 0.04683  0.35350  0.19838  Biso   1.000  Br
  C1       1.0000 0.24090  0.07450  0.23212  Biso   1.000  C
  C2       1.0000 0.25910  0.92550  0.73212  Biso   1.000  C
  C3       1.0000 0.67550  0.49090  0.48212  Biso   1.000  C
  C4       1.0000 0.82450  0.50910  0.98212  Biso   1.000  C
  C5       1.0000 0.74090  0.57450  0.73212  Biso   1.000  C
  C6       1.0000 0.75910  0.42550  0.23212  Biso   1.000  C
  C7       1.0000 0.17550  0.99090  0.98212  Biso   1.000  C
  C8       1.0000 0.32450  0.00910  0.48212  Biso   1.000  C
  C9       1.0000 0.75910  0.92550  0.76788  Biso   1.000  C
  C10      1.0000 0.74090  0.07450  0.26788  Biso   1.000  C
  C11      1.0000 0.82450  0.00910  0.01788  Biso   1.000  C
  C12      1.0000 0.67550  0.99090  0.51788  Biso   1.000  C
  C13      1.0000 0.25910  0.42550  0.26788  Biso   1.000  C
  C14      1.0000 0.24090  0.57450  0.76788  Biso   1.000  C
  C15      1.0000 0.32450  0.50910  0.51788  Biso   1.000  C
  C16      1.0000 0.17550  0.49090  0.01788  Biso   1.000  C
  C17      1.0000 0.29410  0.00620  0.21450  Biso   1.000  C
  C18      1.0000 0.20590  0.99380  0.71450  Biso   1.000  C
  C19      1.0000 0.74380  0.54410  0.46450  Biso   1.000  C
  C20      1.0000 0.75620  0.45590  0.96450  Biso   1.000  C
  C21      1.0000 0.79410  0.50620  0.71450  Biso   1.000  C
  C22      1.0000 0.70590  0.49380  0.21450  Biso   1.000  C
  C23      1.0000 0.24380  0.04410  0.96450  Biso   1.000  C
  C24      1.0000 0.25620  0.95590  0.46450  Biso   1.000  C
  C25      1.0000 0.70590  0.99380  0.78550  Biso   1.000  C
  C26      1.0000 0.79410  0.00620  0.28550  Biso   1.000  C
  C27      1.0000 0.75620  0.95590  0.03550  Biso   1.000  C
  C28      1.0000 0.74380  0.04410  0.53550  Biso   1.000  C
  C29      1.0000 0.20590  0.49380  0.28550  Biso   1.000  C
  C30      1.0000 0.29410  0.50620  0.78550  Biso   1.000  C
  C31      1.0000 0.25620  0.45590  0.53550  Biso   1.000  C
  C32      1.0000 0.24380  0.54410  0.03550  Biso   1.000  C
  H1       1.0000 0.31570  0.98620  0.25540  Biso   1.000  H
  H2       1.0000 0.18430  0.01380  0.75540  Biso   1.000  H
  H3       1.0000 0.76380  0.56570  0.50540  Biso   1.000  H
  H4       1.0000 0.73620  0.43430  0.00540  Biso   1.000  H
  H5       1.0000 0.81570  0.48620  0.75540  Biso   1.000  H
  H6       1.0000 0.68430  0.51380  0.25540  Biso   1.000  H
  H7       1.0000 0.26380  0.06570  0.00540  Biso   1.000  H
  H8       1.0000 0.23620  0.93430  0.50540  Biso   1.000  H
  H9       1.0000 0.68430  0.01380  0.74460  Biso   1.000  H
  H10      1.0000 0.81570  0.98620  0.24460  Biso   1.000  H
  H11      1.0000 0.73620  0.93430  0.99460  Biso   1.000  H
  H12      1.0000 0.76380  0.06570  0.49460  Biso   1.000  H
  H13      1.0000 0.18430  0.51380  0.24460  Biso   1.000  H
  H14      1.0000 0.31570  0.48620  0.74460  Biso   1.000  H
  H15      1.0000 0.23620  0.43430  0.49460  Biso   1.000  H
  H16      1.0000 0.26380  0.56570  0.99460  Biso   1.000  H
  H17      1.0000 0.26430  0.96650  0.19400  Biso   1.000  H
  H18      1.0000 0.23570  0.03350  0.69400  Biso   1.000  H
  H19      1.0000 0.78350  0.51430  0.44400  Biso   1.000  H
  H20      1.0000 0.71650  0.48570  0.94400  Biso   1.000  H
  H21      1.0000 0.76430  0.46650  0.69400  Biso   1.000  H
  H22      1.0000 0.73570  0.53350  0.19400  Biso   1.000  H
  H23      1.0000 0.28350  0.01430  0.94400  Biso   1.000  H
  H24      1.0000 0.21650  0.98570  0.44400  Biso   1.000  H
  H25      1.0000 0.73570  0.03350  0.80600  Biso   1.000  H
  H26      1.0000 0.76430  0.96650  0.30600  Biso   1.000  H
  H27      1.0000 0.71650  0.98570  0.05600  Biso   1.000  H
  H28      1.0000 0.78350  0.01430  0.55600  Biso   1.000  H
  H29      1.0000 0.23570  0.53350  0.30600  Biso   1.000  H
  H30      1.0000 0.26430  0.46650  0.80600  Biso   1.000  H
  H31      1.0000 0.21650  0.48570  0.55600  Biso   1.000  H
  H32      1.0000 0.28350  0.51430  0.05600  Biso   1.000  H
  C33      1.0000 0.35940  0.02920  0.16580  Biso   1.000  C
  C34      1.0000 0.14060  0.97080  0.66580  Biso   1.000  C
  C35      1.0000 0.72080  0.60940  0.41580  Biso   1.000  C
  C36      1.0000 0.77920  0.39060  0.91580  Biso   1.000  C
  C37      1.0000 0.85940  0.52920  0.66580  Biso   1.000  C
  C38      1.0000 0.64060  0.47080  0.16580  Biso   1.000  C
  C39      1.0000 0.22080  0.10940  0.91580  Biso   1.000  C
  C40      1.0000 0.27920  0.89060  0.41580  Biso   1.000  C
  C41      1.0000 0.64060  0.97080  0.83420  Biso   1.000  C
  C42      1.0000 0.85940  0.02920  0.33420  Biso   1.000  C
  C43      1.0000 0.77920  0.89060  0.08420  Biso   1.000  C
  C44      1.0000 0.72080  0.10940  0.58420  Biso   1.000  C
  C45      1.0000 0.14060  0.47080  0.33420  Biso   1.000  C
  C46      1.0000 0.35940  0.52920  0.83420  Biso   1.000  C
  C47      1.0000 0.27920  0.39060  0.58420  Biso   1.000  C
  C48      1.0000 0.22080  0.60940  0.08420  Biso   1.000  C
  H33      1.0000 0.38220  0.07620  0.18010  Biso   1.000  H
  H34      1.0000 0.11780  0.92380  0.68010  Biso   1.000  H
  H35      1.0000 0.67380  0.63220  0.43010  Biso   1.000  H
  H36      1.0000 0.82620  0.36780  0.93010  Biso   1.000  H
  H37      1.0000 0.88220  0.57620  0.68010  Biso   1.000  H
  H38      1.0000 0.61780  0.42380  0.18010  Biso   1.000  H
  H39      1.0000 0.17380  0.13220  0.93010  Biso   1.000  H
  H40      1.0000 0.32620  0.86780  0.43010  Biso   1.000  H
  H41      1.0000 0.61780  0.92380  0.81990  Biso   1.000  H
  H42      1.0000 0.88220  0.07620  0.31990  Biso   1.000  H
  H43      1.0000 0.82620  0.86780  0.06990  Biso   1.000  H
  H44      1.0000 0.67380  0.13220  0.56990  Biso   1.000  H
  H45      1.0000 0.11780  0.42380  0.31990  Biso   1.000  H
  H46      1.0000 0.38220  0.57620  0.81990  Biso   1.000  H
  H47      1.0000 0.32620  0.36780  0.56990  Biso   1.000  H
  H48      1.0000 0.17380  0.63220  0.06990  Biso   1.000  H
  H49      1.0000 0.34010  0.03580  0.12080  Biso   1.000  H
  H50      1.0000 0.15990  0.96420  0.62080  Biso   1.000  H
  H51      1.0000 0.71420  0.59010  0.37080  Biso   1.000  H
  H52      1.0000 0.78580  0.40990  0.87080  Biso   1.000  H
  H53      1.0000 0.84010  0.53580  0.62080  Biso   1.000  H
  H54      1.0000 0.65990  0.46420  0.12080  Biso   1.000  H
  H55      1.0000 0.21420  0.09010  0.87080  Biso   1.000  H
  H56      1.0000 0.28580  0.90990  0.37080  Biso   1.000  H
  H57      1.0000 0.65990  0.96420  0.87920  Biso   1.000  H
  H58      1.0000 0.84010  0.03580  0.37920  Biso   1.000  H
  H59      1.0000 0.78580  0.90990  0.12920  Biso   1.000  H
  H60      1.0000 0.71420  0.09010  0.62920  Biso   1.000  H
  H61      1.0000 0.15990  0.46420  0.37920  Biso   1.000  H
  H62      1.0000 0.34010  0.53580  0.87920  Biso   1.000  H
  H63      1.0000 0.28580  0.40990  0.62920  Biso   1.000  H
  H64      1.0000 0.21420  0.59010  0.12920  Biso   1.000  H
  C49      1.0000 0.41980  0.96250  0.16770  Biso   1.000  C
  C50      1.0000 0.08020  0.03750  0.66770  Biso   1.000  C
  C51      1.0000 0.78750  0.66980  0.41770  Biso   1.000  C
  C52      1.0000 0.71250  0.33020  0.91770  Biso   1.000  C
  C53      1.0000 0.91980  0.46250  0.66770  Biso   1.000  C
  C54      1.0000 0.58020  0.53750  0.16770  Biso   1.000  C
  C55      1.0000 0.28750  0.16980  0.91770  Biso   1.000  C
  C56      1.0000 0.21250  0.83020  0.41770  Biso   1.000  C
  C57      1.0000 0.58020  0.03750  0.83230  Biso   1.000  C
  C58      1.0000 0.91980  0.96250  0.33230  Biso   1.000  C
  C59      1.0000 0.71250  0.83020  0.08230  Biso   1.000  C
  C60      1.0000 0.78750  0.16980  0.58230  Biso   1.000  C
  C61      1.0000 0.08020  0.53750  0.33230  Biso   1.000  C
  C62      1.0000 0.41980  0.46250  0.83230  Biso   1.000  C
  C63      1.0000 0.21250  0.33020  0.58230  Biso   1.000  C
  C64      1.0000 0.28750  0.66980  0.08230  Biso   1.000  C
  H65      1.0000 0.38700  0.92610  0.18920  Biso   1.000  H
  H66      1.0000 0.11300  0.07390  0.68920  Biso   1.000  H
  H67      1.0000 0.82390  0.63700  0.43920  Biso   1.000  H
  H68      1.0000 0.67610  0.36300  0.93920  Biso   1.000  H
  H69      1.0000 0.88700  0.42610  0.68920  Biso   1.000  H
  H70      1.0000 0.61300  0.57390  0.18920  Biso   1.000  H
  H71      1.0000 0.32390  0.13700  0.93920  Biso   1.000  H
  H72      1.0000 0.17610  0.86300  0.43920  Biso   1.000  H
  H73      1.0000 0.61300  0.07390  0.81080  Biso   1.000  H
  H74      1.0000 0.88700  0.92610  0.31080  Biso   1.000  H
  H75      1.0000 0.67610  0.86300  0.06080  Biso   1.000  H
  H76      1.0000 0.82390  0.13700  0.56080  Biso   1.000  H
  H77      1.0000 0.11300  0.57390  0.31080  Biso   1.000  H
  H78      1.0000 0.38700  0.42610  0.81080  Biso   1.000  H
  H79      1.0000 0.17610  0.36300  0.56080  Biso   1.000  H
  H80      1.0000 0.32390  0.63700  0.06080  Biso   1.000  H
  H81      1.0000 0.41590  0.94970  0.12070  Biso   1.000  H
  H82      1.0000 0.08410  0.05030  0.62070  Biso   1.000  H
  H83      1.0000 0.80030  0.66590  0.37070  Biso   1.000  H
  H84      1.0000 0.69970  0.33410  0.87070  Biso   1.000  H
  H85      1.0000 0.91590  0.44970  0.62070  Biso   1.000  H
  H86      1.0000 0.58410  0.55030  0.12070  Biso   1.000  H
  H87      1.0000 0.30030  0.16590  0.87070  Biso   1.000  H
  H88      1.0000 0.19970  0.83410  0.37070  Biso   1.000  H
  H89      1.0000 0.58410  0.05030  0.87930  Biso   1.000  H
  H90      1.0000 0.91590  0.94970  0.37930  Biso   1.000  H
  H91      1.0000 0.69970  0.83410  0.12930  Biso   1.000  H
  H92      1.0000 0.80030  0.16590  0.62930  Biso   1.000  H
  H93      1.0000 0.08410  0.55030  0.37930  Biso   1.000  H
  H94      1.0000 0.41590  0.44970  0.87930  Biso   1.000  H
  H95      1.0000 0.19970  0.33410  0.62930  Biso   1.000  H
  H96      1.0000 0.30030  0.66590  0.12930  Biso   1.000  H
  C65      1.0000 0.49410  0.91870  0.18040  Biso   1.000  C
  C66      1.0000 0.00590  0.08130  0.68040  Biso   1.000  C
  C67      1.0000 0.83130  0.74410  0.43040  Biso   1.000  C
  C68      1.0000 0.66870  0.25590  0.93040  Biso   1.000  C
  C69      1.0000 0.99410  0.41870  0.68040  Biso   1.000  C
  C70      1.0000 0.50590  0.58130  0.18040  Biso   1.000  C
  C71      1.0000 0.33130  0.24410  0.93040  Biso   1.000  C
  C72      1.0000 0.16870  0.75590  0.43040  Biso   1.000  C
  C73      1.0000 0.50590  0.08130  0.81960  Biso   1.000  C
  C74      1.0000 0.99410  0.91870  0.31960  Biso   1.000  C
  C75      1.0000 0.66870  0.75590  0.06960  Biso   1.000  C
  C76      1.0000 0.83130  0.24410  0.56960  Biso   1.000  C
  C77      1.0000 0.00590  0.58130  0.31960  Biso   1.000  C
  C78      1.0000 0.49410  0.41870  0.81960  Biso   1.000  C
  C79      1.0000 0.16870  0.25590  0.56960  Biso   1.000  C
  C80      1.0000 0.33130  0.74410  0.06960  Biso   1.000  C
  H97      1.0000 0.49360  0.87480  0.15140  Biso   1.000  H
  H98      1.0000 0.00640  0.12520  0.65140  Biso   1.000  H
  H99      1.0000 0.87520  0.74360  0.40140  Biso   1.000  H
  H100     1.0000 0.62480  0.25640  0.90140  Biso   1.000  H
  H101     1.0000 0.99360  0.37480  0.65140  Biso   1.000  H
  H102     1.0000 0.50640  0.62520  0.15140  Biso   1.000  H
  H103     1.0000 0.37520  0.24360  0.90140  Biso   1.000  H
  H104     1.0000 0.12480  0.75640  0.40140  Biso   1.000  H
  H105     1.0000 0.50640  0.12520  0.84860  Biso   1.000  H
  H106     1.0000 0.99360  0.87480  0.34860  Biso   1.000  H
  H107     1.0000 0.62480  0.75640  0.09860  Biso   1.000  H
  H108     1.0000 0.87520  0.24360  0.59860  Biso   1.000  H
  H109     1.0000 0.00640  0.62520  0.34860  Biso   1.000  H
  H110     1.0000 0.49360  0.37480  0.84860  Biso   1.000  H
  H111     1.0000 0.12480  0.25640  0.59860  Biso   1.000  H
  H112     1.0000 0.37520  0.74360  0.09860  Biso   1.000  H
  H113     1.0000 0.49230  0.90010  0.22600  Biso   1.000  H
  H114     1.0000 0.00770  0.09990  0.72600  Biso   1.000  H
  H115     1.0000 0.84990  0.74230  0.47600  Biso   1.000  H
  H116     1.0000 0.65010  0.25770  0.97600  Biso   1.000  H
  H117     1.0000 0.99230  0.40010  0.72600  Biso   1.000  H
  H118     1.0000 0.50770  0.59990  0.22600  Biso   1.000  H
  H119     1.0000 0.34990  0.24230  0.97600  Biso   1.000  H
  H120     1.0000 0.15010  0.75770  0.47600  Biso   1.000  H
  H121     1.0000 0.50770  0.09990  0.77400  Biso   1.000  H
  H122     1.0000 0.99230  0.90010  0.27400  Biso   1.000  H
  H123     1.0000 0.65010  0.75770  0.02400  Biso   1.000  H
  H124     1.0000 0.84990  0.24230  0.52400  Biso   1.000  H
  H125     1.0000 0.00770  0.59990  0.27400  Biso   1.000  H
  H126     1.0000 0.49230  0.40010  0.77400  Biso   1.000  H
  H127     1.0000 0.15010  0.25770  0.52400  Biso   1.000  H
  H128     1.0000 0.34990  0.74230  0.02400  Biso   1.000  H
  C81      1.0000 0.57300  0.95870  0.17090  Biso   1.000  C
  C82      1.0000 0.92700  0.04130  0.67090  Biso   1.000  C
  C83      1.0000 0.79130  0.82300  0.42090  Biso   1.000  C
  C84      1.0000 0.70870  0.17700  0.92090  Biso   1.000  C
  C85      1.0000 0.07300  0.45870  0.67090  Biso   1.000  C
  C86      1.0000 0.42700  0.54130  0.17090  Biso   1.000  C
  C87      1.0000 0.29130  0.32300  0.92090  Biso   1.000  C
  C88      1.0000 0.20870  0.67700  0.42090  Biso   1.000  C
  C89      1.0000 0.42700  0.04130  0.82910  Biso   1.000  C
  C90      1.0000 0.07300  0.95870  0.32910  Biso   1.000  C
  C91      1.0000 0.70870  0.67700  0.07910  Biso   1.000  C
  C92      1.0000 0.79130  0.32300  0.57910  Biso   1.000  C
  C93      1.0000 0.92700  0.54130  0.32910  Biso   1.000  C
  C94      1.0000 0.57300  0.45870  0.82910  Biso   1.000  C
  C95      1.0000 0.20870  0.17700  0.57910  Biso   1.000  C
  C96      1.0000 0.29130  0.82300  0.07910  Biso   1.000  C
  H129     1.0000 0.60650  0.92560  0.14700  Biso   1.000  H
  H130     1.0000 0.89350  0.07440  0.64700  Biso   1.000  H
  H131     1.0000 0.82440  0.85650  0.39700  Biso   1.000  H
  H132     1.0000 0.67560  0.14350  0.89700  Biso   1.000  H
  H133     1.0000 0.10650  0.42560  0.64700  Biso   1.000  H
  H134     1.0000 0.39350  0.57440  0.14700  Biso   1.000  H
  H135     1.0000 0.32440  0.35650  0.89700  Biso   1.000  H
  H136     1.0000 0.17560  0.64350  0.39700  Biso   1.000  H
  H137     1.0000 0.39350  0.07440  0.85300  Biso   1.000  H
  H138     1.0000 0.10650  0.92560  0.35300  Biso   1.000  H
  H139     1.0000 0.67560  0.64350  0.10300  Biso   1.000  H
  H140     1.0000 0.82440  0.35650  0.60300  Biso   1.000  H
  H141     1.0000 0.89350  0.57440  0.35300  Biso   1.000  H
  H142     1.0000 0.60650  0.42560  0.85300  Biso   1.000  H
  H143     1.0000 0.17560  0.14350  0.60300  Biso   1.000  H
  H144     1.0000 0.32440  0.85650  0.10300  Biso   1.000  H
  H145     1.0000 0.59420  0.97020  0.21380  Biso   1.000  H
  H146     1.0000 0.90580  0.02980  0.71380  Biso   1.000  H
  H147     1.0000 0.77980  0.84420  0.46380  Biso   1.000  H
  H148     1.0000 0.72020  0.15580  0.96380  Biso   1.000  H
  H149     1.0000 0.09420  0.47020  0.71380  Biso   1.000  H
  H150     1.0000 0.40580  0.52980  0.21380  Biso   1.000  H
  H151     1.0000 0.27980  0.34420  0.96380  Biso   1.000  H
  H152     1.0000 0.22020  0.65580  0.46380  Biso   1.000  H
  H153     1.0000 0.40580  0.02980  0.78620  Biso   1.000  H
  H154     1.0000 0.09420  0.97020  0.28620  Biso   1.000  H
  H155     1.0000 0.72020  0.65580  0.03620  Biso   1.000  H
  H156     1.0000 0.77980  0.34420  0.53620  Biso   1.000  H
  H157     1.0000 0.90580  0.52980  0.28620  Biso   1.000  H
  H158     1.0000 0.59420  0.47020  0.78620  Biso   1.000  H
  H159     1.0000 0.22020  0.15580  0.53620  Biso   1.000  H
  H160     1.0000 0.27980  0.84420  0.03620  Biso   1.000  H
  H161     1.0000 0.56630  0.00440  0.14590  Biso   1.000  H
  H162     1.0000 0.93370  0.99560  0.64590  Biso   1.000  H
  H163     1.0000 0.74560  0.81630  0.39590  Biso   1.000  H
  H164     1.0000 0.75440  0.18370  0.89590  Biso   1.000  H
  H165     1.0000 0.06630  0.50440  0.64590  Biso   1.000  H
  H166     1.0000 0.43370  0.49560  0.14590  Biso   1.000  H
  H167     1.0000 0.24560  0.31630  0.89590  Biso   1.000  H
  H168     1.0000 0.25440  0.68370  0.39590  Biso   1.000  H
  H169     1.0000 0.43370  0.99560  0.85410  Biso   1.000  H
  H170     1.0000 0.06630  0.00440  0.35410  Biso   1.000  H
  H171     1.0000 0.75440  0.68370  0.10410  Biso   1.000  H
  H172     1.0000 0.74560  0.31630  0.60410  Biso   1.000  H
  H173     1.0000 0.93370  0.49560  0.35410  Biso   1.000  H
  H174     1.0000 0.56630  0.50440  0.85410  Biso   1.000  H
  H175     1.0000 0.25440  0.18370  0.60410  Biso   1.000  H
  H176     1.0000 0.24560  0.81630  0.10410  Biso   1.000  H
  C97      1.0000 0.19523  0.16968  0.27684  Biso   1.000  C
  C98      1.0000 0.30477  0.83032  0.77684  Biso   1.000  C
  C99      1.0000 0.58032  0.44523  0.52684  Biso   1.000  C
  C100     1.0000 0.91968  0.55477  0.02684  Biso   1.000  C
  C101     1.0000 0.69523  0.66968  0.77684  Biso   1.000  C
  C102     1.0000 0.80477  0.33032  0.27684  Biso   1.000  C
  C103     1.0000 0.08032  0.94523  0.02684  Biso   1.000  C
  C104     1.0000 0.41968  0.05477  0.52684  Biso   1.000  C
  C105     1.0000 0.80477  0.83032  0.72316  Biso   1.000  C
  C106     1.0000 0.69523  0.16968  0.22316  Biso   1.000  C
  C107     1.0000 0.91968  0.05477  0.97316  Biso   1.000  C
  C108     1.0000 0.58032  0.94523  0.47316  Biso   1.000  C
  C109     1.0000 0.30477  0.33032  0.22316  Biso   1.000  C
  C110     1.0000 0.19523  0.66968  0.72316  Biso   1.000  C
  C111     1.0000 0.41968  0.55477  0.47316  Biso   1.000  C
  C112     1.0000 0.08032  0.44523  0.97316  Biso   1.000  C
  C113     1.0000 0.18040  0.23140  0.32612  Biso   1.000  C
  C114     1.0000 0.31960  0.76860  0.82612  Biso   1.000  C
  C115     1.0000 0.51860  0.43040  0.57612  Biso   1.000  C
  C116     1.0000 0.98140  0.56960  0.07612  Biso   1.000  C
  C117     1.0000 0.68040  0.73140  0.82612  Biso   1.000  C
  C118     1.0000 0.81960  0.26860  0.32612  Biso   1.000  C
  C119     1.0000 0.01860  0.93040  0.07612  Biso   1.000  C
  C120     1.0000 0.48140  0.06960  0.57612  Biso   1.000  C
  C121     1.0000 0.81960  0.76860  0.67388  Biso   1.000  C
  C122     1.0000 0.68040  0.23140  0.17388  Biso   1.000  C
  C123     1.0000 0.98140  0.06960  0.92388  Biso   1.000  C
  C124     1.0000 0.51860  0.93040  0.42388  Biso   1.000  C
  C125     1.0000 0.31960  0.26860  0.17388  Biso   1.000  C
  C126     1.0000 0.18040  0.73140  0.67388  Biso   1.000  C
  C127     1.0000 0.48140  0.56960  0.42388  Biso   1.000  C
  C128     1.0000 0.01860  0.43040  0.92388  Biso   1.000  C
  H177     1.0000 0.22800  0.25530  0.33710  Biso   1.000  H
  H178     1.0000 0.27200  0.74470  0.83710  Biso   1.000  H
  H179     1.0000 0.49470  0.47800  0.58710  Biso   1.000  H
  H180     1.0000 0.00530  0.52200  0.08710  Biso   1.000  H
  H181     1.0000 0.72800  0.75530  0.83710  Biso   1.000  H
  H182     1.0000 0.77200  0.24470  0.33710  Biso   1.000  H
  H183     1.0000 0.99470  0.97800  0.08710  Biso   1.000  H
  H184     1.0000 0.50530  0.02200  0.58710  Biso   1.000  H
  H185     1.0000 0.77200  0.74470  0.66290  Biso   1.000  H
  H186     1.0000 0.72800  0.25530  0.16290  Biso   1.000  H
  H187     1.0000 0.00530  0.02200  0.91290  Biso   1.000  H
  H188     1.0000 0.49470  0.97800  0.41290  Biso   1.000  H
  H189     1.0000 0.27200  0.24470  0.16290  Biso   1.000  H
  H190     1.0000 0.22800  0.75530  0.66290  Biso   1.000  H
  H191     1.0000 0.50530  0.52200  0.41290  Biso   1.000  H
  H192     1.0000 0.99470  0.47800  0.91290  Biso   1.000  H
  H193     1.0000 0.14890  0.26910  0.30480  Biso   1.000  H
  H194     1.0000 0.35110  0.73090  0.80480  Biso   1.000  H
  H195     1.0000 0.48090  0.39890  0.55480  Biso   1.000  H
  H196     1.0000 0.01910  0.60110  0.05480  Biso   1.000  H
  H197     1.0000 0.64890  0.76910  0.80480  Biso   1.000  H
  H198     1.0000 0.85110  0.23090  0.30480  Biso   1.000  H
  H199     1.0000 0.98090  0.89890  0.05480  Biso   1.000  H
  H200     1.0000 0.51910  0.10110  0.55480  Biso   1.000  H
  H201     1.0000 0.85110  0.73090  0.69520  Biso   1.000  H
  H202     1.0000 0.64890  0.26910  0.19520  Biso   1.000  H
  H203     1.0000 0.01910  0.10110  0.94520  Biso   1.000  H
  H204     1.0000 0.48090  0.89890  0.44520  Biso   1.000  H
  H205     1.0000 0.35110  0.23090  0.19520  Biso   1.000  H
  H206     1.0000 0.14890  0.76910  0.69520  Biso   1.000  H
  H207     1.0000 0.51910  0.60110  0.44520  Biso   1.000  H
  H208     1.0000 0.98090  0.39890  0.94520  Biso   1.000  H
  C129     1.0000 0.14360  0.20770  0.38890  Biso   1.000  C
  C130     1.0000 0.35640  0.79230  0.88890  Biso   1.000  C
  C131     1.0000 0.54230  0.39360  0.63890  Biso   1.000  C
  C132     1.0000 0.95770  0.60640  0.13890  Biso   1.000  C
  C133     1.0000 0.64360  0.70770  0.88890  Biso   1.000  C
  C134     1.0000 0.85640  0.29230  0.38890  Biso   1.000  C
  C135     1.0000 0.04230  0.89360  0.13890  Biso   1.000  C
  C136     1.0000 0.45770  0.10640  0.63890  Biso   1.000  C
  C137     1.0000 0.85640  0.79230  0.61110  Biso   1.000  C
  C138     1.0000 0.64360  0.20770  0.11110  Biso   1.000  C
  C139     1.0000 0.95770  0.10640  0.86110  Biso   1.000  C
  C140     1.0000 0.54230  0.89360  0.36110  Biso   1.000  C
  C141     1.0000 0.35640  0.29230  0.11110  Biso   1.000  C
  C142     1.0000 0.14360  0.70770  0.61110  Biso   1.000  C
  C143     1.0000 0.45770  0.60640  0.36110  Biso   1.000  C
  C144     1.0000 0.04230  0.39360  0.86110  Biso   1.000  C
  H209     1.0000 0.18270  0.18600  0.41700  Biso   1.000  H
  H210     1.0000 0.31730  0.81400  0.91700  Biso   1.000  H
  H211     1.0000 0.56400  0.43270  0.66700  Biso   1.000  H
  H212     1.0000 0.93600  0.56730  0.16700  Biso   1.000  H
  H213     1.0000 0.68270  0.68600  0.91700  Biso   1.000  H
  H214     1.0000 0.81730  0.31400  0.41700  Biso   1.000  H
  H215     1.0000 0.06400  0.93270  0.16700  Biso   1.000  H
  H216     1.0000 0.43600  0.06730  0.66700  Biso   1.000  H
  H217     1.0000 0.81730  0.81400  0.58300  Biso   1.000  H
  H218     1.0000 0.68270  0.18600  0.08300  Biso   1.000  H
  H219     1.0000 0.93600  0.06730  0.83300  Biso   1.000  H
  H220     1.0000 0.56400  0.93270  0.33300  Biso   1.000  H
  H221     1.0000 0.31730  0.31400  0.08300  Biso   1.000  H
  H222     1.0000 0.18270  0.68600  0.58300  Biso   1.000  H
  H223     1.0000 0.43600  0.56730  0.33300  Biso   1.000  H
  H224     1.0000 0.06400  0.43270  0.83300  Biso   1.000  H
  H225     1.0000 0.12650  0.25320  0.41110  Biso   1.000  H
  H226     1.0000 0.37350  0.74680  0.91110  Biso   1.000  H
  H227     1.0000 0.49680  0.37650  0.66110  Biso   1.000  H
  H228     1.0000 0.00320  0.62350  0.16110  Biso   1.000  H
  H229     1.0000 0.62650  0.75320  0.91110  Biso   1.000  H
  H230     1.0000 0.87350  0.24680  0.41110  Biso   1.000  H
  H231     1.0000 0.99680  0.87650  0.16110  Biso   1.000  H
  H232     1.0000 0.50320  0.12350  0.66110  Biso   1.000  H
  H233     1.0000 0.87350  0.74680  0.58890  Biso   1.000  H
  H234     1.0000 0.62650  0.25320  0.08890  Biso   1.000  H
  H235     1.0000 0.00320  0.12350  0.83890  Biso   1.000  H
  H236     1.0000 0.49680  0.87650  0.33890  Biso   1.000  H
  H237     1.0000 0.37350  0.24680  0.08890  Biso   1.000  H
  H238     1.0000 0.12650  0.75320  0.58890  Biso   1.000  H
  H239     1.0000 0.50320  0.62350  0.33890  Biso   1.000  H
  H240     1.0000 0.99680  0.37650  0.83890  Biso   1.000  H
  C145     1.0000 0.08340  0.15740  0.38950  Biso   1.000  C
  C146     1.0000 0.41660  0.84260  0.88950  Biso   1.000  C
  C147     1.0000 0.59260  0.33340  0.63950  Biso   1.000  C
  C148     1.0000 0.90740  0.66660  0.13950  Biso   1.000  C
  C149     1.0000 0.58340  0.65740  0.88950  Biso   1.000  C
  C150     1.0000 0.91660  0.34260  0.38950  Biso   1.000  C
  C151     1.0000 0.09260  0.83340  0.13950  Biso   1.000  C
  C152     1.0000 0.40740  0.16660  0.63950  Biso   1.000  C
  C153     1.0000 0.91660  0.84260  0.61050  Biso   1.000  C
  C154     1.0000 0.58340  0.15740  0.11050  Biso   1.000  C
  C155     1.0000 0.90740  0.16660  0.86050  Biso   1.000  C
  C156     1.0000 0.59260  0.83340  0.36050  Biso   1.000  C
  C157     1.0000 0.41660  0.34260  0.11050  Biso   1.000  C
  C158     1.0000 0.08340  0.65740  0.61050  Biso   1.000  C
  C159     1.0000 0.40740  0.66660  0.36050  Biso   1.000  C
  C160     1.0000 0.09260  0.33340  0.86050  Biso   1.000  C
  H241     1.0000 0.10220  0.11170  0.36880  Biso   1.000  H
  H242     1.0000 0.39780  0.88830  0.86880  Biso   1.000  H
  H243     1.0000 0.63830  0.35220  0.61880  Biso   1.000  H
  H244     1.0000 0.86170  0.64780  0.11880  Biso   1.000  H
  H245     1.0000 0.60220  0.61170  0.86880  Biso   1.000  H
  H246     1.0000 0.89780  0.38830  0.36880  Biso   1.000  H
  H247     1.0000 0.13830  0.85220  0.11880  Biso   1.000  H
  H248     1.0000 0.36170  0.14780  0.61880  Biso   1.000  H
  H249     1.0000 0.89780  0.88830  0.63120  Biso   1.000  H
  H250     1.0000 0.60220  0.11170  0.13120  Biso   1.000  H
  H251     1.0000 0.86170  0.14780  0.88120  Biso   1.000  H
  H252     1.0000 0.63830  0.85220  0.38120  Biso   1.000  H
  H253     1.0000 0.39780  0.38830  0.13120  Biso   1.000  H
  H254     1.0000 0.10220  0.61170  0.63120  Biso   1.000  H
  H255     1.0000 0.36170  0.64780  0.38120  Biso   1.000  H
  H256     1.0000 0.13830  0.35220  0.88120  Biso   1.000  H
  H257     1.0000 0.04660  0.17820  0.35870  Biso   1.000  H
  H258     1.0000 0.45340  0.82180  0.85870  Biso   1.000  H
  H259     1.0000 0.57180  0.29660  0.60870  Biso   1.000  H
  H260     1.0000 0.92820  0.70340  0.10870  Biso   1.000  H
  H261     1.0000 0.54660  0.67820  0.85870  Biso   1.000  H
  H262     1.0000 0.95340  0.32180  0.35870  Biso   1.000  H
  H263     1.0000 0.07180  0.79660  0.10870  Biso   1.000  H
  H264     1.0000 0.42820  0.20340  0.60870  Biso   1.000  H
  H265     1.0000 0.95340  0.82180  0.64130  Biso   1.000  H
  H266     1.0000 0.54660  0.17820  0.14130  Biso   1.000  H
  H267     1.0000 0.92820  0.20340  0.89130  Biso   1.000  H
  H268     1.0000 0.57180  0.79660  0.39130  Biso   1.000  H
  H269     1.0000 0.45340  0.32180  0.14130  Biso   1.000  H
  H270     1.0000 0.04660  0.67820  0.64130  Biso   1.000  H
  H271     1.0000 0.42820  0.70340  0.39130  Biso   1.000  H
  H272     1.0000 0.07180  0.29660  0.89130  Biso   1.000  H
  C161     1.0000 0.03650  0.13040  0.45230  Biso   1.000  C
  C162     1.0000 0.46350  0.86960  0.95230  Biso   1.000  C
  C163     1.0000 0.61960  0.28650  0.70230  Biso   1.000  C
  C164     1.0000 0.88040  0.71350  0.20230  Biso   1.000  C
  C165     1.0000 0.53650  0.63040  0.95230  Biso   1.000  C
  C166     1.0000 0.96350  0.36960  0.45230  Biso   1.000  C
  C167     1.0000 0.11960  0.78650  0.20230  Biso   1.000  C
  C168     1.0000 0.38040  0.21350  0.70230  Biso   1.000  C
  C169     1.0000 0.96350  0.86960  0.54770  Biso   1.000  C
  C170     1.0000 0.53650  0.13040  0.04770  Biso   1.000  C
  C171     1.0000 0.88040  0.21350  0.79770  Biso   1.000  C
  C172     1.0000 0.61960  0.78650  0.29770  Biso   1.000  C
  C173     1.0000 0.46350  0.36960  0.04770  Biso   1.000  C
  C174     1.0000 0.03650  0.63040  0.54770  Biso   1.000  C
  C175     1.0000 0.38040  0.71350  0.29770  Biso   1.000  C
  C176     1.0000 0.11960  0.28650  0.79770  Biso   1.000  C
  H273     1.0000 0.07550  0.11330  0.48270  Biso   1.000  H
  H274     1.0000 0.42450  0.88670  0.98270  Biso   1.000  H
  H275     1.0000 0.63670  0.32550  0.73270  Biso   1.000  H
  H276     1.0000 0.86330  0.67450  0.23270  Biso   1.000  H
  H277     1.0000 0.57550  0.61330  0.98270  Biso   1.000  H
  H278     1.0000 0.92450  0.38670  0.48270  Biso   1.000  H
  H279     1.0000 0.13670  0.82550  0.23270  Biso   1.000  H
  H280     1.0000 0.36330  0.17450  0.73270  Biso   1.000  H
  H281     1.0000 0.92450  0.88670  0.51730  Biso   1.000  H
  H282     1.0000 0.57550  0.11330  0.01730  Biso   1.000  H
  H283     1.0000 0.86330  0.17450  0.76730  Biso   1.000  H
  H284     1.0000 0.63670  0.82550  0.26730  Biso   1.000  H
  H285     1.0000 0.42450  0.38670  0.01730  Biso   1.000  H
  H286     1.0000 0.07550  0.61330  0.51730  Biso   1.000  H
  H287     1.0000 0.36330  0.67450  0.26730  Biso   1.000  H
  H288     1.0000 0.13670  0.32550  0.76730  Biso   1.000  H
  H289     1.0000 0.01860  0.17760  0.47110  Biso   1.000  H
  H290     1.0000 0.48140  0.82240  0.97110  Biso   1.000  H
  H291     1.0000 0.57240  0.26860  0.72110  Biso   1.000  H
  H292     1.0000 0.92760  0.73140  0.22110  Biso   1.000  H
  H293     1.0000 0.51860  0.67760  0.97110  Biso   1.000  H
  H294     1.0000 0.98140  0.32240  0.47110  Biso   1.000  H
  H295     1.0000 0.07240  0.76860  0.22110  Biso   1.000  H
  H296     1.0000 0.42760  0.23140  0.72110  Biso   1.000  H
  H297     1.0000 0.98140  0.82240  0.52890  Biso   1.000  H
  H298     1.0000 0.51860  0.17760  0.02890  Biso   1.000  H
  H299     1.0000 0.92760  0.23140  0.77890  Biso   1.000  H
  H300     1.0000 0.57240  0.76860  0.27890  Biso   1.000  H
  H301     1.0000 0.48140  0.32240  0.02890  Biso   1.000  H
  H302     1.0000 0.01860  0.67760  0.52890  Biso   1.000  H
  H303     1.0000 0.42760  0.73140  0.27890  Biso   1.000  H
  H304     1.0000 0.07240  0.26860  0.77890  Biso   1.000  H
  C177     1.0000 0.96950  0.07460  0.46760  Biso   1.000  C
  C178     1.0000 0.53050  0.92540  0.96760  Biso   1.000  C
  C179     1.0000 0.67540  0.21950  0.71760  Biso   1.000  C
  C180     1.0000 0.82460  0.78050  0.21760  Biso   1.000  C
  C181     1.0000 0.46950  0.57460  0.96760  Biso   1.000  C
  C182     1.0000 0.03050  0.42540  0.46760  Biso   1.000  C
  C183     1.0000 0.17540  0.71950  0.21760  Biso   1.000  C
  C184     1.0000 0.32460  0.28050  0.71760  Biso   1.000  C
  C185     1.0000 0.03050  0.92540  0.53240  Biso   1.000  C
  C186     1.0000 0.46950  0.07460  0.03240  Biso   1.000  C
  C187     1.0000 0.82460  0.28050  0.78240  Biso   1.000  C
  C188     1.0000 0.67540  0.71950  0.28240  Biso   1.000  C
  C189     1.0000 0.53050  0.42540  0.03240  Biso   1.000  C
  C190     1.0000 0.96950  0.57460  0.53240  Biso   1.000  C
  C191     1.0000 0.32460  0.78050  0.28240  Biso   1.000  C
  C192     1.0000 0.17540  0.21950  0.78240  Biso   1.000  C
  H305     1.0000 0.94330  0.06300  0.42690  Biso   1.000  H
  H306     1.0000 0.55670  0.93700  0.92690  Biso   1.000  H
  H307     1.0000 0.68700  0.19330  0.67690  Biso   1.000  H
  H308     1.0000 0.81300  0.80670  0.17690  Biso   1.000  H
  H309     1.0000 0.44330  0.56300  0.92690  Biso   1.000  H
  H310     1.0000 0.05670  0.43700  0.42690  Biso   1.000  H
  H311     1.0000 0.18700  0.69330  0.17690  Biso   1.000  H
  H312     1.0000 0.31300  0.30670  0.67690  Biso   1.000  H
  H313     1.0000 0.05670  0.93700  0.57310  Biso   1.000  H
  H314     1.0000 0.44330  0.06300  0.07310  Biso   1.000  H
  H315     1.0000 0.81300  0.30670  0.82310  Biso   1.000  H
  H316     1.0000 0.68700  0.69330  0.32310  Biso   1.000  H
  H317     1.0000 0.55670  0.43700  0.07310  Biso   1.000  H
  H318     1.0000 0.94330  0.56300  0.57310  Biso   1.000  H
  H319     1.0000 0.31300  0.80670  0.32310  Biso   1.000  H
  H320     1.0000 0.18700  0.19330  0.82310  Biso   1.000  H
  H321     1.0000 0.93530  0.09780  0.49860  Biso   1.000  H
  H322     1.0000 0.56470  0.90220  0.99860  Biso   1.000  H
  H323     1.0000 0.65220  0.18530  0.74860  Biso   1.000  H
  H324     1.0000 0.84780  0.81470  0.24860  Biso   1.000  H
  H325     1.0000 0.43530  0.59780  0.99860  Biso   1.000  H
  H326     1.0000 0.06470  0.40220  0.49860  Biso   1.000  H
  H327     1.0000 0.15220  0.68530  0.24860  Biso   1.000  H
  H328     1.0000 0.34780  0.31470  0.74860  Biso   1.000  H
  H329     1.0000 0.06470  0.90220  0.50140  Biso   1.000  H
  H330     1.0000 0.43530  0.09780  0.00140  Biso   1.000  H
  H331     1.0000 0.84780  0.31470  0.75140  Biso   1.000  H
  H332     1.0000 0.65220  0.68530  0.25140  Biso   1.000  H
  H333     1.0000 0.56470  0.40220  0.00140  Biso   1.000  H
  H334     1.0000 0.93530  0.59780  0.50140  Biso   1.000  H
  H335     1.0000 0.34780  0.81470  0.25140  Biso   1.000  H
  H336     1.0000 0.15220  0.18530  0.75140  Biso   1.000  H
  H337     1.0000 0.98920  0.02890  0.48670  Biso   1.000  H
  H338     1.0000 0.51080  0.97110  0.98670  Biso   1.000  H
  H339     1.0000 0.72110  0.23920  0.73670  Biso   1.000  H
  H340     1.0000 0.77890  0.76080  0.23670  Biso   1.000  H
  H341     1.0000 0.48920  0.52890  0.98670  Biso   1.000  H
  H342     1.0000 0.01080  0.47110  0.48670  Biso   1.000  H
  H343     1.0000 0.22110  0.73920  0.23670  Biso   1.000  H
  H344     1.0000 0.27890  0.26080  0.73670  Biso   1.000  H
  H345     1.0000 0.01080  0.97110  0.51330  Biso   1.000  H
  H346     1.0000 0.48920  0.02890  0.01330  Biso   1.000  H
  H347     1.0000 0.77890  0.26080  0.76330  Biso   1.000  H
  H348     1.0000 0.72110  0.73920  0.26330  Biso   1.000  H
  H349     1.0000 0.51080  0.47110  0.01330  Biso   1.000  H
  H350     1.0000 0.98920  0.52890  0.51330  Biso   1.000  H
  H351     1.0000 0.27890  0.76080  0.26330  Biso   1.000  H
  H352     1.0000 0.22110  0.23920  0.76330  Biso   1.000  H
  N1       1.0000 0.15909  0.16353  0.22208  Biso   1.000  N
  N2       1.0000 0.34091  0.83647  0.72208  Biso   1.000  N
  N3       1.0000 0.58647  0.40909  0.47208  Biso   1.000  N
  N4       1.0000 0.91353  0.59091  0.97208  Biso   1.000  N
  N5       1.0000 0.65909  0.66353  0.72208  Biso   1.000  N
  N6       1.0000 0.84091  0.33647  0.22208  Biso   1.000  N
  N7       1.0000 0.08647  0.90909  0.97208  Biso   1.000  N
  N8       1.0000 0.41353  0.09091  0.47208  Biso   1.000  N
  N9       1.0000 0.84091  0.83647  0.77792  Biso   1.000  N
  N10      1.0000 0.65909  0.16353  0.27792  Biso   1.000  N
  N11      1.0000 0.91353  0.09091  0.02792  Biso   1.000  N
  N12      1.0000 0.58647  0.90909  0.52792  Biso   1.000  N
  N13      1.0000 0.34091  0.33647  0.27792  Biso   1.000  N
  N14      1.0000 0.15909  0.66353  0.77792  Biso   1.000  N
  N15      1.0000 0.41353  0.59091  0.52792  Biso   1.000  N
  N16      1.0000 0.08647  0.40909  0.02792  Biso   1.000  N
  N17      1.0000 0.18818  0.10138  0.18992  Biso   1.000  N
  N18      1.0000 0.31182  0.89862  0.68992  Biso   1.000  N
  N19      1.0000 0.64862  0.43818  0.43992  Biso   1.000  N
  N20      1.0000 0.85138  0.56182  0.93992  Biso   1.000  N
  N21      1.0000 0.68818  0.60138  0.68992  Biso   1.000  N
  N22      1.0000 0.81182  0.39862  0.18992  Biso   1.000  N
  N23      1.0000 0.14862  0.93818  0.93992  Biso   1.000  N
  N24      1.0000 0.35138  0.06182  0.43992  Biso   1.000  N
  N25      1.0000 0.81182  0.89862  0.81008  Biso   1.000  N
  N26      1.0000 0.68818  0.10138  0.31008  Biso   1.000  N
  N27      1.0000 0.85138  0.06182  0.06008  Biso   1.000  N
  N28      1.0000 0.64862  0.93818  0.56008  Biso   1.000  N
  N29      1.0000 0.31182  0.39862  0.31008  Biso   1.000  N
  N30      1.0000 0.18818  0.60138  0.81008  Biso   1.000  N
  N31      1.0000 0.35138  0.56182  0.56008  Biso   1.000  N
  N32      1.0000 0.14862  0.43818  0.06008  Biso   1.000  N
  N33      1.0000 0.24737  0.11464  0.28509  Biso   1.000  N
  N34      1.0000 0.25263  0.88536  0.78509  Biso   1.000  N
  N35      1.0000 0.63536  0.49737  0.53509  Biso   1.000  N
  N36      1.0000 0.86464  0.50263  0.03509  Biso   1.000  N
  N37      1.0000 0.74737  0.61464  0.78509  Biso   1.000  N
  N38      1.0000 0.75263  0.38536  0.28509  Biso   1.000  N
  N39      1.0000 0.13536  0.99737  0.03509  Biso   1.000  N
  N40      1.0000 0.36464  0.00263  0.53509  Biso   1.000  N
  N41      1.0000 0.75263  0.88536  0.71491  Biso   1.000  N
  N42      1.0000 0.74737  0.11464  0.21491  Biso   1.000  N
  N43      1.0000 0.86464  0.00263  0.96491  Biso   1.000  N
  N44      1.0000 0.63536  0.99737  0.46491  Biso   1.000  N
  N45      1.0000 0.25263  0.38536  0.21491  Biso   1.000  N
  N46      1.0000 0.24737  0.61464  0.71491  Biso   1.000  N
  N47      1.0000 0.36464  0.50263  0.46491  Biso   1.000  N
  N48      1.0000 0.13536  0.49737  0.96491  Biso   1.000  N
