data_image0
_cell_length_a       10.9672
_cell_length_b       21.4419
_cell_length_c       5.8806
_cell_angle_alpha    90
_cell_angle_beta     90
_cell_angle_gamma    90

_symmetry_space_group_name_H-M    "P 1"
_symmetry_int_tables_number       1

loop_
  _symmetry_equiv_pos_as_xyz
  'x, y, z'

loop_
  _atom_site_label
  _atom_site_occupancy
  _atom_site_fract_x
  _atom_site_fract_y
  _atom_site_fract_z
  _atom_site_thermal_displace_type
  _atom_site_B_iso_or_equiv
  _atom_site_type_symbol
  Cu1      1.0000 0.95633  0.75000  0.07888  Biso   1.000  Cu
  Cu2      1.0000 0.54367  0.25000  0.57888  Biso   1.000  Cu
  Cu3      1.0000 0.04367  0.25000  0.92112  Biso   1.000  Cu
  Cu4      1.0000 0.45633  0.75000  0.42112  Biso   1.000  Cu
  S1       1.0000 0.79519  0.75000  0.82680  Biso   1.000  S
  S2       1.0000 0.70481  0.25000  0.32680  Biso   1.000  S
  S3       1.0000 0.20481  0.25000  0.17320  Biso   1.000  S
  S4       1.0000 0.29519  0.75000  0.67320  Biso   1.000  S
  N1       1.0000 0.90500  0.75000  0.39480  Biso   1.000  N
  N2       1.0000 0.59500  0.25000  0.89480  Biso   1.000  N
  N3       1.0000 0.09500  0.25000  0.60520  Biso   1.000  N
  N4       1.0000 0.40500  0.75000  0.10520  Biso   1.000  N
  N5       1.0000 0.07280  0.67365  0.00050  Biso   1.000  N
  N6       1.0000 0.42720  0.32635  0.50050  Biso   1.000  N
  N7       1.0000 0.92720  0.17365  0.99950  Biso   1.000  N
  N8       1.0000 0.57280  0.82635  0.49950  Biso   1.000  N
  N9       1.0000 0.92720  0.32635  0.99950  Biso   1.000  N
  N10      1.0000 0.57280  0.67365  0.49950  Biso   1.000  N
  N11      1.0000 0.07280  0.82635  0.00050  Biso   1.000  N
  N12      1.0000 0.42720  0.17365  0.50050  Biso   1.000  N
  H1       1.0000 0.13430  0.69000  0.90940  Biso   1.000  H
  H2       1.0000 0.36570  0.31000  0.40940  Biso   1.000  H
  H3       1.0000 0.86570  0.19000  0.09060  Biso   1.000  H
  H4       1.0000 0.63430  0.81000  0.59060  Biso   1.000  H
  H5       1.0000 0.86570  0.31000  0.09060  Biso   1.000  H
  H6       1.0000 0.63430  0.69000  0.59060  Biso   1.000  H
  H7       1.0000 0.13430  0.81000  0.90940  Biso   1.000  H
  H8       1.0000 0.36570  0.19000  0.40940  Biso   1.000  H
  C1       1.0000 0.86210  0.75000  0.57420  Biso   1.000  C
  C2       1.0000 0.63790  0.25000  0.07420  Biso   1.000  C
  C3       1.0000 0.13790  0.25000  0.42580  Biso   1.000  C
  C4       1.0000 0.36210  0.75000  0.92580  Biso   1.000  C
  C5       1.0000 0.13420  0.64968  0.20550  Biso   1.000  C
  C6       1.0000 0.36580  0.35032  0.70550  Biso   1.000  C
  C7       1.0000 0.86580  0.14968  0.79450  Biso   1.000  C
  C8       1.0000 0.63420  0.85032  0.29450  Biso   1.000  C
  C9       1.0000 0.86580  0.35032  0.79450  Biso   1.000  C
  C10      1.0000 0.63420  0.64968  0.29450  Biso   1.000  C
  C11      1.0000 0.13420  0.85032  0.20550  Biso   1.000  C
  C12      1.0000 0.36580  0.14968  0.70550  Biso   1.000  C
  H9       1.0000 0.07240  0.63120  0.30810  Biso   1.000  H
  H10      1.0000 0.42760  0.36880  0.80810  Biso   1.000  H
  H11      1.0000 0.92760  0.13120  0.69190  Biso   1.000  H
  H12      1.0000 0.57240  0.86880  0.19190  Biso   1.000  H
  H13      1.0000 0.92760  0.36880  0.69190  Biso   1.000  H
  H14      1.0000 0.57240  0.63120  0.19190  Biso   1.000  H
  H15      1.0000 0.07240  0.86880  0.30810  Biso   1.000  H
  H16      1.0000 0.42760  0.13120  0.80810  Biso   1.000  H
  H17      1.0000 0.17300  0.68490  0.28680  Biso   1.000  H
  H18      1.0000 0.32700  0.31510  0.78680  Biso   1.000  H
  H19      1.0000 0.82700  0.18490  0.71320  Biso   1.000  H
  H20      1.0000 0.67300  0.81510  0.21320  Biso   1.000  H
  H21      1.0000 0.82700  0.31510  0.71320  Biso   1.000  H
  H22      1.0000 0.67300  0.68490  0.21320  Biso   1.000  H
  H23      1.0000 0.17300  0.81510  0.28680  Biso   1.000  H
  H24      1.0000 0.32700  0.18490  0.78680  Biso   1.000  H
  C13      1.0000 0.23100  0.60068  0.15260  Biso   1.000  C
  C14      1.0000 0.26900  0.39932  0.65260  Biso   1.000  C
  C15      1.0000 0.76900  0.10068  0.84740  Biso   1.000  C
  C16      1.0000 0.73100  0.89932  0.34740  Biso   1.000  C
  C17      1.0000 0.76900  0.39932  0.84740  Biso   1.000  C
  C18      1.0000 0.73100  0.60068  0.34740  Biso   1.000  C
  C19      1.0000 0.23100  0.89932  0.15260  Biso   1.000  C
  C20      1.0000 0.26900  0.10068  0.65260  Biso   1.000  C
  H25      1.0000 0.29820  0.62010  0.06560  Biso   1.000  H
  H26      1.0000 0.20180  0.37990  0.56560  Biso   1.000  H
  H27      1.0000 0.70180  0.12010  0.93440  Biso   1.000  H
  H28      1.0000 0.79820  0.87990  0.43440  Biso   1.000  H
  H29      1.0000 0.70180  0.37990  0.93440  Biso   1.000  H
  H30      1.0000 0.79820  0.62010  0.43440  Biso   1.000  H
  H31      1.0000 0.29820  0.87990  0.06560  Biso   1.000  H
  H32      1.0000 0.20180  0.12010  0.56560  Biso   1.000  H
  H33      1.0000 0.26510  0.58420  0.29650  Biso   1.000  H
  H34      1.0000 0.23490  0.41580  0.79650  Biso   1.000  H
  H35      1.0000 0.73490  0.08420  0.70350  Biso   1.000  H
  H36      1.0000 0.76510  0.91580  0.20350  Biso   1.000  H
  H37      1.0000 0.73490  0.41580  0.70350  Biso   1.000  H
  H38      1.0000 0.76510  0.58420  0.20350  Biso   1.000  H
  H39      1.0000 0.26510  0.91580  0.29650  Biso   1.000  H
  H40      1.0000 0.23490  0.08420  0.79650  Biso   1.000  H
  C21      1.0000 0.17680  0.54741  0.01550  Biso   1.000  C
  C22      1.0000 0.32320  0.45259  0.51550  Biso   1.000  C
  C23      1.0000 0.82320  0.04741  0.98450  Biso   1.000  C
  C24      1.0000 0.67680  0.95259  0.48450  Biso   1.000  C
  C25      1.0000 0.82320  0.45259  0.98450  Biso   1.000  C
  C26      1.0000 0.67680  0.54741  0.48450  Biso   1.000  C
  C27      1.0000 0.17680  0.95259  0.01550  Biso   1.000  C
  C28      1.0000 0.32320  0.04741  0.51550  Biso   1.000  C
  H41      1.0000 0.11800  0.52410  0.11060  Biso   1.000  H
  H42      1.0000 0.38200  0.47590  0.61060  Biso   1.000  H
  H43      1.0000 0.88200  0.02410  0.88940  Biso   1.000  H
  H44      1.0000 0.61800  0.97590  0.38940  Biso   1.000  H
  H45      1.0000 0.88200  0.47590  0.88940  Biso   1.000  H
  H46      1.0000 0.61800  0.52410  0.38940  Biso   1.000  H
  H47      1.0000 0.11800  0.97590  0.11060  Biso   1.000  H
  H48      1.0000 0.38200  0.02410  0.61060  Biso   1.000  H
  H49      1.0000 0.24250  0.51830  0.96930  Biso   1.000  H
  H50      1.0000 0.25750  0.48170  0.46930  Biso   1.000  H
  H51      1.0000 0.75750  0.01830  0.03070  Biso   1.000  H
  H52      1.0000 0.74250  0.98170  0.53070  Biso   1.000  H
  H53      1.0000 0.75750  0.48170  0.03070  Biso   1.000  H
  H54      1.0000 0.74250  0.51830  0.53070  Biso   1.000  H
  H55      1.0000 0.24250  0.98170  0.96930  Biso   1.000  H
  H56      1.0000 0.25750  0.01830  0.46930  Biso   1.000  H
  C29      1.0000 0.11250  0.57240  0.80480  Biso   1.000  C
  C30      1.0000 0.38750  0.42760  0.30480  Biso   1.000  C
  C31      1.0000 0.88750  0.07240  0.19520  Biso   1.000  C
  C32      1.0000 0.61250  0.92760  0.69520  Biso   1.000  C
  C33      1.0000 0.88750  0.42760  0.19520  Biso   1.000  C
  C34      1.0000 0.61250  0.57240  0.69520  Biso   1.000  C
  C35      1.0000 0.11250  0.92760  0.80480  Biso   1.000  C
  C36      1.0000 0.38750  0.07240  0.30480  Biso   1.000  C
  H57      1.0000 0.07130  0.53760  0.72500  Biso   1.000  H
  H58      1.0000 0.42870  0.46240  0.22500  Biso   1.000  H
  H59      1.0000 0.92870  0.03760  0.27500  Biso   1.000  H
  H60      1.0000 0.57130  0.96240  0.77500  Biso   1.000  H
  H61      1.0000 0.92870  0.46240  0.27500  Biso   1.000  H
  H62      1.0000 0.57130  0.53760  0.77500  Biso   1.000  H
  H63      1.0000 0.07130  0.96240  0.72500  Biso   1.000  H
  H64      1.0000 0.42870  0.03760  0.22500  Biso   1.000  H
  H65      1.0000 0.17350  0.59060  0.69990  Biso   1.000  H
  H66      1.0000 0.32650  0.40940  0.19990  Biso   1.000  H
  H67      1.0000 0.82650  0.09060  0.30010  Biso   1.000  H
  H68      1.0000 0.67350  0.90940  0.80010  Biso   1.000  H
  H69      1.0000 0.82650  0.40940  0.30010  Biso   1.000  H
  H70      1.0000 0.67350  0.59060  0.80010  Biso   1.000  H
  H71      1.0000 0.17350  0.90940  0.69990  Biso   1.000  H
  H72      1.0000 0.32650  0.09060  0.19990  Biso   1.000  H
  C37      1.0000 0.01850  0.62216  0.86820  Biso   1.000  C
  C38      1.0000 0.48150  0.37784  0.36820  Biso   1.000  C
  C39      1.0000 0.98150  0.12216  0.13180  Biso   1.000  C
  C40      1.0000 0.51850  0.87784  0.63180  Biso   1.000  C
  C41      1.0000 0.98150  0.37784  0.13180  Biso   1.000  C
  C42      1.0000 0.51850  0.62216  0.63180  Biso   1.000  C
  C43      1.0000 0.01850  0.87784  0.86820  Biso   1.000  C
  C44      1.0000 0.48150  0.12216  0.36820  Biso   1.000  C
  H73      1.0000 0.98180  0.63920  0.72760  Biso   1.000  H
  H74      1.0000 0.51820  0.36080  0.22760  Biso   1.000  H
  H75      1.0000 0.01820  0.13920  0.27240  Biso   1.000  H
  H76      1.0000 0.48180  0.86080  0.77240  Biso   1.000  H
  H77      1.0000 0.01820  0.36080  0.27240  Biso   1.000  H
  H78      1.0000 0.48180  0.63920  0.77240  Biso   1.000  H
  H79      1.0000 0.98180  0.86080  0.72760  Biso   1.000  H
  H80      1.0000 0.51820  0.13920  0.22760  Biso   1.000  H
  H81      1.0000 0.95260  0.60260  0.95850  Biso   1.000  H
  H82      1.0000 0.54740  0.39740  0.45850  Biso   1.000  H
  H83      1.0000 0.04740  0.10260  0.04150  Biso   1.000  H
  H84      1.0000 0.45260  0.89740  0.54150  Biso   1.000  H
  H85      1.0000 0.04740  0.39740  0.04150  Biso   1.000  H
  H86      1.0000 0.45260  0.60260  0.54150  Biso   1.000  H
  H87      1.0000 0.95260  0.89740  0.95850  Biso   1.000  H
  H88      1.0000 0.54740  0.10260  0.45850  Biso   1.000  H
