data_image0
_cell_length_a       11.018
_cell_length_b       21.511
_cell_length_c       5.8964
_cell_angle_alpha    90
_cell_angle_beta     90
_cell_angle_gamma    90

_symmetry_space_group_name_H-M    "P 1"
_symmetry_int_tables_number       1

loop_
  _symmetry_equiv_pos_as_xyz
  'x, y, z'

loop_
  _atom_site_label
  _atom_site_occupancy
  _atom_site_fract_x
  _atom_site_fract_y
  _atom_site_fract_z
  _atom_site_thermal_displace_type
  _atom_site_B_iso_or_equiv
  _atom_site_type_symbol
  Cu1      1.0000 0.45675  0.25000  0.07862  Biso   1.000  Cu
  Cu2      1.0000 0.04325  0.75000  0.57862  Biso   1.000  Cu
  Cu3      1.0000 0.95675  0.25000  0.42138  Biso   1.000  Cu
  Cu4      1.0000 0.54325  0.75000  0.92138  Biso   1.000  Cu
  S1       1.0000 0.29663  0.25000  0.82633  Biso   1.000  S
  S2       1.0000 0.20337  0.75000  0.32633  Biso   1.000  S
  S3       1.0000 0.79663  0.25000  0.67367  Biso   1.000  S
  S4       1.0000 0.70337  0.75000  0.17367  Biso   1.000  S
  C1       1.0000 0.36313  0.25000  0.57370  Biso   1.000  C
  C2       1.0000 0.13687  0.75000  0.07370  Biso   1.000  C
  C3       1.0000 0.86313  0.25000  0.92630  Biso   1.000  C
  C4       1.0000 0.63687  0.75000  0.42630  Biso   1.000  C
  N1       1.0000 0.40468  0.25000  0.39330  Biso   1.000  N
  N2       1.0000 0.09532  0.75000  0.89330  Biso   1.000  N
  N3       1.0000 0.90468  0.25000  0.10670  Biso   1.000  N
  N4       1.0000 0.59532  0.75000  0.60670  Biso   1.000  N
  N5       1.0000 0.57293  0.17376  0.00156  Biso   1.000  N
  N6       1.0000 0.92707  0.82624  0.50156  Biso   1.000  N
  N7       1.0000 0.07293  0.32624  0.49844  Biso   1.000  N
  N8       1.0000 0.42707  0.67376  0.99844  Biso   1.000  N
  N9       1.0000 0.42707  0.82624  0.99844  Biso   1.000  N
  N10      1.0000 0.07293  0.17376  0.49844  Biso   1.000  N
  N11      1.0000 0.92707  0.67376  0.50156  Biso   1.000  N
  N12      1.0000 0.57293  0.32624  0.00156  Biso   1.000  N
  C5       1.0000 0.51958  0.12241  0.86900  Biso   1.000  C
  C6       1.0000 0.98042  0.87759  0.36900  Biso   1.000  C
  C7       1.0000 0.01958  0.37759  0.63100  Biso   1.000  C
  C8       1.0000 0.48042  0.62241  0.13100  Biso   1.000  C
  C9       1.0000 0.48042  0.87759  0.13100  Biso   1.000  C
  C10      1.0000 0.01958  0.12241  0.63100  Biso   1.000  C
  C11      1.0000 0.98042  0.62241  0.36900  Biso   1.000  C
  C12      1.0000 0.51958  0.37759  0.86900  Biso   1.000  C
  C13      1.0000 0.61315  0.07277  0.80670  Biso   1.000  C
  C14      1.0000 0.88685  0.92723  0.30670  Biso   1.000  C
  C15      1.0000 0.11315  0.42723  0.69330  Biso   1.000  C
  C16      1.0000 0.38685  0.57277  0.19330  Biso   1.000  C
  C17      1.0000 0.38685  0.92723  0.19330  Biso   1.000  C
  C18      1.0000 0.11315  0.07277  0.69330  Biso   1.000  C
  C19      1.0000 0.88685  0.57277  0.30670  Biso   1.000  C
  C20      1.0000 0.61315  0.42723  0.80670  Biso   1.000  C
  C21      1.0000 0.67636  0.04766  0.01750  Biso   1.000  C
  C22      1.0000 0.82364  0.95234  0.51750  Biso   1.000  C
  C23      1.0000 0.17636  0.45234  0.48250  Biso   1.000  C
  C24      1.0000 0.32364  0.54766  0.98250  Biso   1.000  C
  C25      1.0000 0.32364  0.95234  0.98250  Biso   1.000  C
  C26      1.0000 0.17636  0.04766  0.48250  Biso   1.000  C
  C27      1.0000 0.82364  0.54766  0.51750  Biso   1.000  C
  C28      1.0000 0.67636  0.45234  0.01750  Biso   1.000  C
  C29      1.0000 0.73017  0.10088  0.15460  Biso   1.000  C
  C30      1.0000 0.76983  0.89912  0.65460  Biso   1.000  C
  C31      1.0000 0.23017  0.39912  0.34540  Biso   1.000  C
  C32      1.0000 0.26983  0.60088  0.84540  Biso   1.000  C
  C33      1.0000 0.26983  0.89912  0.84540  Biso   1.000  C
  C34      1.0000 0.23017  0.10088  0.34540  Biso   1.000  C
  C35      1.0000 0.76983  0.60088  0.65460  Biso   1.000  C
  C36      1.0000 0.73017  0.39912  0.15460  Biso   1.000  C
  C37      1.0000 0.63434  0.14974  0.20690  Biso   1.000  C
  C38      1.0000 0.86566  0.85026  0.70690  Biso   1.000  C
  C39      1.0000 0.13434  0.35026  0.29310  Biso   1.000  C
  C40      1.0000 0.36566  0.64974  0.79310  Biso   1.000  C
  C41      1.0000 0.36566  0.85026  0.79310  Biso   1.000  C
  C42      1.0000 0.13434  0.14974  0.29310  Biso   1.000  C
  C43      1.0000 0.86566  0.64974  0.70690  Biso   1.000  C
  C44      1.0000 0.63434  0.35026  0.20690  Biso   1.000  C
  H1       1.0000 0.62330  0.18980  0.92300  Biso   1.000  H
  H2       1.0000 0.87670  0.81020  0.42300  Biso   1.000  H
  H3       1.0000 0.12330  0.31020  0.57700  Biso   1.000  H
  H4       1.0000 0.37670  0.68980  0.07700  Biso   1.000  H
  H5       1.0000 0.37670  0.81020  0.07700  Biso   1.000  H
  H6       1.0000 0.12330  0.18980  0.57700  Biso   1.000  H
  H7       1.0000 0.87670  0.68980  0.42300  Biso   1.000  H
  H8       1.0000 0.62330  0.31020  0.92300  Biso   1.000  H
  H9       1.0000 0.47730  0.13930  0.73500  Biso   1.000  H
  H10      1.0000 0.02270  0.86070  0.23500  Biso   1.000  H
  H11      1.0000 0.97730  0.36070  0.76500  Biso   1.000  H
  H12      1.0000 0.52270  0.63930  0.26500  Biso   1.000  H
  H13      1.0000 0.52270  0.86070  0.26500  Biso   1.000  H
  H14      1.0000 0.97730  0.13930  0.76500  Biso   1.000  H
  H15      1.0000 0.02270  0.63930  0.23500  Biso   1.000  H
  H16      1.0000 0.47730  0.36070  0.73500  Biso   1.000  H
  H17      1.0000 0.45740  0.10480  0.95900  Biso   1.000  H
  H18      1.0000 0.04260  0.89520  0.45900  Biso   1.000  H
  H19      1.0000 0.95740  0.39520  0.54100  Biso   1.000  H
  H20      1.0000 0.54260  0.60480  0.04100  Biso   1.000  H
  H21      1.0000 0.54260  0.89520  0.04100  Biso   1.000  H
  H22      1.0000 0.95740  0.10480  0.54100  Biso   1.000  H
  H23      1.0000 0.04260  0.60480  0.45900  Biso   1.000  H
  H24      1.0000 0.45740  0.39520  0.95900  Biso   1.000  H
  H25      1.0000 0.67960  0.09100  0.71400  Biso   1.000  H
  H26      1.0000 0.82040  0.90900  0.21400  Biso   1.000  H
  H27      1.0000 0.17960  0.40900  0.78600  Biso   1.000  H
  H28      1.0000 0.32040  0.59100  0.28600  Biso   1.000  H
  H29      1.0000 0.32040  0.90900  0.28600  Biso   1.000  H
  H30      1.0000 0.17960  0.09100  0.78600  Biso   1.000  H
  H31      1.0000 0.82040  0.59100  0.21400  Biso   1.000  H
  H32      1.0000 0.67960  0.40900  0.71400  Biso   1.000  H
  H33      1.0000 0.57740  0.03910  0.72400  Biso   1.000  H
  H34      1.0000 0.92260  0.96090  0.22400  Biso   1.000  H
  H35      1.0000 0.07740  0.46090  0.77600  Biso   1.000  H
  H36      1.0000 0.42260  0.53910  0.27600  Biso   1.000  H
  H37      1.0000 0.42260  0.96090  0.27600  Biso   1.000  H
  H38      1.0000 0.07740  0.03910  0.77600  Biso   1.000  H
  H39      1.0000 0.92260  0.53910  0.22400  Biso   1.000  H
  H40      1.0000 0.57740  0.46090  0.72400  Biso   1.000  H
  H41      1.0000 0.73800  0.01990  0.97100  Biso   1.000  H
  H42      1.0000 0.76200  0.98010  0.47100  Biso   1.000  H
  H43      1.0000 0.23800  0.48010  0.52900  Biso   1.000  H
  H44      1.0000 0.26200  0.51990  0.02900  Biso   1.000  H
  H45      1.0000 0.26200  0.98010  0.02900  Biso   1.000  H
  H46      1.0000 0.23800  0.01990  0.52900  Biso   1.000  H
  H47      1.0000 0.76200  0.51990  0.47100  Biso   1.000  H
  H48      1.0000 0.73800  0.48010  0.97100  Biso   1.000  H
  H49      1.0000 0.61880  0.02650  0.10600  Biso   1.000  H
  H50      1.0000 0.88120  0.97350  0.60600  Biso   1.000  H
  H51      1.0000 0.11880  0.47350  0.39400  Biso   1.000  H
  H52      1.0000 0.38120  0.52650  0.89400  Biso   1.000  H
  H53      1.0000 0.38120  0.97350  0.89400  Biso   1.000  H
  H54      1.0000 0.11880  0.02650  0.39400  Biso   1.000  H
  H55      1.0000 0.88120  0.52650  0.60600  Biso   1.000  H
  H56      1.0000 0.61880  0.47350  0.10600  Biso   1.000  H
  H57      1.0000 0.79230  0.11880  0.07200  Biso   1.000  H
  H58      1.0000 0.70770  0.88120  0.57200  Biso   1.000  H
  H59      1.0000 0.29230  0.38120  0.42800  Biso   1.000  H
  H60      1.0000 0.20770  0.61880  0.92800  Biso   1.000  H
  H61      1.0000 0.20770  0.88120  0.92800  Biso   1.000  H
  H62      1.0000 0.29230  0.11880  0.42800  Biso   1.000  H
  H63      1.0000 0.70770  0.61880  0.57200  Biso   1.000  H
  H64      1.0000 0.79230  0.38120  0.07200  Biso   1.000  H
  H65      1.0000 0.77220  0.08780  0.29500  Biso   1.000  H
  H66      1.0000 0.72780  0.91220  0.79500  Biso   1.000  H
  H67      1.0000 0.27220  0.41220  0.20500  Biso   1.000  H
  H68      1.0000 0.22780  0.58780  0.70500  Biso   1.000  H
  H69      1.0000 0.22780  0.91220  0.70500  Biso   1.000  H
  H70      1.0000 0.27220  0.08780  0.20500  Biso   1.000  H
  H71      1.0000 0.72780  0.58780  0.79500  Biso   1.000  H
  H72      1.0000 0.77220  0.41220  0.29500  Biso   1.000  H
  H73      1.0000 0.56750  0.13160  0.30300  Biso   1.000  H
  H74      1.0000 0.93250  0.86840  0.80300  Biso   1.000  H
  H75      1.0000 0.06750  0.36840  0.19700  Biso   1.000  H
  H76      1.0000 0.43250  0.63160  0.69700  Biso   1.000  H
  H77      1.0000 0.43250  0.86840  0.69700  Biso   1.000  H
  H78      1.0000 0.06750  0.13160  0.19700  Biso   1.000  H
  H79      1.0000 0.93250  0.63160  0.80300  Biso   1.000  H
  H80      1.0000 0.56750  0.36840  0.30300  Biso   1.000  H
  H81      1.0000 0.66750  0.18380  0.28500  Biso   1.000  H
  H82      1.0000 0.83250  0.81620  0.78500  Biso   1.000  H
  H83      1.0000 0.16750  0.31620  0.21500  Biso   1.000  H
  H84      1.0000 0.33250  0.68380  0.71500  Biso   1.000  H
  H85      1.0000 0.33250  0.81620  0.71500  Biso   1.000  H
  H86      1.0000 0.16750  0.18380  0.21500  Biso   1.000  H
  H87      1.0000 0.83250  0.68380  0.78500  Biso   1.000  H
  H88      1.0000 0.66750  0.31620  0.28500  Biso   1.000  H
