data_image0
_cell_length_a       13.6687
_cell_length_b       13.6687
_cell_length_c       32.4627
_cell_angle_alpha    90
_cell_angle_beta     90
_cell_angle_gamma    120

_symmetry_space_group_name_H-M    "P 1"
_symmetry_int_tables_number       1

loop_
  _symmetry_equiv_pos_as_xyz
  'x, y, z'

loop_
  _atom_site_label
  _atom_site_occupancy
  _atom_site_fract_x
  _atom_site_fract_y
  _atom_site_fract_z
  _atom_site_thermal_displace_type
  _atom_site_B_iso_or_equiv
  _atom_site_type_symbol
  Cu1      1.0000 0.00000  0.00000  0.82913  Biso   1.000  Cu
  Cu2      1.0000 0.33333  0.33333  0.16246  Biso   1.000  Cu
  Cu3      1.0000 0.66670  0.33330  0.72212  Biso   1.000  Cu
  Cu4      1.0000 0.00003  0.66663  0.05545  Biso   1.000  Cu
  P1       1.0000 0.00000  0.00000  0.75999  Biso   1.000  P
  P2       1.0000 0.33333  0.33333  0.09332  Biso   1.000  P
  P3       1.0000 0.66670  0.33330  0.65403  Biso   1.000  P
  P4       1.0000 0.00003  0.66663  0.98736  Biso   1.000  P
  N1       1.0000 0.01360  0.86770  0.85740  Biso   1.000  N
  N2       1.0000 0.13230  0.14590  0.85740  Biso   1.000  N
  N3       1.0000 0.85410  0.98640  0.85740  Biso   1.000  N
  N4       1.0000 0.34693  0.20103  0.19073  Biso   1.000  N
  N5       1.0000 0.46563  0.47923  0.19073  Biso   1.000  N
  N6       1.0000 0.18743  0.31973  0.19073  Biso   1.000  N
  N7       1.0000 0.18010  0.91700  0.82339  Biso   1.000  N
  N8       1.0000 0.08300  0.26310  0.82339  Biso   1.000  N
  N9       1.0000 0.73690  0.81990  0.82339  Biso   1.000  N
  N10      1.0000 0.51343  0.25033  0.15672  Biso   1.000  N
  N11      1.0000 0.41633  0.59643  0.15672  Biso   1.000  N
  N12      1.0000 0.07023  0.15323  0.15672  Biso   1.000  N
  H1       1.0000 0.19160  0.98490  0.82250  Biso   1.000  H
  H2       1.0000 0.01510  0.20670  0.82250  Biso   1.000  H
  H3       1.0000 0.79330  0.80840  0.82250  Biso   1.000  H
  H4       1.0000 0.52493  0.31823  0.15583  Biso   1.000  H
  H5       1.0000 0.34843  0.54003  0.15583  Biso   1.000  H
  H6       1.0000 0.12663  0.14173  0.15583  Biso   1.000  H
  N13      1.0000 0.53560  0.19080  0.74912  Biso   1.000  N
  N14      1.0000 0.80920  0.34480  0.74912  Biso   1.000  N
  N15      1.0000 0.65520  0.46440  0.74912  Biso   1.000  N
  N16      1.0000 0.86893  0.52413  0.08245  Biso   1.000  N
  N17      1.0000 0.14253  0.67813  0.08245  Biso   1.000  N
  N18      1.0000 0.98853  0.79773  0.08245  Biso   1.000  N
  C1       1.0000 0.86780  0.97530  0.73667  Biso   1.000  C
  C2       1.0000 0.02470  0.89250  0.73667  Biso   1.000  C
  C3       1.0000 0.10750  0.13220  0.73667  Biso   1.000  C
  C4       1.0000 0.20113  0.30863  0.07000  Biso   1.000  C
  C5       1.0000 0.35803  0.22583  0.07000  Biso   1.000  C
  C6       1.0000 0.44083  0.46553  0.07000  Biso   1.000  C
  C7       1.0000 0.81410  0.02890  0.75351  Biso   1.000  C
  C8       1.0000 0.97110  0.78520  0.75351  Biso   1.000  C
  C9       1.0000 0.21480  0.18590  0.75351  Biso   1.000  C
  C10      1.0000 0.14743  0.36223  0.08684  Biso   1.000  C
  C11      1.0000 0.30443  0.11853  0.08684  Biso   1.000  C
  C12      1.0000 0.54813  0.51923  0.08684  Biso   1.000  C
  H7       1.0000 0.84720  0.07840  0.77550  Biso   1.000  H
  H8       1.0000 0.92160  0.76880  0.77550  Biso   1.000  H
  H9       1.0000 0.23120  0.15280  0.77550  Biso   1.000  H
  H10      1.0000 0.18053  0.41173  0.10883  Biso   1.000  H
  H11      1.0000 0.25493  0.10213  0.10883  Biso   1.000  H
  H12      1.0000 0.56453  0.48613  0.10883  Biso   1.000  H
  C13      1.0000 0.71290  0.00980  0.73820  Biso   1.000  C
  C14      1.0000 0.99020  0.70310  0.73820  Biso   1.000  C
  C15      1.0000 0.29690  0.28710  0.73820  Biso   1.000  C
  C16      1.0000 0.04623  0.34313  0.07153  Biso   1.000  C
  C17      1.0000 0.32353  0.03643  0.07153  Biso   1.000  C
  C18      1.0000 0.63023  0.62043  0.07153  Biso   1.000  C
  H13      1.0000 0.67660  0.04480  0.75030  Biso   1.000  H
  H14      1.0000 0.95520  0.63180  0.75030  Biso   1.000  H
  H15      1.0000 0.36820  0.32340  0.75030  Biso   1.000  H
  H16      1.0000 0.00993  0.37813  0.08363  Biso   1.000  H
  H17      1.0000 0.28853  0.96513  0.08363  Biso   1.000  H
  H18      1.0000 0.70153  0.65673  0.08363  Biso   1.000  H
  C19      1.0000 0.66410  0.93950  0.70490  Biso   1.000  C
  C20      1.0000 0.06050  0.72460  0.70490  Biso   1.000  C
  C21      1.0000 0.27540  0.33590  0.70490  Biso   1.000  C
  C22      1.0000 0.99743  0.27283  0.03823  Biso   1.000  C
  C23      1.0000 0.39383  0.05793  0.03823  Biso   1.000  C
  C24      1.0000 0.60873  0.66923  0.03823  Biso   1.000  C
  H19      1.0000 0.59480  0.92630  0.69500  Biso   1.000  H
  H20      1.0000 0.07370  0.66850  0.69500  Biso   1.000  H
  H21      1.0000 0.33150  0.40520  0.69500  Biso   1.000  H
  H22      1.0000 0.92813  0.25963  0.02833  Biso   1.000  H
  H23      1.0000 0.40703  0.00183  0.02833  Biso   1.000  H
  H24      1.0000 0.66483  0.73853  0.02833  Biso   1.000  H
  C25      1.0000 0.71730  0.88880  0.68650  Biso   1.000  C
  C26      1.0000 0.11120  0.82850  0.68650  Biso   1.000  C
  C27      1.0000 0.17150  0.28270  0.68650  Biso   1.000  C
  C28      1.0000 0.05063  0.22213  0.01983  Biso   1.000  C
  C29      1.0000 0.44453  0.16183  0.01983  Biso   1.000  C
  C30      1.0000 0.50483  0.61603  0.01983  Biso   1.000  C
  H25      1.0000 0.68570  0.84390  0.66330  Biso   1.000  H
  H26      1.0000 0.15610  0.84180  0.66330  Biso   1.000  H
  H27      1.0000 0.15820  0.31430  0.66330  Biso   1.000  H
  H28      1.0000 0.01903  0.17723  0.99663  Biso   1.000  H
  H29      1.0000 0.48943  0.17513  0.99663  Biso   1.000  H
  H30      1.0000 0.49153  0.64763  0.99663  Biso   1.000  H
  C31      1.0000 0.81970  0.90490  0.70265  Biso   1.000  C
  C32      1.0000 0.09510  0.91480  0.70265  Biso   1.000  C
  C33      1.0000 0.08520  0.18030  0.70265  Biso   1.000  C
  C34      1.0000 0.15303  0.23823  0.03598  Biso   1.000  C
  C35      1.0000 0.42843  0.24813  0.03598  Biso   1.000  C
  C36      1.0000 0.41853  0.51363  0.03598  Biso   1.000  C
  H31      1.0000 0.85520  0.86890  0.69070  Biso   1.000  H
  H32      1.0000 0.13110  0.98630  0.69070  Biso   1.000  H
  H33      1.0000 0.01370  0.14480  0.69070  Biso   1.000  H
  H34      1.0000 0.18853  0.20223  0.02403  Biso   1.000  H
  H35      1.0000 0.46443  0.31963  0.02403  Biso   1.000  H
  H36      1.0000 0.34703  0.47813  0.02403  Biso   1.000  H
  C37      1.0000 0.92740  0.79460  0.88153  Biso   1.000  C
  C38      1.0000 0.20540  0.13280  0.88153  Biso   1.000  C
  C39      1.0000 0.86720  0.07260  0.88153  Biso   1.000  C
  C40      1.0000 0.26073  0.12793  0.21486  Biso   1.000  C
  C41      1.0000 0.53873  0.46613  0.21486  Biso   1.000  C
  C42      1.0000 0.20053  0.40593  0.21486  Biso   1.000  C
  H37      1.0000 0.87540  0.81490  0.89050  Biso   1.000  H
  H38      1.0000 0.18510  0.06050  0.89050  Biso   1.000  H
  H39      1.0000 0.93950  0.12460  0.89050  Biso   1.000  H
  H40      1.0000 0.20873  0.14823  0.22383  Biso   1.000  H
  H41      1.0000 0.51843  0.39383  0.22383  Biso   1.000  H
  H42      1.0000 0.27283  0.45793  0.22383  Biso   1.000  H
  C43      1.0000 0.91280  0.69230  0.89345  Biso   1.000  C
  C44      1.0000 0.30770  0.22050  0.89345  Biso   1.000  C
  C45      1.0000 0.77950  0.08720  0.89345  Biso   1.000  C
  C46      1.0000 0.24613  0.02563  0.22678  Biso   1.000  C
  C47      1.0000 0.64103  0.55383  0.22678  Biso   1.000  C
  C48      1.0000 0.11283  0.42053  0.22678  Biso   1.000  C
  H43      1.0000 0.85450  0.64580  0.91120  Biso   1.000  H
  H44      1.0000 0.35420  0.20870  0.91120  Biso   1.000  H
  H45      1.0000 0.79130  0.14550  0.91120  Biso   1.000  H
  H46      1.0000 0.18783  0.97913  0.24453  Biso   1.000  H
  H47      1.0000 0.68753  0.54203  0.24453  Biso   1.000  H
  H48      1.0000 0.12463  0.47883  0.24453  Biso   1.000  H
  C49      1.0000 0.98610  0.65960  0.87870  Biso   1.000  C
  C50      1.0000 0.34040  0.32650  0.87870  Biso   1.000  C
  C51      1.0000 0.67350  0.01390  0.87870  Biso   1.000  C
  C52      1.0000 0.31943  0.99293  0.21203  Biso   1.000  C
  C53      1.0000 0.67373  0.65983  0.21203  Biso   1.000  C
  C54      1.0000 0.00683  0.34723  0.21203  Biso   1.000  C
  H49      1.0000 0.97480  0.58830  0.88510  Biso   1.000  H
  H50      1.0000 0.41170  0.38650  0.88510  Biso   1.000  H
  H51      1.0000 0.61350  0.02520  0.88510  Biso   1.000  H
  H52      1.0000 0.30813  0.92163  0.21843  Biso   1.000  H
  H53      1.0000 0.74503  0.71983  0.21843  Biso   1.000  H
  H54      1.0000 0.94683  0.35853  0.21843  Biso   1.000  H
  C55      1.0000 0.07680  0.73230  0.85437  Biso   1.000  C
  C56      1.0000 0.26770  0.34450  0.85437  Biso   1.000  C
  C57      1.0000 0.65550  0.92320  0.85437  Biso   1.000  C
  C58      1.0000 0.41013  0.06563  0.18770  Biso   1.000  C
  C59      1.0000 0.60103  0.67783  0.18770  Biso   1.000  C
  C60      1.0000 0.98883  0.25653  0.18770  Biso   1.000  C
  H55      1.0000 0.12810  0.71200  0.84460  Biso   1.000  H
  H56      1.0000 0.28800  0.41610  0.84460  Biso   1.000  H
  H57      1.0000 0.58390  0.87190  0.84460  Biso   1.000  H
  H58      1.0000 0.46143  0.04533  0.17793  Biso   1.000  H
  H59      1.0000 0.62133  0.74943  0.17793  Biso   1.000  H
  H60      1.0000 0.91723  0.20523  0.17793  Biso   1.000  H
  C61      1.0000 0.08830  0.83670  0.84502  Biso   1.000  C
  C62      1.0000 0.16330  0.25160  0.84502  Biso   1.000  C
  C63      1.0000 0.74840  0.91170  0.84502  Biso   1.000  C
  C64      1.0000 0.42163  0.17003  0.17835  Biso   1.000  C
  C65      1.0000 0.49663  0.58493  0.17835  Biso   1.000  C
  C66      1.0000 0.08173  0.24503  0.17835  Biso   1.000  C
  C67      1.0000 0.25810  0.89230  0.80208  Biso   1.000  C
  C68      1.0000 0.10770  0.36580  0.80208  Biso   1.000  C
  C69      1.0000 0.63420  0.74190  0.80208  Biso   1.000  C
  C70      1.0000 0.59143  0.22563  0.13541  Biso   1.000  C
  C71      1.0000 0.44103  0.69913  0.13541  Biso   1.000  C
  C72      1.0000 0.96753  0.07523  0.13541  Biso   1.000  C
  H61      1.0000 0.21850  0.83830  0.78020  Biso   1.000  H
  H62      1.0000 0.16170  0.38020  0.78020  Biso   1.000  H
  H63      1.0000 0.61980  0.78150  0.78020  Biso   1.000  H
  H64      1.0000 0.55183  0.17163  0.11353  Biso   1.000  H
  H65      1.0000 0.49503  0.71353  0.11353  Biso   1.000  H
  H66      1.0000 0.95313  0.11483  0.11353  Biso   1.000  H
  H67      1.0000 0.28700  0.85830  0.82120  Biso   1.000  H
  H68      1.0000 0.14170  0.42870  0.82120  Biso   1.000  H
  H69      1.0000 0.57130  0.71300  0.82120  Biso   1.000  H
  H70      1.0000 0.62033  0.19163  0.15453  Biso   1.000  H
  H71      1.0000 0.47503  0.76203  0.15453  Biso   1.000  H
  H72      1.0000 0.90463  0.04633  0.15453  Biso   1.000  H
  C73      1.0000 0.35400  0.99600  0.78419  Biso   1.000  C
  C74      1.0000 0.00400  0.35800  0.78419  Biso   1.000  C
  C75      1.0000 0.64200  0.64600  0.78419  Biso   1.000  C
  C76      1.0000 0.68733  0.32933  0.11752  Biso   1.000  C
  C77      1.0000 0.33733  0.69133  0.11752  Biso   1.000  C
  C78      1.0000 0.97533  0.97933  0.11752  Biso   1.000  C
  C79      1.0000 0.39360  0.99490  0.74520  Biso   1.000  C
  C80      1.0000 0.00510  0.39870  0.74520  Biso   1.000  C
  C81      1.0000 0.60130  0.60640  0.74520  Biso   1.000  C
  C82      1.0000 0.72693  0.32823  0.07853  Biso   1.000  C
  C83      1.0000 0.33843  0.73203  0.07853  Biso   1.000  C
  C84      1.0000 0.93463  0.93973  0.07853  Biso   1.000  C
  H73      1.0000 0.36020  0.92900  0.72960  Biso   1.000  H
  H74      1.0000 0.07100  0.43120  0.72960  Biso   1.000  H
  H75      1.0000 0.56880  0.63980  0.72960  Biso   1.000  H
  H76      1.0000 0.69353  0.26233  0.06293  Biso   1.000  H
  H77      1.0000 0.40433  0.76453  0.06293  Biso   1.000  H
  H78      1.0000 0.90213  0.97313  0.06293  Biso   1.000  H
  C85      1.0000 0.48310  0.09210  0.72959  Biso   1.000  C
  C86      1.0000 0.90790  0.39100  0.72959  Biso   1.000  C
  C87      1.0000 0.60900  0.51690  0.72959  Biso   1.000  C
  C88      1.0000 0.81643  0.42543  0.06292  Biso   1.000  C
  C89      1.0000 0.24123  0.72433  0.06292  Biso   1.000  C
  C90      1.0000 0.94233  0.85023  0.06292  Biso   1.000  C
  H79      1.0000 0.50880  0.08860  0.70340  Biso   1.000  H
  H80      1.0000 0.91140  0.42020  0.70340  Biso   1.000  H
  H81      1.0000 0.57980  0.49120  0.70340  Biso   1.000  H
  H82      1.0000 0.84213  0.42193  0.03673  Biso   1.000  H
  H83      1.0000 0.24473  0.75353  0.03673  Biso   1.000  H
  H84      1.0000 0.91313  0.82453  0.03673  Biso   1.000  H
  C91      1.0000 0.49780  0.19060  0.78786  Biso   1.000  C
  C92      1.0000 0.80940  0.30720  0.78786  Biso   1.000  C
  C93      1.0000 0.69280  0.50220  0.78786  Biso   1.000  C
  C94      1.0000 0.83113  0.52393  0.12119  Biso   1.000  C
  C95      1.0000 0.14273  0.64053  0.12119  Biso   1.000  C
  C96      1.0000 0.02613  0.83553  0.12119  Biso   1.000  C
  H85      1.0000 0.53330  0.25690  0.80320  Biso   1.000  H
  H86      1.0000 0.74310  0.27640  0.80320  Biso   1.000  H
  H87      1.0000 0.72360  0.46670  0.80320  Biso   1.000  H
  H88      1.0000 0.86663  0.59023  0.13653  Biso   1.000  H
  H89      1.0000 0.07643  0.60973  0.13653  Biso   1.000  H
  H90      1.0000 0.05693  0.80003  0.13653  Biso   1.000  H
  C97      1.0000 0.40900  0.09620  0.80532  Biso   1.000  C
  C98      1.0000 0.90380  0.31280  0.80532  Biso   1.000  C
  C99      1.0000 0.68720  0.59100  0.80532  Biso   1.000  C
  C100     1.0000 0.74233  0.42953  0.13865  Biso   1.000  C
  C101     1.0000 0.23713  0.64613  0.13865  Biso   1.000  C
  C102     1.0000 0.02053  0.92433  0.13865  Biso   1.000  C
  H91      1.0000 0.38590  0.10040  0.83190  Biso   1.000  H
  H92      1.0000 0.89960  0.28550  0.83190  Biso   1.000  H
  H93      1.0000 0.71450  0.61410  0.83190  Biso   1.000  H
  H94      1.0000 0.71923  0.43373  0.16523  Biso   1.000  H
  H95      1.0000 0.23293  0.61883  0.16523  Biso   1.000  H
  H96      1.0000 0.04783  0.94743  0.16523  Biso   1.000  H
  C103     1.0000 0.53280  0.23140  0.63125  Biso   1.000  C
  C104     1.0000 0.76860  0.30140  0.63125  Biso   1.000  C
  C105     1.0000 0.69860  0.46720  0.63125  Biso   1.000  C
  C106     1.0000 0.86613  0.56473  0.96458  Biso   1.000  C
  C107     1.0000 0.10193  0.63473  0.96458  Biso   1.000  C
  C108     1.0000 0.03193  0.80053  0.96458  Biso   1.000  C
  C109     1.0000 0.43490  0.22410  0.64673  Biso   1.000  C
  C110     1.0000 0.77590  0.21080  0.64673  Biso   1.000  C
  C111     1.0000 0.78920  0.56510  0.64673  Biso   1.000  C
  C112     1.0000 0.76823  0.55743  0.98006  Biso   1.000  C
  C113     1.0000 0.10923  0.54413  0.98006  Biso   1.000  C
  C114     1.0000 0.12253  0.89843  0.98006  Biso   1.000  C
  H97      1.0000 0.44020  0.27200  0.66800  Biso   1.000  H
  H98      1.0000 0.72800  0.16820  0.66800  Biso   1.000  H
  H99      1.0000 0.83180  0.55980  0.66800  Biso   1.000  H
  H100     1.0000 0.77353  0.60533  0.00133  Biso   1.000  H
  H101     1.0000 0.06133  0.50153  0.00133  Biso   1.000  H
  H102     1.0000 0.16513  0.89313  0.00133  Biso   1.000  H
  C115     1.0000 0.33120  0.14850  0.63153  Biso   1.000  C
  C116     1.0000 0.85150  0.18270  0.63153  Biso   1.000  C
  C117     1.0000 0.81730  0.66880  0.63153  Biso   1.000  C
  C118     1.0000 0.66453  0.48183  0.96486  Biso   1.000  C
  C119     1.0000 0.18483  0.51603  0.96486  Biso   1.000  C
  C120     1.0000 0.15063  0.00213  0.96486  Biso   1.000  C
  H103     1.0000 0.26710  0.14710  0.64200  Biso   1.000  H
  H104     1.0000 0.85290  0.12000  0.64200  Biso   1.000  H
  H105     1.0000 0.88000  0.73290  0.64200  Biso   1.000  H
  H106     1.0000 0.60043  0.48043  0.97533  Biso   1.000  H
  H107     1.0000 0.18623  0.45333  0.97533  Biso   1.000  H
  H108     1.0000 0.21333  0.06623  0.97533  Biso   1.000  H
  C121     1.0000 0.32060  0.07560  0.60140  Biso   1.000  C
  C122     1.0000 0.92440  0.24500  0.60140  Biso   1.000  C
  C123     1.0000 0.75500  0.67940  0.60140  Biso   1.000  C
  C124     1.0000 0.65393  0.40893  0.93473  Biso   1.000  C
  C125     1.0000 0.25773  0.57833  0.93473  Biso   1.000  C
  C126     1.0000 0.08833  0.01273  0.93473  Biso   1.000  C
  H109     1.0000 0.24980  0.02440  0.59100  Biso   1.000  H
  H110     1.0000 0.97560  0.22540  0.59100  Biso   1.000  H
  H111     1.0000 0.77460  0.75020  0.59100  Biso   1.000  H
  H112     1.0000 0.58313  0.35773  0.92433  Biso   1.000  H
  H113     1.0000 0.30893  0.55873  0.92433  Biso   1.000  H
  H114     1.0000 0.10793  0.08353  0.92433  Biso   1.000  H
  C127     1.0000 0.41370  0.07800  0.58660  Biso   1.000  C
  C128     1.0000 0.92200  0.33570  0.58660  Biso   1.000  C
  C129     1.0000 0.66430  0.58630  0.58660  Biso   1.000  C
  C130     1.0000 0.74703  0.41133  0.91993  Biso   1.000  C
  C131     1.0000 0.25533  0.66903  0.91993  Biso   1.000  C
  C132     1.0000 0.99763  0.91963  0.91993  Biso   1.000  C
  H115     1.0000 0.40590  0.02580  0.56660  Biso   1.000  H
  H116     1.0000 0.97420  0.38010  0.56660  Biso   1.000  H
  H117     1.0000 0.61990  0.59410  0.56660  Biso   1.000  H
  H118     1.0000 0.73923  0.35913  0.89993  Biso   1.000  H
  H119     1.0000 0.30753  0.71343  0.89993  Biso   1.000  H
  H120     1.0000 0.95323  0.92743  0.89993  Biso   1.000  H
  C133     1.0000 0.52010  0.15540  0.60020  Biso   1.000  C
  C134     1.0000 0.84460  0.36470  0.60020  Biso   1.000  C
  C135     1.0000 0.63530  0.47990  0.60020  Biso   1.000  C
  C136     1.0000 0.85343  0.48873  0.93353  Biso   1.000  C
  C137     1.0000 0.17793  0.69803  0.93353  Biso   1.000  C
  C138     1.0000 0.96863  0.81323  0.93353  Biso   1.000  C
  H121     1.0000 0.58330  0.15700  0.58880  Biso   1.000  H
  H122     1.0000 0.84300  0.42630  0.58880  Biso   1.000  H
  H123     1.0000 0.57370  0.41670  0.58880  Biso   1.000  H
  H124     1.0000 0.91663  0.49033  0.92213  Biso   1.000  H
  H125     1.0000 0.17633  0.75963  0.92213  Biso   1.000  H
  H126     1.0000 0.90703  0.75003  0.92213  Biso   1.000  H
  Cl1      1.0000 0.66670  0.33330  0.90681  Biso   1.000  Cl
  Cl2      1.0000 0.00003  0.66663  0.24014  Biso   1.000  Cl
  O1       1.0000 0.66670  0.33330  0.87570  Biso   1.000  O
  O2       1.0000 0.00003  0.66663  0.20903  Biso   1.000  O
  O3       1.0000 0.69040  0.25810  0.92160  Biso   1.000  O
  O4       1.0000 0.74190  0.43230  0.92160  Biso   1.000  O
  O5       1.0000 0.56770  0.30960  0.92160  Biso   1.000  O
  O6       1.0000 0.02373  0.59143  0.25493  Biso   1.000  O
  O7       1.0000 0.07523  0.76563  0.25493  Biso   1.000  O
  O8       1.0000 0.90103  0.64293  0.25493  Biso   1.000  O
  Cl3      1.0000 0.66670  0.33330  0.45180  Biso   1.000  Cl
  Cl4      1.0000 0.00003  0.66663  0.78513  Biso   1.000  Cl
  C139     1.0000 0.66670  0.33330  0.32980  Biso   1.000  C
  C140     1.0000 0.00003  0.66663  0.66313  Biso   1.000  C
  H127     1.0000 0.66670  0.33330  0.36000  Biso   1.000  H
  H128     1.0000 0.00003  0.66663  0.69333  Biso   1.000  H
  O9       1.0000 0.69550  0.25680  0.44270  Biso   1.000  O
  O10      1.0000 0.74320  0.43870  0.44270  Biso   1.000  O
  O11      1.0000 0.56130  0.30450  0.44270  Biso   1.000  O
  O12      1.0000 0.02883  0.59013  0.77603  Biso   1.000  O
  O13      1.0000 0.07653  0.77203  0.77603  Biso   1.000  O
  O14      1.0000 0.89463  0.63783  0.77603  Biso   1.000  O
  Cl5      1.0000 0.53000  0.23690  0.31233  Biso   1.000  Cl
  Cl6      1.0000 0.76310  0.29310  0.31233  Biso   1.000  Cl
  Cl7      1.0000 0.70690  0.47000  0.31233  Biso   1.000  Cl
  Cl8      1.0000 0.86333  0.57023  0.64566  Biso   1.000  Cl
  Cl9      1.0000 0.09643  0.62643  0.64566  Biso   1.000  Cl
  Cl10     1.0000 0.04023  0.80333  0.64566  Biso   1.000  Cl
  O15      1.0000 0.66670  0.33330  0.48950  Biso   1.000  O
  O16      1.0000 0.00003  0.66663  0.82283  Biso   1.000  O
