data_image0
_cell_length_a       15.255
_cell_length_b       4.2279
_cell_length_c       16.142
_cell_angle_alpha    90
_cell_angle_beta     112.23
_cell_angle_gamma    90

_symmetry_space_group_name_H-M    "P 1"
_symmetry_int_tables_number       1

loop_
  _symmetry_equiv_pos_as_xyz
  'x, y, z'

loop_
  _atom_site_label
  _atom_site_occupancy
  _atom_site_fract_x
  _atom_site_fract_y
  _atom_site_fract_z
  _atom_site_thermal_displace_type
  _atom_site_B_iso_or_equiv
  _atom_site_type_symbol
  I1       1.0000 0.10156  0.56678  0.20797  Biso   1.000  I
  I2       1.0000 0.10156  0.93322  0.70797  Biso   1.000  I
  I3       1.0000 0.89844  0.43322  0.79203  Biso   1.000  I
  I4       1.0000 0.89844  0.06678  0.29203  Biso   1.000  I
  I5       1.0000 0.42178  0.07953  0.82340  Biso   1.000  I
  I6       1.0000 0.42178  0.42047  0.32340  Biso   1.000  I
  I7       1.0000 0.57822  0.92047  0.17660  Biso   1.000  I
  I8       1.0000 0.57822  0.57953  0.67660  Biso   1.000  I
  Cu1      1.0000 0.47657  0.07780  0.68649  Biso   1.000  Cu
  Cu2      1.0000 0.47657  0.42220  0.18649  Biso   1.000  Cu
  Cu3      1.0000 0.52343  0.92220  0.31351  Biso   1.000  Cu
  Cu4      1.0000 0.52343  0.57780  0.81351  Biso   1.000  Cu
  Cu5      1.0000 0.07302  0.07590  0.29795  Biso   1.000  Cu
  Cu6      1.0000 0.07302  0.42410  0.79795  Biso   1.000  Cu
  Cu7      1.0000 0.92698  0.92410  0.70205  Biso   1.000  Cu
  Cu8      1.0000 0.92698  0.57590  0.20205  Biso   1.000  Cu
  N1       1.0000 0.18890  0.08480  0.41890  Biso   1.000  N
  N2       1.0000 0.18890  0.41520  0.91890  Biso   1.000  N
  N3       1.0000 0.81110  0.91520  0.58110  Biso   1.000  N
  N4       1.0000 0.81110  0.58480  0.08110  Biso   1.000  N
  N5       1.0000 0.35450  0.07650  0.57310  Biso   1.000  N
  N6       1.0000 0.35450  0.42350  0.07310  Biso   1.000  N
  N7       1.0000 0.64550  0.92350  0.42690  Biso   1.000  N
  N8       1.0000 0.64550  0.57650  0.92690  Biso   1.000  N
  C1       1.0000 0.19230  0.22980  0.49300  Biso   1.000  C
  C2       1.0000 0.19230  0.27020  0.99300  Biso   1.000  C
  C3       1.0000 0.80770  0.77020  0.50700  Biso   1.000  C
  C4       1.0000 0.80770  0.72980  0.00700  Biso   1.000  C
  C5       1.0000 0.27470  0.22210  0.57040  Biso   1.000  C
  C6       1.0000 0.27470  0.27790  0.07040  Biso   1.000  C
  C7       1.0000 0.72530  0.77790  0.42960  Biso   1.000  C
  C8       1.0000 0.72530  0.72210  0.92960  Biso   1.000  C
  H1       1.0000 0.27460  0.32060  0.62190  Biso   1.000  H
  H2       1.0000 0.27460  0.17940  0.12190  Biso   1.000  H
  H3       1.0000 0.72540  0.67940  0.37810  Biso   1.000  H
  H4       1.0000 0.72540  0.82060  0.87810  Biso   1.000  H
  C9       1.0000 0.35020  0.93870  0.49660  Biso   1.000  C
  C10      1.0000 0.35020  0.56130  0.99660  Biso   1.000  C
  C11      1.0000 0.64980  0.06130  0.50340  Biso   1.000  C
  C12      1.0000 0.64980  0.43870  0.00340  Biso   1.000  C
  H5       1.0000 0.40370  0.83880  0.49460  Biso   1.000  H
  H6       1.0000 0.40370  0.66120  0.99460  Biso   1.000  H
  H7       1.0000 0.59630  0.16120  0.50540  Biso   1.000  H
  H8       1.0000 0.59630  0.33880  0.00540  Biso   1.000  H
  C13      1.0000 0.26850  0.94200  0.42120  Biso   1.000  C
  C14      1.0000 0.26850  0.55800  0.92120  Biso   1.000  C
  C15      1.0000 0.73150  0.05800  0.57880  Biso   1.000  C
  C16      1.0000 0.73150  0.44200  0.07880  Biso   1.000  C
  H9       1.0000 0.26820  0.84180  0.36980  Biso   1.000  H
  H10      1.0000 0.26820  0.65820  0.86980  Biso   1.000  H
  H11      1.0000 0.73180  0.15820  0.63020  Biso   1.000  H
  H12      1.0000 0.73180  0.34180  0.13020  Biso   1.000  H
  C17      1.0000 0.10640  0.39790  0.49360  Biso   1.000  C
  C18      1.0000 0.10640  0.10210  0.99360  Biso   1.000  C
  C19      1.0000 0.89360  0.60210  0.50640  Biso   1.000  C
  C20      1.0000 0.89360  0.89790  0.00640  Biso   1.000  C
  H13      1.0000 0.05530  0.24990  0.48090  Biso   1.000  H
  H14      1.0000 0.05530  0.25010  0.98090  Biso   1.000  H
  H15      1.0000 0.94470  0.75010  0.51910  Biso   1.000  H
  H16      1.0000 0.94470  0.74990  0.01910  Biso   1.000  H
  H17      1.0000 0.08880  0.56100  0.44880  Biso   1.000  H
  H18      1.0000 0.08880  0.93900  0.94880  Biso   1.000  H
  H19      1.0000 0.91120  0.43900  0.55120  Biso   1.000  H
  H20      1.0000 0.91120  0.06100  0.05120  Biso   1.000  H
  H21      1.0000 0.12010  0.49100  0.55140  Biso   1.000  H
  H22      1.0000 0.12010  0.00900  0.05140  Biso   1.000  H
  H23      1.0000 0.87990  0.50900  0.44860  Biso   1.000  H
  H24      1.0000 0.87990  0.99100  0.94860  Biso   1.000  H
