data_image0
_cell_length_a       3.8609
_cell_length_b       12.887
_cell_length_c       12.585
_cell_angle_alpha    90
_cell_angle_beta     95.588
_cell_angle_gamma    90

_symmetry_space_group_name_H-M    "P 1"
_symmetry_int_tables_number       1

loop_
  _symmetry_equiv_pos_as_xyz
  'x, y, z'

loop_
  _atom_site_label
  _atom_site_occupancy
  _atom_site_fract_x
  _atom_site_fract_y
  _atom_site_fract_z
  _atom_site_thermal_displace_type
  _atom_site_B_iso_or_equiv
  _atom_site_type_symbol
  Cu1      1.0000 0.44956  0.30269  0.16050  Biso   1.000  Cu
  Cu2      1.0000 0.44956  0.19731  0.66050  Biso   1.000  Cu
  Cu3      1.0000 0.55044  0.69731  0.83950  Biso   1.000  Cu
  Cu4      1.0000 0.55044  0.80269  0.33950  Biso   1.000  Cu
  Cl1      1.0000 0.92940  0.30011  0.04258  Biso   1.000  Cl
  Cl2      1.0000 0.92940  0.19989  0.54258  Biso   1.000  Cl
  Cl3      1.0000 0.07060  0.69989  0.95742  Biso   1.000  Cl
  Cl4      1.0000 0.07060  0.80011  0.45742  Biso   1.000  Cl
  N1       1.0000 0.49100  0.44940  0.21630  Biso   1.000  N
  N2       1.0000 0.49100  0.05060  0.71630  Biso   1.000  N
  N3       1.0000 0.50900  0.55060  0.78370  Biso   1.000  N
  N4       1.0000 0.50900  0.94940  0.28370  Biso   1.000  N
  N5       1.0000 0.50080  0.65870  0.27540  Biso   1.000  N
  N6       1.0000 0.50080  0.84130  0.77540  Biso   1.000  N
  N7       1.0000 0.49920  0.34130  0.72460  Biso   1.000  N
  N8       1.0000 0.49920  0.15870  0.22460  Biso   1.000  N
  C1       1.0000 0.61360  0.52370  0.15520  Biso   1.000  C
  C2       1.0000 0.61360  0.97630  0.65520  Biso   1.000  C
  C3       1.0000 0.38640  0.47630  0.84480  Biso   1.000  C
  C4       1.0000 0.38640  0.02370  0.34480  Biso   1.000  C
  H1       1.0000 0.69620  0.50500  0.09090  Biso   1.000  H
  H2       1.0000 0.69620  0.99500  0.59090  Biso   1.000  H
  H3       1.0000 0.30380  0.49500  0.90910  Biso   1.000  H
  H4       1.0000 0.30380  0.00500  0.40910  Biso   1.000  H
  C5       1.0000 0.62100  0.62700  0.18480  Biso   1.000  C
  C6       1.0000 0.62100  0.87300  0.68480  Biso   1.000  C
  C7       1.0000 0.37900  0.37300  0.81520  Biso   1.000  C
  C8       1.0000 0.37900  0.12700  0.31520  Biso   1.000  C
  H5       1.0000 0.71190  0.67570  0.14060  Biso   1.000  H
  H6       1.0000 0.71190  0.82430  0.64060  Biso   1.000  H
  H7       1.0000 0.28810  0.32430  0.85940  Biso   1.000  H
  H8       1.0000 0.28810  0.17570  0.35940  Biso   1.000  H
  C9       1.0000 0.37460  0.58440  0.33600  Biso   1.000  C
  C10      1.0000 0.37460  0.91560  0.83600  Biso   1.000  C
  C11      1.0000 0.62540  0.41560  0.66400  Biso   1.000  C
  C12      1.0000 0.62540  0.08440  0.16400  Biso   1.000  C
  H9       1.0000 0.28650  0.60370  0.39930  Biso   1.000  H
  H10      1.0000 0.28650  0.89630  0.89930  Biso   1.000  H
  H11      1.0000 0.71350  0.39630  0.60070  Biso   1.000  H
  H12      1.0000 0.71350  0.10370  0.10070  Biso   1.000  H
  C13      1.0000 0.37000  0.48030  0.30840  Biso   1.000  C
  C14      1.0000 0.37000  0.01970  0.80840  Biso   1.000  C
  C15      1.0000 0.63000  0.51970  0.69160  Biso   1.000  C
  C16      1.0000 0.63000  0.98030  0.19160  Biso   1.000  C
  C17      1.0000 0.23810  0.39890  0.37880  Biso   1.000  C
  C18      1.0000 0.23810  0.10110  0.87880  Biso   1.000  C
  C19      1.0000 0.76190  0.60110  0.62120  Biso   1.000  C
  C20      1.0000 0.76190  0.89890  0.12120  Biso   1.000  C
  H13      1.0000 0.13500  0.43150  0.43670  Biso   1.000  H
  H14      1.0000 0.13500  0.06850  0.93670  Biso   1.000  H
  H15      1.0000 0.86500  0.56850  0.56330  Biso   1.000  H
  H16      1.0000 0.86500  0.93150  0.06330  Biso   1.000  H
  H17      1.0000 0.42790  0.35570  0.40680  Biso   1.000  H
  H18      1.0000 0.42790  0.14430  0.90680  Biso   1.000  H
  H19      1.0000 0.57210  0.64430  0.59320  Biso   1.000  H
  H20      1.0000 0.57210  0.85570  0.09320  Biso   1.000  H
  H21      1.0000 0.06670  0.35730  0.33810  Biso   1.000  H
  H22      1.0000 0.06670  0.14270  0.83810  Biso   1.000  H
  H23      1.0000 0.93330  0.64270  0.66190  Biso   1.000  H
  H24      1.0000 0.93330  0.85730  0.16190  Biso   1.000  H
