data_image0
_cell_length_a       4.0227
_cell_length_b       12.94
_cell_length_c       12.801
_cell_angle_alpha    90
_cell_angle_beta     96.83
_cell_angle_gamma    90

_symmetry_space_group_name_H-M    "P 1"
_symmetry_int_tables_number       1

loop_
  _symmetry_equiv_pos_as_xyz
  'x, y, z'

loop_
  _atom_site_label
  _atom_site_occupancy
  _atom_site_fract_x
  _atom_site_fract_y
  _atom_site_fract_z
  _atom_site_thermal_displace_type
  _atom_site_B_iso_or_equiv
  _atom_site_type_symbol
  Br1      1.0000 0.06505  0.69640  0.45987  Biso   1.000  Br
  Br2      1.0000 0.06505  0.80360  0.95987  Biso   1.000  Br
  Br3      1.0000 0.93495  0.30360  0.54013  Biso   1.000  Br
  Br4      1.0000 0.93495  0.19640  0.04013  Biso   1.000  Br
  Cu1      1.0000 0.53166  0.69461  0.33670  Biso   1.000  Cu
  Cu2      1.0000 0.53166  0.80539  0.83670  Biso   1.000  Cu
  Cu3      1.0000 0.46834  0.30539  0.66330  Biso   1.000  Cu
  Cu4      1.0000 0.46834  0.19461  0.16330  Biso   1.000  Cu
  N1       1.0000 0.50470  0.33930  0.22350  Biso   1.000  N
  N2       1.0000 0.50470  0.16070  0.72350  Biso   1.000  N
  N3       1.0000 0.49530  0.66070  0.77650  Biso   1.000  N
  N4       1.0000 0.49530  0.83930  0.27650  Biso   1.000  N
  N5       1.0000 0.49870  0.54850  0.28140  Biso   1.000  N
  N6       1.0000 0.49870  0.95150  0.78140  Biso   1.000  N
  N7       1.0000 0.50130  0.45150  0.71860  Biso   1.000  N
  N8       1.0000 0.50130  0.04850  0.21860  Biso   1.000  N
  C1       1.0000 0.38430  0.37050  0.31040  Biso   1.000  C
  C2       1.0000 0.38430  0.12950  0.81040  Biso   1.000  C
  C3       1.0000 0.61570  0.62950  0.68960  Biso   1.000  C
  C4       1.0000 0.61570  0.87050  0.18960  Biso   1.000  C
  H1       1.0000 0.29810  0.32150  0.35300  Biso   1.000  H
  H2       1.0000 0.29810  0.17850  0.85300  Biso   1.000  H
  H3       1.0000 0.70190  0.67850  0.64700  Biso   1.000  H
  H4       1.0000 0.70190  0.82150  0.14700  Biso   1.000  H
  C5       1.0000 0.38240  0.47350  0.33990  Biso   1.000  C
  C6       1.0000 0.38240  0.02650  0.83990  Biso   1.000  C
  C7       1.0000 0.61760  0.52650  0.66010  Biso   1.000  C
  C8       1.0000 0.61760  0.97350  0.16010  Biso   1.000  C
  H5       1.0000 0.29830  0.49130  0.40210  Biso   1.000  H
  H6       1.0000 0.29830  0.00870  0.90210  Biso   1.000  H
  H7       1.0000 0.70170  0.50870  0.59790  Biso   1.000  H
  H8       1.0000 0.70170  0.99130  0.09790  Biso   1.000  H
  C9       1.0000 0.62220  0.51810  0.19220  Biso   1.000  C
  C10      1.0000 0.62220  0.98190  0.69220  Biso   1.000  C
  C11      1.0000 0.37780  0.48190  0.80780  Biso   1.000  C
  C12      1.0000 0.37780  0.01810  0.30780  Biso   1.000  C
  C13      1.0000 0.62560  0.41420  0.16540  Biso   1.000  C
  C14      1.0000 0.62560  0.08580  0.66540  Biso   1.000  C
  C15      1.0000 0.37440  0.58580  0.83460  Biso   1.000  C
  C16      1.0000 0.37440  0.91420  0.33460  Biso   1.000  C
  H9       1.0000 0.71550  0.39540  0.10450  Biso   1.000  H
  H10      1.0000 0.71550  0.10460  0.60450  Biso   1.000  H
  H11      1.0000 0.28450  0.60460  0.89550  Biso   1.000  H
  H12      1.0000 0.28450  0.89540  0.39550  Biso   1.000  H
  C17      1.0000 0.74960  0.59910  0.12520  Biso   1.000  C
  C18      1.0000 0.74960  0.90090  0.62520  Biso   1.000  C
  C19      1.0000 0.25040  0.40090  0.87480  Biso   1.000  C
  C20      1.0000 0.25040  0.09910  0.37480  Biso   1.000  C
  H13      1.0000 0.84620  0.56710  0.06820  Biso   1.000  H
  H14      1.0000 0.84620  0.93290  0.56820  Biso   1.000  H
  H15      1.0000 0.15380  0.43290  0.93180  Biso   1.000  H
  H16      1.0000 0.15380  0.06710  0.43180  Biso   1.000  H
  H17      1.0000 0.91690  0.63950  0.16650  Biso   1.000  H
  H18      1.0000 0.91690  0.86050  0.66650  Biso   1.000  H
  H19      1.0000 0.08310  0.36050  0.83350  Biso   1.000  H
  H20      1.0000 0.08310  0.13950  0.33350  Biso   1.000  H
  H21      1.0000 0.56810  0.64310  0.09740  Biso   1.000  H
  H22      1.0000 0.56810  0.85690  0.59740  Biso   1.000  H
  H23      1.0000 0.43190  0.35690  0.90260  Biso   1.000  H
  H24      1.0000 0.43190  0.14310  0.40260  Biso   1.000  H
