data_image0
_cell_length_a       8.74
_cell_length_b       13.92
_cell_length_c       17.082
_cell_angle_alpha    90
_cell_angle_beta     90
_cell_angle_gamma    90

_symmetry_space_group_name_H-M    "P 1"
_symmetry_int_tables_number       1

loop_
  _symmetry_equiv_pos_as_xyz
  'x, y, z'

loop_
  _atom_site_label
  _atom_site_occupancy
  _atom_site_fract_x
  _atom_site_fract_y
  _atom_site_fract_z
  _atom_site_thermal_displace_type
  _atom_site_B_iso_or_equiv
  _atom_site_type_symbol
  I1       1.0000 0.14590  0.84284  0.99452  Biso   1.000  I
  I2       1.0000 0.35410  0.15716  0.49452  Biso   1.000  I
  I3       1.0000 0.85410  0.34284  0.50548  Biso   1.000  I
  I4       1.0000 0.64590  0.65716  0.00548  Biso   1.000  I
  I5       1.0000 0.13200  0.16298  0.97512  Biso   1.000  I
  I6       1.0000 0.36800  0.83702  0.47512  Biso   1.000  I
  I7       1.0000 0.86800  0.66298  0.52488  Biso   1.000  I
  I8       1.0000 0.63200  0.33702  0.02488  Biso   1.000  I
  Cu1      1.0000 0.03460  0.99140  0.91488  Biso   1.000  Cu
  Cu2      1.0000 0.46540  0.00860  0.41488  Biso   1.000  Cu
  Cu3      1.0000 0.96540  0.49140  0.58512  Biso   1.000  Cu
  Cu4      1.0000 0.53460  0.50860  0.08512  Biso   1.000  Cu
  Cu5      1.0000 0.27230  0.01030  0.02087  Biso   1.000  Cu
  Cu6      1.0000 0.22770  0.98970  0.52087  Biso   1.000  Cu
  Cu7      1.0000 0.72770  0.51030  0.47913  Biso   1.000  Cu
  Cu8      1.0000 0.77230  0.48970  0.97913  Biso   1.000  Cu
  N1       1.0000 0.80200  0.99370  0.92900  Biso   1.000  N
  N2       1.0000 0.69800  0.00630  0.42900  Biso   1.000  N
  N3       1.0000 0.19800  0.49370  0.57100  Biso   1.000  N
  N4       1.0000 0.30200  0.50630  0.07100  Biso   1.000  N
  N5       1.0000 0.49510  0.00160  0.97700  Biso   1.000  N
  N6       1.0000 0.00490  0.99840  0.47700  Biso   1.000  N
  N7       1.0000 0.50490  0.50160  0.52300  Biso   1.000  N
  N8       1.0000 0.99510  0.49840  0.02300  Biso   1.000  N
  N9       1.0000 0.09710  0.98280  0.79950  Biso   1.000  N
  N10      1.0000 0.40290  0.01720  0.29950  Biso   1.000  N
  N11      1.0000 0.90290  0.48280  0.70050  Biso   1.000  N
  N12      1.0000 0.59710  0.51720  0.20050  Biso   1.000  N
  N13      1.0000 0.18500  0.98690  0.64020  Biso   1.000  N
  N14      1.0000 0.31500  0.01310  0.14020  Biso   1.000  N
  N15      1.0000 0.81500  0.48690  0.85980  Biso   1.000  N
  N16      1.0000 0.68500  0.51310  0.35980  Biso   1.000  N
  N17      1.0000 0.39080  0.30750  0.81280  Biso   1.000  N
  N18      1.0000 0.10920  0.69250  0.31280  Biso   1.000  N
  N19      1.0000 0.60920  0.80750  0.68720  Biso   1.000  N
  N20      1.0000 0.89080  0.19250  0.18720  Biso   1.000  N
  N21      1.0000 0.54040  0.37200  0.68950  Biso   1.000  N
  N22      1.0000 0.95960  0.62800  0.18950  Biso   1.000  N
  N23      1.0000 0.45960  0.87200  0.81050  Biso   1.000  N
  N24      1.0000 0.04040  0.12800  0.31050  Biso   1.000  N
  C1       1.0000 0.70830  0.06630  0.90780  Biso   1.000  C
  C2       1.0000 0.79170  0.93370  0.40780  Biso   1.000  C
  C3       1.0000 0.29170  0.56630  0.59220  Biso   1.000  C
  C4       1.0000 0.20830  0.43370  0.09220  Biso   1.000  C
  C5       1.0000 0.76930  0.13860  0.85140  Biso   1.000  C
  C6       1.0000 0.73070  0.86140  0.35140  Biso   1.000  C
  C7       1.0000 0.23070  0.63860  0.64860  Biso   1.000  C
  C8       1.0000 0.26930  0.36140  0.14860  Biso   1.000  C
  H1       1.0000 0.69510  0.18870  0.84400  Biso   1.000  H
  H2       1.0000 0.80490  0.81130  0.34400  Biso   1.000  H
  H3       1.0000 0.30490  0.68870  0.65600  Biso   1.000  H
  H4       1.0000 0.19510  0.31130  0.15600  Biso   1.000  H
  H5       1.0000 0.79000  0.10800  0.80220  Biso   1.000  H
  H6       1.0000 0.71000  0.89200  0.30220  Biso   1.000  H
  H7       1.0000 0.21000  0.60800  0.69780  Biso   1.000  H
  H8       1.0000 0.29000  0.39200  0.19780  Biso   1.000  H
  H9       1.0000 0.86200  0.16570  0.87170  Biso   1.000  H
  H10      1.0000 0.63800  0.83430  0.37170  Biso   1.000  H
  H11      1.0000 0.13800  0.66570  0.62830  Biso   1.000  H
  H12      1.0000 0.36200  0.33430  0.12830  Biso   1.000  H
  C9       1.0000 0.55940  0.07140  0.93060  Biso   1.000  C
  C10      1.0000 0.94060  0.92860  0.43060  Biso   1.000  C
  C11      1.0000 0.44060  0.57140  0.56940  Biso   1.000  C
  C12      1.0000 0.05940  0.42860  0.06940  Biso   1.000  C
  H13      1.0000 0.49990  0.12310  0.91430  Biso   1.000  H
  H14      1.0000 0.00010  0.87690  0.41430  Biso   1.000  H
  H15      1.0000 0.50010  0.62310  0.58570  Biso   1.000  H
  H16      1.0000 0.99990  0.37690  0.08570  Biso   1.000  H
  C13      1.0000 0.58520  0.93050  0.99870  Biso   1.000  C
  C14      1.0000 0.91480  0.06950  0.49870  Biso   1.000  C
  C15      1.0000 0.41480  0.43050  0.50130  Biso   1.000  C
  C16      1.0000 0.08520  0.56950  0.00130  Biso   1.000  C
  H17      1.0000 0.54710  0.88180  0.03040  Biso   1.000  H
  H18      1.0000 0.95290  0.11820  0.53040  Biso   1.000  H
  H19      1.0000 0.45290  0.38180  0.46960  Biso   1.000  H
  H20      1.0000 0.04710  0.61820  0.96960  Biso   1.000  H
  C17      1.0000 0.73540  0.92780  0.97460  Biso   1.000  C
  C18      1.0000 0.76460  0.07220  0.47460  Biso   1.000  C
  C19      1.0000 0.26460  0.42780  0.52540  Biso   1.000  C
  C20      1.0000 0.23540  0.57220  0.02540  Biso   1.000  C
  H21      1.0000 0.79490  0.87630  0.99120  Biso   1.000  H
  H22      1.0000 0.70510  0.12370  0.49120  Biso   1.000  H
  H23      1.0000 0.20510  0.37630  0.50880  Biso   1.000  H
  H24      1.0000 0.29490  0.62370  0.00880  Biso   1.000  H
  C21      1.0000 0.05940  0.90930  0.75030  Biso   1.000  C
  C22      1.0000 0.44060  0.09070  0.25030  Biso   1.000  C
  C23      1.0000 0.94060  0.40930  0.74970  Biso   1.000  C
  C24      1.0000 0.55940  0.59070  0.24970  Biso   1.000  C
  C25      1.0000 0.97760  0.82550  0.78180  Biso   1.000  C
  C26      1.0000 0.52240  0.17450  0.28180  Biso   1.000  C
  C27      1.0000 0.02240  0.32550  0.71820  Biso   1.000  C
  C28      1.0000 0.47760  0.67450  0.21820  Biso   1.000  C
  H25      1.0000 0.03900  0.79550  0.82150  Biso   1.000  H
  H26      1.0000 0.46100  0.20450  0.32150  Biso   1.000  H
  H27      1.0000 0.96100  0.29550  0.67850  Biso   1.000  H
  H28      1.0000 0.53900  0.70450  0.17850  Biso   1.000  H
  H29      1.0000 0.95800  0.78050  0.74040  Biso   1.000  H
  H30      1.0000 0.54200  0.21950  0.24040  Biso   1.000  H
  H31      1.0000 0.04200  0.28050  0.75960  Biso   1.000  H
  H32      1.0000 0.45800  0.71950  0.25960  Biso   1.000  H
  H33      1.0000 0.88200  0.84590  0.80400  Biso   1.000  H
  H34      1.0000 0.61800  0.15410  0.30400  Biso   1.000  H
  H35      1.0000 0.11800  0.34590  0.69600  Biso   1.000  H
  H36      1.0000 0.38200  0.65410  0.19600  Biso   1.000  H
  C29      1.0000 0.10690  0.91420  0.67280  Biso   1.000  C
  C30      1.0000 0.39310  0.08580  0.17280  Biso   1.000  C
  C31      1.0000 0.89310  0.41420  0.82720  Biso   1.000  C
  C32      1.0000 0.60690  0.58580  0.32720  Biso   1.000  C
  H37      1.0000 0.08240  0.86250  0.64070  Biso   1.000  H
  H38      1.0000 0.41760  0.13750  0.14070  Biso   1.000  H
  H39      1.0000 0.91760  0.36250  0.85930  Biso   1.000  H
  H40      1.0000 0.58240  0.63750  0.35930  Biso   1.000  H
  C33      1.0000 0.21970  0.05560  0.69130  Biso   1.000  C
  C34      1.0000 0.28030  0.94440  0.19130  Biso   1.000  C
  C35      1.0000 0.78030  0.55560  0.80870  Biso   1.000  C
  C36      1.0000 0.71970  0.44440  0.30870  Biso   1.000  C
  H41      1.0000 0.27890  0.10680  0.67390  Biso   1.000  H
  H42      1.0000 0.22110  0.89320  0.17390  Biso   1.000  H
  H43      1.0000 0.72110  0.60680  0.82610  Biso   1.000  H
  H44      1.0000 0.77890  0.39320  0.32610  Biso   1.000  H
  C37      1.0000 0.17370  0.05540  0.76760  Biso   1.000  C
  C38      1.0000 0.32630  0.94460  0.26760  Biso   1.000  C
  C39      1.0000 0.82630  0.55540  0.73240  Biso   1.000  C
  C40      1.0000 0.67370  0.44460  0.23240  Biso   1.000  C
  H45      1.0000 0.19700  0.10830  0.79860  Biso   1.000  H
  H46      1.0000 0.30300  0.89170  0.29860  Biso   1.000  H
  H47      1.0000 0.80300  0.60830  0.70140  Biso   1.000  H
  H48      1.0000 0.69700  0.39170  0.20140  Biso   1.000  H
  C41      1.0000 0.42110  0.40760  0.79440  Biso   1.000  C
  C42      1.0000 0.07890  0.59240  0.29440  Biso   1.000  C
  C43      1.0000 0.57890  0.90760  0.70560  Biso   1.000  C
  C44      1.0000 0.92110  0.09240  0.20560  Biso   1.000  C
  C45      1.0000 0.36060  0.47790  0.84850  Biso   1.000  C
  C46      1.0000 0.13940  0.52210  0.34850  Biso   1.000  C
  C47      1.0000 0.63940  0.97790  0.65150  Biso   1.000  C
  C48      1.0000 0.86060  0.02210  0.15150  Biso   1.000  C
  H49      1.0000 0.40300  0.46710  0.89960  Biso   1.000  H
  H50      1.0000 0.09700  0.53290  0.39960  Biso   1.000  H
  H51      1.0000 0.59700  0.96710  0.60040  Biso   1.000  H
  H52      1.0000 0.90300  0.03290  0.10040  Biso   1.000  H
  H53      1.0000 0.25120  0.47210  0.85090  Biso   1.000  H
  H54      1.0000 0.24880  0.52790  0.35090  Biso   1.000  H
  H55      1.0000 0.74880  0.97210  0.64910  Biso   1.000  H
  H56      1.0000 0.75120  0.02790  0.14910  Biso   1.000  H
  H57      1.0000 0.38700  0.54130  0.83100  Biso   1.000  H
  H58      1.0000 0.11300  0.45870  0.33100  Biso   1.000  H
  H59      1.0000 0.61300  0.04130  0.66900  Biso   1.000  H
  H60      1.0000 0.88700  0.95870  0.16900  Biso   1.000  H
  C49      1.0000 0.48690  0.43610  0.73530  Biso   1.000  C
  C50      1.0000 0.01310  0.56390  0.23530  Biso   1.000  C
  C51      1.0000 0.51310  0.93610  0.76470  Biso   1.000  C
  C52      1.0000 0.98690  0.06390  0.26470  Biso   1.000  C
  H61      1.0000 0.49730  0.50130  0.72450  Biso   1.000  H
  H62      1.0000 0.00270  0.49870  0.22450  Biso   1.000  H
  H63      1.0000 0.50270  0.00130  0.77550  Biso   1.000  H
  H64      1.0000 0.99730  0.99870  0.27550  Biso   1.000  H
  C53      1.0000 0.51450  0.27310  0.70870  Biso   1.000  C
  C54      1.0000 0.98550  0.72690  0.20870  Biso   1.000  C
  C55      1.0000 0.48550  0.77310  0.79130  Biso   1.000  C
  C56      1.0000 0.01450  0.22690  0.29130  Biso   1.000  C
  H65      1.0000 0.55370  0.22890  0.67310  Biso   1.000  H
  H66      1.0000 0.94630  0.77110  0.17310  Biso   1.000  H
  H67      1.0000 0.44630  0.72890  0.82690  Biso   1.000  H
  H68      1.0000 0.05370  0.27110  0.32690  Biso   1.000  H
  C57      1.0000 0.44840  0.23830  0.76500  Biso   1.000  C
  C58      1.0000 0.05160  0.76170  0.26500  Biso   1.000  C
  C59      1.0000 0.55160  0.73830  0.73500  Biso   1.000  C
  C60      1.0000 0.94840  0.26170  0.23500  Biso   1.000  C
  H69      1.0000 0.43870  0.17270  0.77400  Biso   1.000  H
  H70      1.0000 0.06130  0.82730  0.27400  Biso   1.000  H
  H71      1.0000 0.56130  0.67270  0.72600  Biso   1.000  H
  H72      1.0000 0.93870  0.32730  0.22600  Biso   1.000  H
