data_image0
_cell_length_a       15.066
_cell_length_b       3.996
_cell_length_c       15.619
_cell_angle_alpha    90
_cell_angle_beta     110.78
_cell_angle_gamma    90

_symmetry_space_group_name_H-M    "P 1"
_symmetry_int_tables_number       1

loop_
  _symmetry_equiv_pos_as_xyz
  'x, y, z'

loop_
  _atom_site_label
  _atom_site_occupancy
  _atom_site_fract_x
  _atom_site_fract_y
  _atom_site_fract_z
  _atom_site_thermal_displace_type
  _atom_site_B_iso_or_equiv
  _atom_site_type_symbol
  Br1      1.0000 0.09147  0.07760  0.20549  Biso   1.000  Br
  Br2      1.0000 0.09147  0.42240  0.70549  Biso   1.000  Br
  Br3      1.0000 0.90853  0.92240  0.79451  Biso   1.000  Br
  Br4      1.0000 0.90853  0.57760  0.29451  Biso   1.000  Br
  Br5      1.0000 0.42687  0.57110  0.81966  Biso   1.000  Br
  Br6      1.0000 0.42687  0.92890  0.31966  Biso   1.000  Br
  Br7      1.0000 0.57313  0.42890  0.18034  Biso   1.000  Br
  Br8      1.0000 0.57313  0.07110  0.68034  Biso   1.000  Br
  Cu1      1.0000 0.47480  0.57120  0.68100  Biso   1.000  Cu
  Cu2      1.0000 0.47480  0.92880  0.18100  Biso   1.000  Cu
  Cu3      1.0000 0.52520  0.42880  0.31900  Biso   1.000  Cu
  Cu4      1.0000 0.52520  0.07120  0.81900  Biso   1.000  Cu
  Cu5      1.0000 0.07460  0.58510  0.29630  Biso   1.000  Cu
  Cu6      1.0000 0.07460  0.91490  0.79630  Biso   1.000  Cu
  Cu7      1.0000 0.92540  0.41490  0.70370  Biso   1.000  Cu
  Cu8      1.0000 0.92540  0.08510  0.20370  Biso   1.000  Cu
  N1       1.0000 0.18980  0.58920  0.41500  Biso   1.000  N
  N2       1.0000 0.18980  0.91080  0.91500  Biso   1.000  N
  N3       1.0000 0.81020  0.41080  0.58500  Biso   1.000  N
  N4       1.0000 0.81020  0.08920  0.08500  Biso   1.000  N
  N5       1.0000 0.35220  0.58190  0.57000  Biso   1.000  N
  N6       1.0000 0.35220  0.91810  0.07000  Biso   1.000  N
  N7       1.0000 0.64780  0.41810  0.43000  Biso   1.000  N
  N8       1.0000 0.64780  0.08190  0.93000  Biso   1.000  N
  C1       1.0000 0.19220  0.73140  0.49460  Biso   1.000  C
  C2       1.0000 0.19220  0.76860  0.99460  Biso   1.000  C
  C3       1.0000 0.80780  0.26860  0.50540  Biso   1.000  C
  C4       1.0000 0.80780  0.23140  0.00540  Biso   1.000  C
  C5       1.0000 0.27490  0.70610  0.57110  Biso   1.000  C
  C6       1.0000 0.27490  0.79390  0.07110  Biso   1.000  C
  C7       1.0000 0.72510  0.29390  0.42890  Biso   1.000  C
  C8       1.0000 0.72510  0.20610  0.92890  Biso   1.000  C
  H1       1.0000 0.27360  0.78520  0.62660  Biso   1.000  H
  H2       1.0000 0.27360  0.71480  0.12660  Biso   1.000  H
  H3       1.0000 0.72640  0.21480  0.37340  Biso   1.000  H
  H4       1.0000 0.72640  0.28520  0.87340  Biso   1.000  H
  C9       1.0000 0.35120  0.43020  0.48840  Biso   1.000  C
  C10      1.0000 0.35120  0.06980  0.98840  Biso   1.000  C
  C11      1.0000 0.64880  0.56980  0.51160  Biso   1.000  C
  C12      1.0000 0.64880  0.93020  0.01160  Biso   1.000  C
  H5       1.0000 0.40520  0.32260  0.48640  Biso   1.000  H
  H6       1.0000 0.40520  0.17740  0.98640  Biso   1.000  H
  H7       1.0000 0.59480  0.67740  0.51360  Biso   1.000  H
  H8       1.0000 0.59480  0.82260  0.01360  Biso   1.000  H
  C13      1.0000 0.27230  0.44110  0.41360  Biso   1.000  C
  C14      1.0000 0.27230  0.05890  0.91360  Biso   1.000  C
  C15      1.0000 0.72770  0.55890  0.58640  Biso   1.000  C
  C16      1.0000 0.72770  0.94110  0.08640  Biso   1.000  C
  H9       1.0000 0.27300  0.34690  0.35940  Biso   1.000  H
  H10      1.0000 0.27300  0.15310  0.85940  Biso   1.000  H
  H11      1.0000 0.72700  0.65310  0.64060  Biso   1.000  H
  H12      1.0000 0.72700  0.84690  0.14060  Biso   1.000  H
  C17      1.0000 0.10940  0.89020  0.49770  Biso   1.000  C
  C18      1.0000 0.10940  0.60980  0.99770  Biso   1.000  C
  C19      1.0000 0.89060  0.10980  0.50230  Biso   1.000  C
  C20      1.0000 0.89060  0.39020  0.00230  Biso   1.000  C
  H13      1.0000 0.12570  0.03100  0.55080  Biso   1.000  H
  H14      1.0000 0.12570  0.46900  0.05080  Biso   1.000  H
  H15      1.0000 0.87430  0.96900  0.44920  Biso   1.000  H
  H16      1.0000 0.87430  0.53100  0.94920  Biso   1.000  H
  H17      1.0000 0.06470  0.72370  0.50100  Biso   1.000  H
  H18      1.0000 0.06470  0.77630  0.00100  Biso   1.000  H
  H19      1.0000 0.93530  0.27630  0.49900  Biso   1.000  H
  H20      1.0000 0.93530  0.22370  0.99900  Biso   1.000  H
  H21      1.0000 0.08160  0.02400  0.44360  Biso   1.000  H
  H22      1.0000 0.08160  0.47600  0.94360  Biso   1.000  H
  H23      1.0000 0.91840  0.97600  0.55640  Biso   1.000  H
  H24      1.0000 0.91840  0.52400  0.05640  Biso   1.000  H
