data_image0
_cell_length_a       7.249
_cell_length_b       9.09
_cell_length_c       12.132
_cell_angle_alpha    90
_cell_angle_beta     90
_cell_angle_gamma    90

_symmetry_space_group_name_H-M    "P 1"
_symmetry_int_tables_number       1

loop_
  _symmetry_equiv_pos_as_xyz
  'x, y, z'

loop_
  _atom_site_label
  _atom_site_occupancy
  _atom_site_fract_x
  _atom_site_fract_y
  _atom_site_fract_z
  _atom_site_thermal_displace_type
  _atom_site_B_iso_or_equiv
  _atom_site_type_symbol
  I1       1.0000 0.22873  0.59681  0.52667  Biso   1.000  I
  I2       1.0000 0.27127  0.40319  0.02667  Biso   1.000  I
  I3       1.0000 0.77127  0.09681  0.97333  Biso   1.000  I
  I4       1.0000 0.72873  0.90319  0.47333  Biso   1.000  I
  Cu1      1.0000 0.53150  0.67176  0.38020  Biso   1.000  Cu
  Cu2      1.0000 0.96850  0.32824  0.88020  Biso   1.000  Cu
  Cu3      1.0000 0.46850  0.17176  0.11980  Biso   1.000  Cu
  Cu4      1.0000 0.03150  0.82824  0.61980  Biso   1.000  Cu
  N1       1.0000 0.71840  0.50290  0.39560  Biso   1.000  N
  N2       1.0000 0.78160  0.49710  0.89560  Biso   1.000  N
  N3       1.0000 0.28160  0.00290  0.10440  Biso   1.000  N
  N4       1.0000 0.21840  0.99710  0.60440  Biso   1.000  N
  N5       1.0000 0.62070  0.26120  0.24750  Biso   1.000  N
  N6       1.0000 0.87930  0.73880  0.74750  Biso   1.000  N
  N7       1.0000 0.37930  0.76120  0.25250  Biso   1.000  N
  N8       1.0000 0.12070  0.23880  0.75250  Biso   1.000  N
  C1       1.0000 0.64350  0.36460  0.43820  Biso   1.000  C
  C2       1.0000 0.85650  0.63540  0.93820  Biso   1.000  C
  C3       1.0000 0.35650  0.86460  0.06180  Biso   1.000  C
  C4       1.0000 0.14350  0.13540  0.56180  Biso   1.000  C
  H1       1.0000 0.57290  0.38340  0.50460  Biso   1.000  H
  H2       1.0000 0.92710  0.61660  0.00460  Biso   1.000  H
  H3       1.0000 0.42710  0.88340  0.99540  Biso   1.000  H
  H4       1.0000 0.07290  0.11660  0.49540  Biso   1.000  H
  H5       1.0000 0.74360  0.29820  0.45660  Biso   1.000  H
  H6       1.0000 0.75640  0.70180  0.95660  Biso   1.000  H
  H7       1.0000 0.25640  0.79820  0.04340  Biso   1.000  H
  H8       1.0000 0.24360  0.20180  0.54340  Biso   1.000  H
  C5       1.0000 0.51800  0.29310  0.35030  Biso   1.000  C
  C6       1.0000 0.98200  0.70690  0.85030  Biso   1.000  C
  C7       1.0000 0.48200  0.79310  0.14970  Biso   1.000  C
  C8       1.0000 0.01800  0.20690  0.64970  Biso   1.000  C
  H9       1.0000 0.46710  0.20240  0.37940  Biso   1.000  H
  H10      1.0000 0.03290  0.79760  0.87940  Biso   1.000  H
  H11      1.0000 0.53290  0.70240  0.12060  Biso   1.000  H
  H12      1.0000 0.96710  0.29760  0.62060  Biso   1.000  H
  H13      1.0000 0.41620  0.35880  0.33390  Biso   1.000  H
  H14      1.0000 0.08380  0.64120  0.83390  Biso   1.000  H
  H15      1.0000 0.58380  0.85880  0.16610  Biso   1.000  H
  H16      1.0000 0.91620  0.14120  0.66610  Biso   1.000  H
  C9       1.0000 0.71510  0.39950  0.21010  Biso   1.000  C
  C10      1.0000 0.78490  0.60050  0.71010  Biso   1.000  C
  C11      1.0000 0.28490  0.89950  0.28990  Biso   1.000  C
  C12      1.0000 0.21510  0.10050  0.78990  Biso   1.000  C
  H17      1.0000 0.62180  0.46950  0.18690  Biso   1.000  H
  H18      1.0000 0.87820  0.53050  0.68690  Biso   1.000  H
  H19      1.0000 0.37820  0.96950  0.31310  Biso   1.000  H
  H20      1.0000 0.12180  0.03050  0.81310  Biso   1.000  H
  H21      1.0000 0.79040  0.37670  0.14620  Biso   1.000  H
  H22      1.0000 0.70960  0.62330  0.64620  Biso   1.000  H
  H23      1.0000 0.20960  0.87670  0.35380  Biso   1.000  H
  H24      1.0000 0.29040  0.12330  0.85380  Biso   1.000  H
  C13      1.0000 0.83580  0.47170  0.29630  Biso   1.000  C
  C14      1.0000 0.66420  0.52830  0.79630  Biso   1.000  C
  C15      1.0000 0.16420  0.97170  0.20370  Biso   1.000  C
  C16      1.0000 0.33580  0.02830  0.70370  Biso   1.000  C
  H25      1.0000 0.93290  0.40220  0.31760  Biso   1.000  H
  H26      1.0000 0.56710  0.59780  0.81760  Biso   1.000  H
  H27      1.0000 0.06710  0.90220  0.18240  Biso   1.000  H
  H28      1.0000 0.43290  0.09780  0.68240  Biso   1.000  H
  C17      1.0000 0.92470  0.60920  0.25540  Biso   1.000  C
  C18      1.0000 0.57530  0.39080  0.75540  Biso   1.000  C
  C19      1.0000 0.07530  0.10920  0.24460  Biso   1.000  C
  C20      1.0000 0.42470  0.89080  0.74460  Biso   1.000  C
  H29      1.0000 0.83120  0.67850  0.23450  Biso   1.000  H
  H30      1.0000 0.66880  0.32150  0.73450  Biso   1.000  H
  H31      1.0000 0.16880  0.17850  0.26550  Biso   1.000  H
  H32      1.0000 0.33120  0.82150  0.76550  Biso   1.000  H
  H33      1.0000 0.00040  0.58680  0.19260  Biso   1.000  H
  H34      1.0000 0.49960  0.41320  0.69260  Biso   1.000  H
  H35      1.0000 0.99960  0.08680  0.30740  Biso   1.000  H
  H36      1.0000 0.50040  0.91320  0.80740  Biso   1.000  H
  H37      1.0000 0.99980  0.65070  0.31270  Biso   1.000  H
  H38      1.0000 0.50020  0.34930  0.81270  Biso   1.000  H
  H39      1.0000 0.00020  0.15070  0.18730  Biso   1.000  H
  H40      1.0000 0.49980  0.84930  0.68730  Biso   1.000  H
