data_image0
_cell_length_a       15.646
_cell_length_b       15.646
_cell_length_c       6.705
_cell_angle_alpha    90
_cell_angle_beta     90
_cell_angle_gamma    90

_symmetry_space_group_name_H-M    "P 1"
_symmetry_int_tables_number       1

loop_
  _symmetry_equiv_pos_as_xyz
  'x, y, z'

loop_
  _atom_site_label
  _atom_site_occupancy
  _atom_site_fract_x
  _atom_site_fract_y
  _atom_site_fract_z
  _atom_site_thermal_displace_type
  _atom_site_B_iso_or_equiv
  _atom_site_type_symbol
  Cu1      1.0000 0.80927  0.19073  0.43030  Biso   1.000  Cu
  Cu2      1.0000 0.80927  0.80927  0.43030  Biso   1.000  Cu
  Cu3      1.0000 0.19073  0.19073  0.43030  Biso   1.000  Cu
  Cu4      1.0000 0.19073  0.80927  0.43030  Biso   1.000  Cu
  Cu5      1.0000 0.30927  0.69073  0.93030  Biso   1.000  Cu
  Cu6      1.0000 0.30927  0.30927  0.93030  Biso   1.000  Cu
  Cu7      1.0000 0.69073  0.69073  0.93030  Biso   1.000  Cu
  Cu8      1.0000 0.69073  0.30927  0.93030  Biso   1.000  Cu
  Br1      1.0000 0.79899  0.20101  0.05630  Biso   1.000  Br
  Br2      1.0000 0.79899  0.79899  0.05630  Biso   1.000  Br
  Br3      1.0000 0.20101  0.20101  0.05630  Biso   1.000  Br
  Br4      1.0000 0.20101  0.79899  0.05630  Biso   1.000  Br
  Br5      1.0000 0.29899  0.70101  0.55630  Biso   1.000  Br
  Br6      1.0000 0.29899  0.29899  0.55630  Biso   1.000  Br
  Br7      1.0000 0.70101  0.70101  0.55630  Biso   1.000  Br
  Br8      1.0000 0.70101  0.29899  0.55630  Biso   1.000  Br
  Br9      1.0000 0.00000  0.38192  0.99710  Biso   1.000  Br
  Br10     1.0000 0.61808  0.00000  0.99710  Biso   1.000  Br
  Br11     1.0000 0.00000  0.61808  0.99710  Biso   1.000  Br
  Br12     1.0000 0.38192  0.00000  0.99710  Biso   1.000  Br
  Br13     1.0000 0.50000  0.88192  0.49710  Biso   1.000  Br
  Br14     1.0000 0.11808  0.50000  0.49710  Biso   1.000  Br
  Br15     1.0000 0.50000  0.11808  0.49710  Biso   1.000  Br
  Br16     1.0000 0.88192  0.50000  0.49710  Biso   1.000  Br
  N1       1.0000 0.92380  0.23690  0.52970  Biso   1.000  N
  N2       1.0000 0.76310  0.92380  0.52970  Biso   1.000  N
  N3       1.0000 0.07620  0.23690  0.52970  Biso   1.000  N
  N4       1.0000 0.07620  0.76310  0.52970  Biso   1.000  N
  N5       1.0000 0.76310  0.07620  0.52970  Biso   1.000  N
  N6       1.0000 0.23690  0.07620  0.52970  Biso   1.000  N
  N7       1.0000 0.92380  0.76310  0.52970  Biso   1.000  N
  N8       1.0000 0.23690  0.92380  0.52970  Biso   1.000  N
  N9       1.0000 0.42380  0.73690  0.02970  Biso   1.000  N
  N10      1.0000 0.26310  0.42380  0.02970  Biso   1.000  N
  N11      1.0000 0.57620  0.73690  0.02970  Biso   1.000  N
  N12      1.0000 0.57620  0.26310  0.02970  Biso   1.000  N
  N13      1.0000 0.26310  0.57620  0.02970  Biso   1.000  N
  N14      1.0000 0.73690  0.57620  0.02970  Biso   1.000  N
  N15      1.0000 0.42380  0.26310  0.02970  Biso   1.000  N
  N16      1.0000 0.73690  0.42380  0.02970  Biso   1.000  N
  N17      1.0000 0.00000  0.16930  0.28440  Biso   1.000  N
  N18      1.0000 0.83070  0.00000  0.28440  Biso   1.000  N
  N19      1.0000 0.00000  0.83070  0.28440  Biso   1.000  N
  N20      1.0000 0.16930  0.00000  0.28440  Biso   1.000  N
  N21      1.0000 0.50000  0.66930  0.78440  Biso   1.000  N
  N22      1.0000 0.33070  0.50000  0.78440  Biso   1.000  N
  N23      1.0000 0.50000  0.33070  0.78440  Biso   1.000  N
  N24      1.0000 0.66930  0.50000  0.78440  Biso   1.000  N
  H1       1.0000 0.94640  0.16690  0.22900  Biso   1.000  H
  H2       1.0000 0.83310  0.94640  0.22900  Biso   1.000  H
  H3       1.0000 0.05360  0.16690  0.22900  Biso   1.000  H
  H4       1.0000 0.05360  0.83310  0.22900  Biso   1.000  H
  H5       1.0000 0.83310  0.05360  0.22900  Biso   1.000  H
  H6       1.0000 0.16690  0.05360  0.22900  Biso   1.000  H
  H7       1.0000 0.94640  0.83310  0.22900  Biso   1.000  H
  H8       1.0000 0.16690  0.94640  0.22900  Biso   1.000  H
  H9       1.0000 0.44640  0.66690  0.72900  Biso   1.000  H
  H10      1.0000 0.33310  0.44640  0.72900  Biso   1.000  H
  H11      1.0000 0.55360  0.66690  0.72900  Biso   1.000  H
  H12      1.0000 0.55360  0.33310  0.72900  Biso   1.000  H
  H13      1.0000 0.33310  0.55360  0.72900  Biso   1.000  H
  H14      1.0000 0.66690  0.55360  0.72900  Biso   1.000  H
  H15      1.0000 0.44640  0.33310  0.72900  Biso   1.000  H
  H16      1.0000 0.66690  0.44640  0.72900  Biso   1.000  H
  C1       1.0000 0.00000  0.21380  0.45010  Biso   1.000  C
  C2       1.0000 0.78620  0.00000  0.45010  Biso   1.000  C
  C3       1.0000 0.00000  0.78620  0.45010  Biso   1.000  C
  C4       1.0000 0.21380  0.00000  0.45010  Biso   1.000  C
  C5       1.0000 0.50000  0.71380  0.95010  Biso   1.000  C
  C6       1.0000 0.28620  0.50000  0.95010  Biso   1.000  C
  C7       1.0000 0.50000  0.28620  0.95010  Biso   1.000  C
  C8       1.0000 0.71380  0.50000  0.95010  Biso   1.000  C
  C9       1.0000 0.92510  0.28500  0.69260  Biso   1.000  C
  C10      1.0000 0.71500  0.92510  0.69260  Biso   1.000  C
  C11      1.0000 0.07490  0.28500  0.69260  Biso   1.000  C
  C12      1.0000 0.07490  0.71500  0.69260  Biso   1.000  C
  C13      1.0000 0.71500  0.07490  0.69260  Biso   1.000  C
  C14      1.0000 0.28500  0.07490  0.69260  Biso   1.000  C
  C15      1.0000 0.92510  0.71500  0.69260  Biso   1.000  C
  C16      1.0000 0.28500  0.92510  0.69260  Biso   1.000  C
  C17      1.0000 0.42510  0.78500  0.19260  Biso   1.000  C
  C18      1.0000 0.21500  0.42510  0.19260  Biso   1.000  C
  C19      1.0000 0.57490  0.78500  0.19260  Biso   1.000  C
  C20      1.0000 0.57490  0.21500  0.19260  Biso   1.000  C
  C21      1.0000 0.21500  0.57490  0.19260  Biso   1.000  C
  C22      1.0000 0.78500  0.57490  0.19260  Biso   1.000  C
  C23      1.0000 0.42510  0.21500  0.19260  Biso   1.000  C
  C24      1.0000 0.78500  0.42510  0.19260  Biso   1.000  C
  H17      1.0000 0.87250  0.30070  0.75310  Biso   1.000  H
  H18      1.0000 0.69930  0.87250  0.75310  Biso   1.000  H
  H19      1.0000 0.12750  0.30070  0.75310  Biso   1.000  H
  H20      1.0000 0.12750  0.69930  0.75310  Biso   1.000  H
  H21      1.0000 0.69930  0.12750  0.75310  Biso   1.000  H
  H22      1.0000 0.30070  0.12750  0.75310  Biso   1.000  H
  H23      1.0000 0.87250  0.69930  0.75310  Biso   1.000  H
  H24      1.0000 0.30070  0.87250  0.75310  Biso   1.000  H
  H25      1.0000 0.37250  0.80070  0.25310  Biso   1.000  H
  H26      1.0000 0.19930  0.37250  0.25310  Biso   1.000  H
  H27      1.0000 0.62750  0.80070  0.25310  Biso   1.000  H
  H28      1.0000 0.62750  0.19930  0.25310  Biso   1.000  H
  H29      1.0000 0.19930  0.62750  0.25310  Biso   1.000  H
  H30      1.0000 0.80070  0.62750  0.25310  Biso   1.000  H
  H31      1.0000 0.37250  0.19930  0.25310  Biso   1.000  H
  H32      1.0000 0.80070  0.37250  0.25310  Biso   1.000  H
  C25      1.0000 0.00000  0.31280  0.77610  Biso   1.000  C
  C26      1.0000 0.68720  0.00000  0.77610  Biso   1.000  C
  C27      1.0000 0.00000  0.68720  0.77610  Biso   1.000  C
  C28      1.0000 0.31280  0.00000  0.77610  Biso   1.000  C
  C29      1.0000 0.50000  0.81280  0.27610  Biso   1.000  C
  C30      1.0000 0.18720  0.50000  0.27610  Biso   1.000  C
  C31      1.0000 0.50000  0.18720  0.27610  Biso   1.000  C
  C32      1.0000 0.81280  0.50000  0.27610  Biso   1.000  C
  O1       1.0000 0.93260  0.06740  0.91000  Biso   1.000  O
  O2       1.0000 0.93260  0.93260  0.91000  Biso   1.000  O
  O3       1.0000 0.06740  0.06740  0.91000  Biso   1.000  O
  O4       1.0000 0.06740  0.93260  0.91000  Biso   1.000  O
  O5       1.0000 0.43260  0.56740  0.41000  Biso   1.000  O
  O6       1.0000 0.43260  0.43260  0.41000  Biso   1.000  O
  O7       1.0000 0.56740  0.56740  0.41000  Biso   1.000  O
  O8       1.0000 0.56740  0.43260  0.41000  Biso   1.000  O
  O9       1.0000 0.96830  0.03170  0.79200  Biso   1.000  O
  O10      1.0000 0.96830  0.96830  0.79200  Biso   1.000  O
  O11      1.0000 0.03170  0.03170  0.79200  Biso   1.000  O
  O12      1.0000 0.03170  0.96830  0.79200  Biso   1.000  O
  O13      1.0000 0.46830  0.53170  0.29200  Biso   1.000  O
  O14      1.0000 0.46830  0.46830  0.29200  Biso   1.000  O
  O15      1.0000 0.53170  0.53170  0.29200  Biso   1.000  O
  O16      1.0000 0.53170  0.46830  0.29200  Biso   1.000  O
