data_image0
_cell_length_a       9.533
_cell_length_b       15.5
_cell_length_c       8.885
_cell_angle_alpha    90
_cell_angle_beta     113.71
_cell_angle_gamma    90

_symmetry_space_group_name_H-M    "P 1"
_symmetry_int_tables_number       1

loop_
  _symmetry_equiv_pos_as_xyz
  'x, y, z'

loop_
  _atom_site_label
  _atom_site_occupancy
  _atom_site_fract_x
  _atom_site_fract_y
  _atom_site_fract_z
  _atom_site_thermal_displace_type
  _atom_site_B_iso_or_equiv
  _atom_site_type_symbol
  Br1      1.0000 0.73842  0.10265  0.74896  Biso   1.000  Br
  Br2      1.0000 0.26158  0.60265  0.75104  Biso   1.000  Br
  Br3      1.0000 0.26158  0.89735  0.25104  Biso   1.000  Br
  Br4      1.0000 0.73842  0.39735  0.24896  Biso   1.000  Br
  Cu1      1.0000 0.56026  0.16284  0.47502  Biso   1.000  Cu
  Cu2      1.0000 0.43974  0.66284  0.02498  Biso   1.000  Cu
  Cu3      1.0000 0.43974  0.83716  0.52498  Biso   1.000  Cu
  Cu4      1.0000 0.56026  0.33716  0.97502  Biso   1.000  Cu
  N1       1.0000 0.42880  0.27790  0.49350  Biso   1.000  N
  N2       1.0000 0.57120  0.77790  0.00650  Biso   1.000  N
  N3       1.0000 0.57120  0.72210  0.50650  Biso   1.000  N
  N4       1.0000 0.42880  0.22210  0.99350  Biso   1.000  N
  C1       1.0000 0.27800  0.26670  0.39810  Biso   1.000  C
  C2       1.0000 0.72200  0.76670  0.10190  Biso   1.000  C
  C3       1.0000 0.72200  0.73330  0.60190  Biso   1.000  C
  C4       1.0000 0.27800  0.23330  0.89810  Biso   1.000  C
  N5       1.0000 0.33780  0.11010  0.40910  Biso   1.000  N
  N6       1.0000 0.66220  0.61010  0.09090  Biso   1.000  N
  N7       1.0000 0.66220  0.88990  0.59090  Biso   1.000  N
  N8       1.0000 0.33780  0.38990  0.90910  Biso   1.000  N
  H1       1.0000 0.32000  0.06400  0.34500  Biso   1.000  H
  H2       1.0000 0.68000  0.56400  0.15500  Biso   1.000  H
  H3       1.0000 0.68000  0.93600  0.65500  Biso   1.000  H
  H4       1.0000 0.32000  0.43600  0.84500  Biso   1.000  H
  C5       1.0000 0.17110  0.33300  0.37100  Biso   1.000  C
  C6       1.0000 0.82890  0.83300  0.12900  Biso   1.000  C
  C7       1.0000 0.82890  0.66700  0.62900  Biso   1.000  C
  C8       1.0000 0.17110  0.16700  0.87100  Biso   1.000  C
  H5       1.0000 0.06590  0.32290  0.30440  Biso   1.000  H
  H6       1.0000 0.93410  0.82290  0.19560  Biso   1.000  H
  H7       1.0000 0.93410  0.67710  0.69560  Biso   1.000  H
  H8       1.0000 0.06590  0.17710  0.80440  Biso   1.000  H
  N9       1.0000 0.68180  0.31380  0.83190  Biso   1.000  N
  N10      1.0000 0.31820  0.81380  0.66810  Biso   1.000  N
  N11      1.0000 0.31820  0.68620  0.16810  Biso   1.000  N
  N12      1.0000 0.68180  0.18620  0.33190  Biso   1.000  N
  H9       1.0000 0.66300  0.25700  0.80500  Biso   1.000  H
  H10      1.0000 0.33700  0.75700  0.69500  Biso   1.000  H
  H11      1.0000 0.33700  0.74300  0.19500  Biso   1.000  H
  H12      1.0000 0.66300  0.24300  0.30500  Biso   1.000  H
  C9       1.0000 0.21870  0.41360  0.44140  Biso   1.000  C
  C10      1.0000 0.78130  0.91360  0.05860  Biso   1.000  C
  C11      1.0000 0.78130  0.58640  0.55860  Biso   1.000  C
  C12      1.0000 0.21870  0.08640  0.94140  Biso   1.000  C
  H13      1.0000 0.14790  0.45960  0.42270  Biso   1.000  H
  H14      1.0000 0.85210  0.95960  0.07730  Biso   1.000  H
  H15      1.0000 0.85210  0.54040  0.57730  Biso   1.000  H
  H16      1.0000 0.14790  0.04040  0.92270  Biso   1.000  H
  C13      1.0000 0.37430  0.42480  0.54050  Biso   1.000  C
  C14      1.0000 0.62570  0.92480  0.95950  Biso   1.000  C
  C15      1.0000 0.62570  0.57520  0.45950  Biso   1.000  C
  C16      1.0000 0.37430  0.07520  0.04050  Biso   1.000  C
  H17      1.0000 0.41100  0.47910  0.59010  Biso   1.000  H
  H18      1.0000 0.58900  0.97910  0.90990  Biso   1.000  H
  H19      1.0000 0.58900  0.52090  0.40990  Biso   1.000  H
  H20      1.0000 0.41100  0.02090  0.09010  Biso   1.000  H
  C17      1.0000 0.47510  0.35600  0.56620  Biso   1.000  C
  C18      1.0000 0.52490  0.85600  0.93380  Biso   1.000  C
  C19      1.0000 0.52490  0.64400  0.43380  Biso   1.000  C
  C20      1.0000 0.47510  0.14400  0.06620  Biso   1.000  C
  C21      1.0000 0.23230  0.17920  0.31590  Biso   1.000  C
  C22      1.0000 0.76770  0.67920  0.18410  Biso   1.000  C
  C23      1.0000 0.76770  0.82080  0.68410  Biso   1.000  C
  C24      1.0000 0.23230  0.32080  0.81590  Biso   1.000  C
  H21      1.0000 0.12740  0.16510  0.30510  Biso   1.000  H
  H22      1.0000 0.87260  0.66510  0.19490  Biso   1.000  H
  H23      1.0000 0.87260  0.83490  0.69490  Biso   1.000  H
  H24      1.0000 0.12740  0.33490  0.80510  Biso   1.000  H
  H25      1.0000 0.23080  0.18220  0.20400  Biso   1.000  H
  H26      1.0000 0.76920  0.68220  0.29600  Biso   1.000  H
  H27      1.0000 0.76920  0.81780  0.79600  Biso   1.000  H
  H28      1.0000 0.23080  0.31780  0.70400  Biso   1.000  H
  C25      1.0000 0.64370  0.36420  0.67820  Biso   1.000  C
  C26      1.0000 0.35630  0.86420  0.82180  Biso   1.000  C
  C27      1.0000 0.35630  0.63580  0.32180  Biso   1.000  C
  C28      1.0000 0.64370  0.13580  0.17820  Biso   1.000  C
  H29      1.0000 0.70630  0.34310  0.61980  Biso   1.000  H
  H30      1.0000 0.29370  0.84310  0.88020  Biso   1.000  H
  H31      1.0000 0.29370  0.65690  0.38020  Biso   1.000  H
  H32      1.0000 0.70630  0.15690  0.11980  Biso   1.000  H
  H33      1.0000 0.66910  0.42570  0.70590  Biso   1.000  H
  H34      1.0000 0.33090  0.92570  0.79410  Biso   1.000  H
  H35      1.0000 0.33090  0.57430  0.29410  Biso   1.000  H
  H36      1.0000 0.66910  0.07430  0.20590  Biso   1.000  H
  C29      1.0000 0.30870  0.08220  0.55380  Biso   1.000  C
  C30      1.0000 0.69130  0.58220  0.94620  Biso   1.000  C
  C31      1.0000 0.69130  0.91780  0.44620  Biso   1.000  C
  C32      1.0000 0.30870  0.41780  0.05380  Biso   1.000  C
  H37      1.0000 0.20120  0.06490  0.51790  Biso   1.000  H
  H38      1.0000 0.79880  0.56490  0.98210  Biso   1.000  H
  H39      1.0000 0.79880  0.93510  0.48210  Biso   1.000  H
  H40      1.0000 0.20120  0.43510  0.01790  Biso   1.000  H
  H41      1.0000 0.33040  0.13010  0.63190  Biso   1.000  H
  H42      1.0000 0.66960  0.63010  0.86810  Biso   1.000  H
  H43      1.0000 0.66960  0.86990  0.36810  Biso   1.000  H
  H44      1.0000 0.33040  0.36990  0.13190  Biso   1.000  H
  H45      1.0000 0.37520  0.03330  0.60700  Biso   1.000  H
  H46      1.0000 0.62480  0.53330  0.89300  Biso   1.000  H
  H47      1.0000 0.62480  0.96670  0.39300  Biso   1.000  H
  H48      1.0000 0.37520  0.46670  0.10700  Biso   1.000  H
  C33      1.0000 0.85150  0.31790  0.93200  Biso   1.000  C
  C34      1.0000 0.14850  0.81790  0.56800  Biso   1.000  C
  C35      1.0000 0.14850  0.68210  0.06800  Biso   1.000  C
  C36      1.0000 0.85150  0.18210  0.43200  Biso   1.000  C
  H49      1.0000 0.87840  0.28040  0.02840  Biso   1.000  H
  H50      1.0000 0.12160  0.78040  0.47160  Biso   1.000  H
  H51      1.0000 0.12160  0.71960  0.97160  Biso   1.000  H
  H52      1.0000 0.87840  0.21960  0.52840  Biso   1.000  H
  H53      1.0000 0.88120  0.37740  0.96810  Biso   1.000  H
  H54      1.0000 0.11880  0.87740  0.53190  Biso   1.000  H
  H55      1.0000 0.11880  0.62260  0.03190  Biso   1.000  H
  H56      1.0000 0.88120  0.12260  0.46810  Biso   1.000  H
  H57      1.0000 0.90580  0.29850  0.86500  Biso   1.000  H
  H58      1.0000 0.09420  0.79850  0.63500  Biso   1.000  H
  H59      1.0000 0.09420  0.70150  0.13500  Biso   1.000  H
  H60      1.0000 0.90580  0.20150  0.36500  Biso   1.000  H
  O1       1.0000 0.93450  0.16190  0.02650  Biso   1.000  O
  O2       1.0000 0.06550  0.66190  0.47350  Biso   1.000  O
  O3       1.0000 0.06550  0.83810  0.97350  Biso   1.000  O
  O4       1.0000 0.93450  0.33810  0.52650  Biso   1.000  O
