data_image0
_cell_length_a       12.7525
_cell_length_b       18.711
_cell_length_c       14.771
_cell_angle_alpha    90
_cell_angle_beta     90
_cell_angle_gamma    90

_symmetry_space_group_name_H-M    "P 1"
_symmetry_int_tables_number       1

loop_
  _symmetry_equiv_pos_as_xyz
  'x, y, z'

loop_
  _atom_site_label
  _atom_site_occupancy
  _atom_site_fract_x
  _atom_site_fract_y
  _atom_site_fract_z
  _atom_site_thermal_displace_type
  _atom_site_B_iso_or_equiv
  _atom_site_type_symbol
  Cu1      1.0000 0.82818  0.41119  0.14832  Biso   1.000  Cu
  Cu2      1.0000 0.67182  0.08881  0.64832  Biso   1.000  Cu
  Cu3      1.0000 0.17182  0.41119  0.35168  Biso   1.000  Cu
  Cu4      1.0000 0.32818  0.08881  0.85168  Biso   1.000  Cu
  Cu5      1.0000 0.17182  0.58881  0.85168  Biso   1.000  Cu
  Cu6      1.0000 0.32818  0.91119  0.35168  Biso   1.000  Cu
  Cu7      1.0000 0.82818  0.58881  0.64832  Biso   1.000  Cu
  Cu8      1.0000 0.67182  0.91119  0.14832  Biso   1.000  Cu
  Cu9      1.0000 0.18585  0.15200  0.33157  Biso   1.000  Cu
  Cu10     1.0000 0.31415  0.34800  0.83157  Biso   1.000  Cu
  Cu11     1.0000 0.81415  0.15200  0.16843  Biso   1.000  Cu
  Cu12     1.0000 0.68585  0.34800  0.66843  Biso   1.000  Cu
  Cu13     1.0000 0.81415  0.84800  0.66843  Biso   1.000  Cu
  Cu14     1.0000 0.68585  0.65200  0.16843  Biso   1.000  Cu
  Cu15     1.0000 0.18585  0.84800  0.83157  Biso   1.000  Cu
  Cu16     1.0000 0.31415  0.65200  0.33157  Biso   1.000  Cu
  C1       1.0000 0.04630  0.38100  0.08830  Biso   1.000  C
  C2       1.0000 0.45370  0.11900  0.58830  Biso   1.000  C
  C3       1.0000 0.95370  0.38100  0.41170  Biso   1.000  C
  C4       1.0000 0.54630  0.11900  0.91170  Biso   1.000  C
  C5       1.0000 0.95370  0.61900  0.91170  Biso   1.000  C
  C6       1.0000 0.54630  0.88100  0.41170  Biso   1.000  C
  C7       1.0000 0.04630  0.61900  0.58830  Biso   1.000  C
  C8       1.0000 0.45370  0.88100  0.08830  Biso   1.000  C
  H1       1.0000 0.01370  0.33890  0.07040  Biso   1.000  H
  H2       1.0000 0.48630  0.16110  0.57040  Biso   1.000  H
  H3       1.0000 0.98630  0.33890  0.42960  Biso   1.000  H
  H4       1.0000 0.51370  0.16110  0.92960  Biso   1.000  H
  H5       1.0000 0.98630  0.66110  0.92960  Biso   1.000  H
  H6       1.0000 0.51370  0.83890  0.42960  Biso   1.000  H
  H7       1.0000 0.01370  0.66110  0.57040  Biso   1.000  H
  H8       1.0000 0.48630  0.83890  0.07040  Biso   1.000  H
  C9       1.0000 0.14090  0.39790  0.05070  Biso   1.000  C
  C10      1.0000 0.35910  0.10210  0.55070  Biso   1.000  C
  C11      1.0000 0.85910  0.39790  0.44930  Biso   1.000  C
  C12      1.0000 0.64090  0.10210  0.94930  Biso   1.000  C
  C13      1.0000 0.85910  0.60210  0.94930  Biso   1.000  C
  C14      1.0000 0.64090  0.89790  0.44930  Biso   1.000  C
  C15      1.0000 0.14090  0.60210  0.55070  Biso   1.000  C
  C16      1.0000 0.35910  0.89790  0.05070  Biso   1.000  C
  H9       1.0000 0.17260  0.36760  0.00890  Biso   1.000  H
  H10      1.0000 0.32740  0.13240  0.50890  Biso   1.000  H
  H11      1.0000 0.82740  0.36760  0.49110  Biso   1.000  H
  H12      1.0000 0.67260  0.13240  0.99110  Biso   1.000  H
  H13      1.0000 0.82740  0.63240  0.99110  Biso   1.000  H
  H14      1.0000 0.67260  0.86760  0.49110  Biso   1.000  H
  H15      1.0000 0.17260  0.63240  0.50890  Biso   1.000  H
  H16      1.0000 0.32740  0.86760  0.00890  Biso   1.000  H
  C17      1.0000 0.18820  0.46100  0.07610  Biso   1.000  C
  C18      1.0000 0.31180  0.03900  0.57610  Biso   1.000  C
  C19      1.0000 0.81180  0.46100  0.42390  Biso   1.000  C
  C20      1.0000 0.68820  0.03900  0.92390  Biso   1.000  C
  C21      1.0000 0.81180  0.53900  0.92390  Biso   1.000  C
  C22      1.0000 0.68820  0.96100  0.42390  Biso   1.000  C
  C23      1.0000 0.18820  0.53900  0.57610  Biso   1.000  C
  C24      1.0000 0.31180  0.96100  0.07610  Biso   1.000  C
  H17      1.0000 0.25000  0.47560  0.04820  Biso   1.000  H
  H18      1.0000 0.25000  0.02440  0.54820  Biso   1.000  H
  H19      1.0000 0.75000  0.47560  0.45180  Biso   1.000  H
  H20      1.0000 0.75000  0.02440  0.95180  Biso   1.000  H
  H21      1.0000 0.75000  0.52440  0.95180  Biso   1.000  H
  H22      1.0000 0.75000  0.97560  0.45180  Biso   1.000  H
  H23      1.0000 0.25000  0.52440  0.54820  Biso   1.000  H
  H24      1.0000 0.25000  0.97560  0.04820  Biso   1.000  H
  C25      1.0000 0.14390  0.50190  0.14230  Biso   1.000  C
  C26      1.0000 0.35610  0.99810  0.64230  Biso   1.000  C
  C27      1.0000 0.85610  0.50190  0.35770  Biso   1.000  C
  C28      1.0000 0.64390  0.99810  0.85770  Biso   1.000  C
  C29      1.0000 0.85610  0.49810  0.85770  Biso   1.000  C
  C30      1.0000 0.64390  0.00190  0.35770  Biso   1.000  C
  C31      1.0000 0.14390  0.49810  0.64230  Biso   1.000  C
  C32      1.0000 0.35610  0.00190  0.14230  Biso   1.000  C
  H25      1.0000 0.17690  0.54320  0.16240  Biso   1.000  H
  H26      1.0000 0.32310  0.95680  0.66240  Biso   1.000  H
  H27      1.0000 0.82310  0.54320  0.33760  Biso   1.000  H
  H28      1.0000 0.67690  0.95680  0.83760  Biso   1.000  H
  H29      1.0000 0.82310  0.45680  0.83760  Biso   1.000  H
  H30      1.0000 0.67690  0.04320  0.33760  Biso   1.000  H
  H31      1.0000 0.17690  0.45680  0.66240  Biso   1.000  H
  H32      1.0000 0.32310  0.04320  0.16240  Biso   1.000  H
  C33      1.0000 0.04880  0.48080  0.17900  Biso   1.000  C
  C34      1.0000 0.45120  0.01920  0.67900  Biso   1.000  C
  C35      1.0000 0.95120  0.48080  0.32100  Biso   1.000  C
  C36      1.0000 0.54880  0.01920  0.82100  Biso   1.000  C
  C37      1.0000 0.95120  0.51920  0.82100  Biso   1.000  C
  C38      1.0000 0.54880  0.98080  0.32100  Biso   1.000  C
  C39      1.0000 0.04880  0.51920  0.67900  Biso   1.000  C
  C40      1.0000 0.45120  0.98080  0.17900  Biso   1.000  C
  C41      1.0000 0.00000  0.59560  0.25000  Biso   1.000  C
  C42      1.0000 0.50000  0.90440  0.75000  Biso   1.000  C
  C43      1.0000 0.00000  0.40440  0.75000  Biso   1.000  C
  C44      1.0000 0.50000  0.09560  0.25000  Biso   1.000  C
  C45      1.0000 0.00140  0.63360  0.33040  Biso   1.000  C
  C46      1.0000 0.49860  0.86640  0.83040  Biso   1.000  C
  C47      1.0000 0.99860  0.63360  0.16960  Biso   1.000  C
  C48      1.0000 0.50140  0.86640  0.66960  Biso   1.000  C
  C49      1.0000 0.99860  0.36640  0.66960  Biso   1.000  C
  C50      1.0000 0.50140  0.13360  0.16960  Biso   1.000  C
  C51      1.0000 0.00140  0.36640  0.83040  Biso   1.000  C
  C52      1.0000 0.49860  0.13360  0.33040  Biso   1.000  C
  H33      1.0000 0.00390  0.60920  0.38520  Biso   1.000  H
  H34      1.0000 0.49610  0.89080  0.88520  Biso   1.000  H
  H35      1.0000 0.99610  0.60920  0.11480  Biso   1.000  H
  H36      1.0000 0.50390  0.89080  0.61480  Biso   1.000  H
  H37      1.0000 0.99610  0.39080  0.61480  Biso   1.000  H
  H38      1.0000 0.50390  0.10920  0.11480  Biso   1.000  H
  H39      1.0000 0.00390  0.39080  0.88520  Biso   1.000  H
  H40      1.0000 0.49610  0.10920  0.38520  Biso   1.000  H
  C53      1.0000 0.99910  0.70740  0.33000  Biso   1.000  C
  C54      1.0000 0.50090  0.79260  0.83000  Biso   1.000  C
  C55      1.0000 0.00090  0.70740  0.17000  Biso   1.000  C
  C56      1.0000 0.49910  0.79260  0.67000  Biso   1.000  C
  C57      1.0000 0.00090  0.29260  0.67000  Biso   1.000  C
  C58      1.0000 0.49910  0.20740  0.17000  Biso   1.000  C
  C59      1.0000 0.99910  0.29260  0.83000  Biso   1.000  C
  C60      1.0000 0.50090  0.20740  0.33000  Biso   1.000  C
  H41      1.0000 0.99700  0.73180  0.38490  Biso   1.000  H
  H42      1.0000 0.50300  0.76820  0.88490  Biso   1.000  H
  H43      1.0000 0.00300  0.73180  0.11510  Biso   1.000  H
  H44      1.0000 0.49700  0.76820  0.61510  Biso   1.000  H
  H45      1.0000 0.00300  0.26820  0.61510  Biso   1.000  H
  H46      1.0000 0.49700  0.23180  0.11510  Biso   1.000  H
  H47      1.0000 0.99700  0.26820  0.88490  Biso   1.000  H
  H48      1.0000 0.50300  0.23180  0.38490  Biso   1.000  H
  C61      1.0000 0.00000  0.74580  0.25000  Biso   1.000  C
  C62      1.0000 0.50000  0.75420  0.75000  Biso   1.000  C
  C63      1.0000 0.00000  0.25420  0.75000  Biso   1.000  C
  C64      1.0000 0.50000  0.24580  0.25000  Biso   1.000  C
  C65      1.0000 0.00000  0.82530  0.25000  Biso   1.000  C
  C66      1.0000 0.50000  0.67470  0.75000  Biso   1.000  C
  C67      1.0000 0.00000  0.17470  0.75000  Biso   1.000  C
  C68      1.0000 0.50000  0.32530  0.25000  Biso   1.000  C
  C69      1.0000 0.92010  0.86320  0.29050  Biso   1.000  C
  C70      1.0000 0.57990  0.63680  0.79050  Biso   1.000  C
  C71      1.0000 0.07990  0.86320  0.20950  Biso   1.000  C
  C72      1.0000 0.42010  0.63680  0.70950  Biso   1.000  C
  C73      1.0000 0.07990  0.13680  0.70950  Biso   1.000  C
  C74      1.0000 0.42010  0.36320  0.20950  Biso   1.000  C
  C75      1.0000 0.92010  0.13680  0.79050  Biso   1.000  C
  C76      1.0000 0.57990  0.36320  0.29050  Biso   1.000  C
  H49      1.0000 0.86610  0.83880  0.31930  Biso   1.000  H
  H50      1.0000 0.63390  0.66120  0.81930  Biso   1.000  H
  H51      1.0000 0.13390  0.83880  0.18070  Biso   1.000  H
  H52      1.0000 0.36610  0.66120  0.68070  Biso   1.000  H
  H53      1.0000 0.13390  0.16120  0.68070  Biso   1.000  H
  H54      1.0000 0.36610  0.33880  0.18070  Biso   1.000  H
  H55      1.0000 0.86610  0.16120  0.81930  Biso   1.000  H
  H56      1.0000 0.63390  0.33880  0.31930  Biso   1.000  H
  C77      1.0000 0.91930  0.93750  0.28890  Biso   1.000  C
  C78      1.0000 0.58070  0.56250  0.78890  Biso   1.000  C
  C79      1.0000 0.08070  0.93750  0.21110  Biso   1.000  C
  C80      1.0000 0.41930  0.56250  0.71110  Biso   1.000  C
  C81      1.0000 0.08070  0.06250  0.71110  Biso   1.000  C
  C82      1.0000 0.41930  0.43750  0.21110  Biso   1.000  C
  C83      1.0000 0.91930  0.06250  0.78890  Biso   1.000  C
  C84      1.0000 0.58070  0.43750  0.28890  Biso   1.000  C
  H57      1.0000 0.86330  0.96200  0.31460  Biso   1.000  H
  H58      1.0000 0.63670  0.53800  0.81460  Biso   1.000  H
  H59      1.0000 0.13670  0.96200  0.18540  Biso   1.000  H
  H60      1.0000 0.36330  0.53800  0.68540  Biso   1.000  H
  H61      1.0000 0.13670  0.03800  0.68540  Biso   1.000  H
  H62      1.0000 0.36330  0.46200  0.18540  Biso   1.000  H
  H63      1.0000 0.86330  0.03800  0.81460  Biso   1.000  H
  H64      1.0000 0.63670  0.46200  0.31460  Biso   1.000  H
  C85      1.0000 0.00000  0.97510  0.25000  Biso   1.000  C
  C86      1.0000 0.50000  0.52490  0.75000  Biso   1.000  C
  C87      1.0000 0.00000  0.02490  0.75000  Biso   1.000  C
  C88      1.0000 0.50000  0.47510  0.25000  Biso   1.000  C
  C89      1.0000 0.04510  0.08990  0.17740  Biso   1.000  C
  C90      1.0000 0.45490  0.41010  0.67740  Biso   1.000  C
  C91      1.0000 0.95490  0.08990  0.32260  Biso   1.000  C
  C92      1.0000 0.54510  0.41010  0.82260  Biso   1.000  C
  C93      1.0000 0.95490  0.91010  0.82260  Biso   1.000  C
  C94      1.0000 0.54510  0.58990  0.32260  Biso   1.000  C
  C95      1.0000 0.04510  0.91010  0.67740  Biso   1.000  C
  C96      1.0000 0.45490  0.58990  0.17740  Biso   1.000  C
  C97      1.0000 0.02360  0.07310  0.08760  Biso   1.000  C
  C98      1.0000 0.47640  0.42690  0.58760  Biso   1.000  C
  C99      1.0000 0.97640  0.07310  0.41240  Biso   1.000  C
  C100     1.0000 0.52360  0.42690  0.91240  Biso   1.000  C
  C101     1.0000 0.97640  0.92690  0.91240  Biso   1.000  C
  C102     1.0000 0.52360  0.57310  0.41240  Biso   1.000  C
  C103     1.0000 0.02360  0.92690  0.58760  Biso   1.000  C
  C104     1.0000 0.47640  0.57310  0.08760  Biso   1.000  C
  H65      1.0000 0.97870  0.03570  0.07310  Biso   1.000  H
  H66      1.0000 0.52130  0.46430  0.57310  Biso   1.000  H
  H67      1.0000 0.02130  0.03570  0.42690  Biso   1.000  H
  H68      1.0000 0.47870  0.46430  0.92690  Biso   1.000  H
  H69      1.0000 0.02130  0.96430  0.92690  Biso   1.000  H
  H70      1.0000 0.47870  0.53570  0.42690  Biso   1.000  H
  H71      1.0000 0.97870  0.96430  0.57310  Biso   1.000  H
  H72      1.0000 0.52130  0.53570  0.07310  Biso   1.000  H
  C105     1.0000 0.07050  0.11320  0.02070  Biso   1.000  C
  C106     1.0000 0.42950  0.38680  0.52070  Biso   1.000  C
  C107     1.0000 0.92950  0.11320  0.47930  Biso   1.000  C
  C108     1.0000 0.57050  0.38680  0.97930  Biso   1.000  C
  C109     1.0000 0.92950  0.88680  0.97930  Biso   1.000  C
  C110     1.0000 0.57050  0.61320  0.47930  Biso   1.000  C
  C111     1.0000 0.07050  0.88680  0.52070  Biso   1.000  C
  C112     1.0000 0.42950  0.61320  0.02070  Biso   1.000  C
  H73      1.0000 0.05950  0.10210  0.96010  Biso   1.000  H
  H74      1.0000 0.44050  0.39790  0.46010  Biso   1.000  H
  H75      1.0000 0.94050  0.10210  0.53990  Biso   1.000  H
  H76      1.0000 0.55950  0.39790  0.03990  Biso   1.000  H
  H77      1.0000 0.94050  0.89790  0.03990  Biso   1.000  H
  H78      1.0000 0.55950  0.60210  0.53990  Biso   1.000  H
  H79      1.0000 0.05950  0.89790  0.46010  Biso   1.000  H
  H80      1.0000 0.44050  0.60210  0.96010  Biso   1.000  H
  C113     1.0000 0.13340  0.16940  0.04430  Biso   1.000  C
  C114     1.0000 0.36660  0.33060  0.54430  Biso   1.000  C
  C115     1.0000 0.86660  0.16940  0.45570  Biso   1.000  C
  C116     1.0000 0.63340  0.33060  0.95570  Biso   1.000  C
  C117     1.0000 0.86660  0.83060  0.95570  Biso   1.000  C
  C118     1.0000 0.63340  0.66940  0.45570  Biso   1.000  C
  C119     1.0000 0.13340  0.83060  0.54430  Biso   1.000  C
  C120     1.0000 0.36660  0.66940  0.04430  Biso   1.000  C
  H81      1.0000 0.16480  0.19770  0.00020  Biso   1.000  H
  H82      1.0000 0.33520  0.30230  0.50020  Biso   1.000  H
  H83      1.0000 0.83520  0.19770  0.49980  Biso   1.000  H
  H84      1.0000 0.66480  0.30230  0.99980  Biso   1.000  H
  H85      1.0000 0.83520  0.80230  0.99980  Biso   1.000  H
  H86      1.0000 0.66480  0.69770  0.49980  Biso   1.000  H
  H87      1.0000 0.16480  0.80230  0.50020  Biso   1.000  H
  H88      1.0000 0.33520  0.69770  0.00020  Biso   1.000  H
  C121     1.0000 0.14900  0.18280  0.13430  Biso   1.000  C
  C122     1.0000 0.35100  0.31720  0.63430  Biso   1.000  C
  C123     1.0000 0.85100  0.18280  0.36570  Biso   1.000  C
  C124     1.0000 0.64900  0.31720  0.86570  Biso   1.000  C
  C125     1.0000 0.85100  0.81720  0.86570  Biso   1.000  C
  C126     1.0000 0.64900  0.68280  0.36570  Biso   1.000  C
  C127     1.0000 0.14900  0.81720  0.63430  Biso   1.000  C
  C128     1.0000 0.35100  0.68280  0.13430  Biso   1.000  C
  H89      1.0000 0.19050  0.22180  0.14990  Biso   1.000  H
  H90      1.0000 0.30950  0.27820  0.64990  Biso   1.000  H
  H91      1.0000 0.80950  0.22180  0.35010  Biso   1.000  H
  H92      1.0000 0.69050  0.27820  0.85010  Biso   1.000  H
  H93      1.0000 0.80950  0.77820  0.85010  Biso   1.000  H
  H94      1.0000 0.69050  0.72180  0.35010  Biso   1.000  H
  H95      1.0000 0.19050  0.77820  0.64990  Biso   1.000  H
  H96      1.0000 0.30950  0.72180  0.14990  Biso   1.000  H
  C129     1.0000 0.81450  0.31300  0.14330  Biso   1.000  C
  C130     1.0000 0.68550  0.18700  0.64330  Biso   1.000  C
  C131     1.0000 0.18550  0.31300  0.35670  Biso   1.000  C
  C132     1.0000 0.31450  0.18700  0.85670  Biso   1.000  C
  C133     1.0000 0.18550  0.68700  0.85670  Biso   1.000  C
  C134     1.0000 0.31450  0.81300  0.35670  Biso   1.000  C
  C135     1.0000 0.81450  0.68700  0.64330  Biso   1.000  C
  C136     1.0000 0.68550  0.81300  0.14330  Biso   1.000  C
  C137     1.0000 0.76710  0.50180  0.14530  Biso   1.000  C
  C138     1.0000 0.73290  0.99820  0.64530  Biso   1.000  C
  C139     1.0000 0.23290  0.50180  0.35470  Biso   1.000  C
  C140     1.0000 0.26710  0.99820  0.85470  Biso   1.000  C
  C141     1.0000 0.23290  0.49820  0.85470  Biso   1.000  C
  C142     1.0000 0.26710  0.00180  0.35470  Biso   1.000  C
  C143     1.0000 0.76710  0.49820  0.64530  Biso   1.000  C
  C144     1.0000 0.73290  0.00180  0.14530  Biso   1.000  C
  N1       1.0000 0.99770  0.42271  0.15040  Biso   1.000  N
  N2       1.0000 0.50230  0.07729  0.65040  Biso   1.000  N
  N3       1.0000 0.00230  0.42271  0.34960  Biso   1.000  N
  N4       1.0000 0.49770  0.07729  0.84960  Biso   1.000  N
  N5       1.0000 0.00230  0.57729  0.84960  Biso   1.000  N
  N6       1.0000 0.49770  0.92271  0.34960  Biso   1.000  N
  N7       1.0000 0.99770  0.57729  0.65040  Biso   1.000  N
  N8       1.0000 0.50230  0.92271  0.15040  Biso   1.000  N
  N9       1.0000 0.00000  0.51950  0.25000  Biso   1.000  N
  N10      1.0000 0.50000  0.98050  0.75000  Biso   1.000  N
  N11      1.0000 0.00000  0.48050  0.75000  Biso   1.000  N
  N12      1.0000 0.50000  0.01950  0.25000  Biso   1.000  N
  N13      1.0000 0.00000  0.05130  0.25000  Biso   1.000  N
  N14      1.0000 0.50000  0.44870  0.75000  Biso   1.000  N
  N15      1.0000 0.00000  0.94870  0.75000  Biso   1.000  N
  N16      1.0000 0.50000  0.55130  0.25000  Biso   1.000  N
  N17      1.0000 0.10820  0.14352  0.20140  Biso   1.000  N
  N18      1.0000 0.39180  0.35648  0.70140  Biso   1.000  N
  N19      1.0000 0.89180  0.14352  0.29860  Biso   1.000  N
  N20      1.0000 0.60820  0.35648  0.79860  Biso   1.000  N
  N21      1.0000 0.89180  0.85648  0.79860  Biso   1.000  N
  N22      1.0000 0.60820  0.64352  0.29860  Biso   1.000  N
  N23      1.0000 0.10820  0.85648  0.70140  Biso   1.000  N
  N24      1.0000 0.39180  0.64352  0.20140  Biso   1.000  N
  N25      1.0000 0.81280  0.25150  0.14620  Biso   1.000  N
  N26      1.0000 0.68720  0.24850  0.64620  Biso   1.000  N
  N27      1.0000 0.18720  0.25150  0.35380  Biso   1.000  N
  N28      1.0000 0.31280  0.24850  0.85380  Biso   1.000  N
  N29      1.0000 0.18720  0.74850  0.85380  Biso   1.000  N
  N30      1.0000 0.31280  0.75150  0.35380  Biso   1.000  N
  N31      1.0000 0.81280  0.74850  0.64620  Biso   1.000  N
  N32      1.0000 0.68720  0.75150  0.14620  Biso   1.000  N
  N33      1.0000 0.73250  0.55850  0.14820  Biso   1.000  N
  N34      1.0000 0.76750  0.94150  0.64820  Biso   1.000  N
  N35      1.0000 0.26750  0.55850  0.35180  Biso   1.000  N
  N36      1.0000 0.23250  0.94150  0.85180  Biso   1.000  N
  N37      1.0000 0.26750  0.44150  0.85180  Biso   1.000  N
  N38      1.0000 0.23250  0.05850  0.35180  Biso   1.000  N
  N39      1.0000 0.73250  0.44150  0.64820  Biso   1.000  N
  N40      1.0000 0.76750  0.05850  0.14820  Biso   1.000  N
