data_image0
_cell_length_a       7.413
_cell_length_b       8.577
_cell_length_c       37.051
_cell_angle_alpha    90
_cell_angle_beta     90
_cell_angle_gamma    90

_symmetry_space_group_name_H-M    "P 1"
_symmetry_int_tables_number       1

loop_
  _symmetry_equiv_pos_as_xyz
  'x, y, z'

loop_
  _atom_site_label
  _atom_site_occupancy
  _atom_site_fract_x
  _atom_site_fract_y
  _atom_site_fract_z
  _atom_site_thermal_displace_type
  _atom_site_B_iso_or_equiv
  _atom_site_type_symbol
  Cu1      1.0000 0.02487  0.42626  0.43616  Biso   1.000  Cu
  Cu2      1.0000 0.47513  0.07374  0.43616  Biso   1.000  Cu
  Cu3      1.0000 0.47513  0.42626  0.06384  Biso   1.000  Cu
  Cu4      1.0000 0.02487  0.07374  0.06384  Biso   1.000  Cu
  Cu5      1.0000 0.97513  0.57374  0.56384  Biso   1.000  Cu
  Cu6      1.0000 0.52487  0.92626  0.56384  Biso   1.000  Cu
  Cu7      1.0000 0.52487  0.57374  0.93616  Biso   1.000  Cu
  Cu8      1.0000 0.97513  0.92626  0.93616  Biso   1.000  Cu
  Cu9      1.0000 0.19390  0.54850  0.31378  Biso   1.000  Cu
  Cu10     1.0000 0.30610  0.95150  0.31378  Biso   1.000  Cu
  Cu11     1.0000 0.30610  0.54850  0.18622  Biso   1.000  Cu
  Cu12     1.0000 0.19390  0.95150  0.18622  Biso   1.000  Cu
  Cu13     1.0000 0.80610  0.45150  0.68622  Biso   1.000  Cu
  Cu14     1.0000 0.69390  0.04850  0.68622  Biso   1.000  Cu
  Cu15     1.0000 0.69390  0.45150  0.81378  Biso   1.000  Cu
  Cu16     1.0000 0.80610  0.04850  0.81378  Biso   1.000  Cu
  C1       1.0000 0.02700  0.08940  0.45320  Biso   1.000  C
  C2       1.0000 0.47300  0.41060  0.45320  Biso   1.000  C
  C3       1.0000 0.47300  0.08940  0.04680  Biso   1.000  C
  C4       1.0000 0.02700  0.41060  0.04680  Biso   1.000  C
  C5       1.0000 0.97300  0.91060  0.54680  Biso   1.000  C
  C6       1.0000 0.52700  0.58940  0.54680  Biso   1.000  C
  C7       1.0000 0.52700  0.91060  0.95320  Biso   1.000  C
  C8       1.0000 0.97300  0.58940  0.95320  Biso   1.000  C
  H1       1.0000 0.08730  0.12540  0.47350  Biso   1.000  H
  H2       1.0000 0.41270  0.37460  0.47350  Biso   1.000  H
  H3       1.0000 0.41270  0.12540  0.02650  Biso   1.000  H
  H4       1.0000 0.08730  0.37460  0.02650  Biso   1.000  H
  H5       1.0000 0.91270  0.87460  0.52650  Biso   1.000  H
  H6       1.0000 0.58730  0.62540  0.52650  Biso   1.000  H
  H7       1.0000 0.58730  0.87460  0.97350  Biso   1.000  H
  H8       1.0000 0.91270  0.62540  0.97350  Biso   1.000  H
  C9       1.0000 0.02920  0.93370  0.44610  Biso   1.000  C
  C10      1.0000 0.47080  0.56630  0.44610  Biso   1.000  C
  C11      1.0000 0.47080  0.93370  0.05390  Biso   1.000  C
  C12      1.0000 0.02920  0.56630  0.05390  Biso   1.000  C
  C13      1.0000 0.97080  0.06630  0.55390  Biso   1.000  C
  C14      1.0000 0.52920  0.43370  0.55390  Biso   1.000  C
  C15      1.0000 0.52920  0.06630  0.94610  Biso   1.000  C
  C16      1.0000 0.97080  0.43370  0.94610  Biso   1.000  C
  H9       1.0000 0.08920  0.86520  0.46140  Biso   1.000  H
  H10      1.0000 0.41080  0.63480  0.46140  Biso   1.000  H
  H11      1.0000 0.41080  0.86520  0.03860  Biso   1.000  H
  H12      1.0000 0.08920  0.63480  0.03860  Biso   1.000  H
  H13      1.0000 0.91080  0.13480  0.53860  Biso   1.000  H
  H14      1.0000 0.58920  0.36520  0.53860  Biso   1.000  H
  H15      1.0000 0.58920  0.13480  0.96140  Biso   1.000  H
  H16      1.0000 0.91080  0.36520  0.96140  Biso   1.000  H
  C17      1.0000 0.94120  0.87940  0.41600  Biso   1.000  C
  C18      1.0000 0.55880  0.62060  0.41600  Biso   1.000  C
  C19      1.0000 0.55880  0.87940  0.08400  Biso   1.000  C
  C20      1.0000 0.94120  0.62060  0.08400  Biso   1.000  C
  C21      1.0000 0.05880  0.12060  0.58400  Biso   1.000  C
  C22      1.0000 0.44120  0.37940  0.58400  Biso   1.000  C
  C23      1.0000 0.44120  0.12060  0.91600  Biso   1.000  C
  C24      1.0000 0.05880  0.37940  0.91600  Biso   1.000  C
  H17      1.0000 0.94540  0.77420  0.41010  Biso   1.000  H
  H18      1.0000 0.55460  0.72580  0.41010  Biso   1.000  H
  H19      1.0000 0.55460  0.77420  0.08990  Biso   1.000  H
  H20      1.0000 0.94540  0.72580  0.08990  Biso   1.000  H
  H21      1.0000 0.05460  0.22580  0.58990  Biso   1.000  H
  H22      1.0000 0.44540  0.27420  0.58990  Biso   1.000  H
  H23      1.0000 0.44540  0.22580  0.91010  Biso   1.000  H
  H24      1.0000 0.05460  0.27420  0.91010  Biso   1.000  H
  C25      1.0000 0.84670  0.98260  0.39470  Biso   1.000  C
  C26      1.0000 0.65330  0.51740  0.39470  Biso   1.000  C
  C27      1.0000 0.65330  0.98260  0.10530  Biso   1.000  C
  C28      1.0000 0.84670  0.51740  0.10530  Biso   1.000  C
  C29      1.0000 0.15330  0.01740  0.60530  Biso   1.000  C
  C30      1.0000 0.34670  0.48260  0.60530  Biso   1.000  C
  C31      1.0000 0.34670  0.01740  0.89470  Biso   1.000  C
  C32      1.0000 0.15330  0.48260  0.89470  Biso   1.000  C
  H25      1.0000 0.78340  0.94840  0.37460  Biso   1.000  H
  H26      1.0000 0.71660  0.55160  0.37460  Biso   1.000  H
  H27      1.0000 0.71660  0.94840  0.12540  Biso   1.000  H
  H28      1.0000 0.78340  0.55160  0.12540  Biso   1.000  H
  H29      1.0000 0.21660  0.05160  0.62540  Biso   1.000  H
  H30      1.0000 0.28340  0.44840  0.62540  Biso   1.000  H
  H31      1.0000 0.28340  0.05160  0.87460  Biso   1.000  H
  H32      1.0000 0.21660  0.44840  0.87460  Biso   1.000  H
  C33      1.0000 0.84870  0.13790  0.40416  Biso   1.000  C
  C34      1.0000 0.65130  0.36210  0.40416  Biso   1.000  C
  C35      1.0000 0.65130  0.13790  0.09584  Biso   1.000  C
  C36      1.0000 0.84870  0.36210  0.09584  Biso   1.000  C
  C37      1.0000 0.15130  0.86210  0.59584  Biso   1.000  C
  C38      1.0000 0.34870  0.63790  0.59584  Biso   1.000  C
  C39      1.0000 0.34870  0.86210  0.90416  Biso   1.000  C
  C40      1.0000 0.15130  0.63790  0.90416  Biso   1.000  C
  C41      1.0000 0.75000  0.25000  0.34580  Biso   1.000  C
  C42      1.0000 0.75000  0.25000  0.15420  Biso   1.000  C
  C43      1.0000 0.25000  0.75000  0.65420  Biso   1.000  C
  C44      1.0000 0.25000  0.75000  0.84580  Biso   1.000  C
  C45      1.0000 0.90580  0.21670  0.32701  Biso   1.000  C
  C46      1.0000 0.59420  0.28330  0.32701  Biso   1.000  C
  C47      1.0000 0.59420  0.21670  0.17299  Biso   1.000  C
  C48      1.0000 0.90580  0.28330  0.17299  Biso   1.000  C
  C49      1.0000 0.09420  0.78330  0.67299  Biso   1.000  C
  C50      1.0000 0.40580  0.71670  0.67299  Biso   1.000  C
  C51      1.0000 0.40580  0.78330  0.82701  Biso   1.000  C
  C52      1.0000 0.09420  0.71670  0.82701  Biso   1.000  C
  H33      1.0000 0.01200  0.19460  0.33940  Biso   1.000  H
  H34      1.0000 0.48800  0.30540  0.33940  Biso   1.000  H
  H35      1.0000 0.48800  0.19460  0.16060  Biso   1.000  H
  H36      1.0000 0.01200  0.30540  0.16060  Biso   1.000  H
  H37      1.0000 0.98800  0.80540  0.66060  Biso   1.000  H
  H38      1.0000 0.51200  0.69460  0.66060  Biso   1.000  H
  H39      1.0000 0.51200  0.80540  0.83940  Biso   1.000  H
  H40      1.0000 0.98800  0.69460  0.83940  Biso   1.000  H
  C53      1.0000 0.90340  0.21630  0.28931  Biso   1.000  C
  C54      1.0000 0.59660  0.28370  0.28931  Biso   1.000  C
  C55      1.0000 0.59660  0.21630  0.21069  Biso   1.000  C
  C56      1.0000 0.90340  0.28370  0.21069  Biso   1.000  C
  C57      1.0000 0.09660  0.78370  0.71069  Biso   1.000  C
  C58      1.0000 0.40340  0.71630  0.71069  Biso   1.000  C
  C59      1.0000 0.40340  0.78370  0.78931  Biso   1.000  C
  C60      1.0000 0.09660  0.71630  0.78931  Biso   1.000  C
  H41      1.0000 0.00880  0.19250  0.27680  Biso   1.000  H
  H42      1.0000 0.49120  0.30750  0.27680  Biso   1.000  H
  H43      1.0000 0.49120  0.19250  0.22320  Biso   1.000  H
  H44      1.0000 0.00880  0.30750  0.22320  Biso   1.000  H
  H45      1.0000 0.99120  0.80750  0.72320  Biso   1.000  H
  H46      1.0000 0.50880  0.69250  0.72320  Biso   1.000  H
  H47      1.0000 0.50880  0.80750  0.77680  Biso   1.000  H
  H48      1.0000 0.99120  0.69250  0.77680  Biso   1.000  H
  C61      1.0000 0.75000  0.25000  0.27020  Biso   1.000  C
  C62      1.0000 0.75000  0.25000  0.22980  Biso   1.000  C
  C63      1.0000 0.25000  0.75000  0.72980  Biso   1.000  C
  C64      1.0000 0.25000  0.75000  0.77020  Biso   1.000  C
  C65      1.0000 0.15560  0.51880  0.36139  Biso   1.000  C
  C66      1.0000 0.34440  0.98120  0.36139  Biso   1.000  C
  C67      1.0000 0.34440  0.51880  0.13861  Biso   1.000  C
  C68      1.0000 0.15560  0.98120  0.13861  Biso   1.000  C
  C69      1.0000 0.84440  0.48120  0.63861  Biso   1.000  C
  C70      1.0000 0.65560  0.01880  0.63861  Biso   1.000  C
  C71      1.0000 0.65560  0.48120  0.86139  Biso   1.000  C
  C72      1.0000 0.84440  0.01880  0.86139  Biso   1.000  C
  C73      1.0000 0.00540  0.48460  0.48511  Biso   1.000  C
  C74      1.0000 0.49460  0.01540  0.48511  Biso   1.000  C
  C75      1.0000 0.49460  0.48460  0.01489  Biso   1.000  C
  C76      1.0000 0.00540  0.01540  0.01489  Biso   1.000  C
  C77      1.0000 0.99460  0.51540  0.51489  Biso   1.000  C
  C78      1.0000 0.50540  0.98460  0.51489  Biso   1.000  C
  C79      1.0000 0.50540  0.51540  0.98511  Biso   1.000  C
  C80      1.0000 0.99460  0.98460  0.98511  Biso   1.000  C
  C81      1.0000 0.23850  0.55030  0.26500  Biso   1.000  C
  C82      1.0000 0.26150  0.94970  0.26500  Biso   1.000  C
  C83      1.0000 0.26150  0.55030  0.23500  Biso   1.000  C
  C84      1.0000 0.23850  0.94970  0.23500  Biso   1.000  C
  C85      1.0000 0.76150  0.44970  0.73500  Biso   1.000  C
  C86      1.0000 0.73850  0.05030  0.73500  Biso   1.000  C
  C87      1.0000 0.73850  0.44970  0.76500  Biso   1.000  C
  C88      1.0000 0.76150  0.05030  0.76500  Biso   1.000  C
  N1       1.0000 0.94280  0.19230  0.43235  Biso   1.000  N
  N2       1.0000 0.55720  0.30770  0.43235  Biso   1.000  N
  N3       1.0000 0.55720  0.19230  0.06765  Biso   1.000  N
  N4       1.0000 0.94280  0.30770  0.06765  Biso   1.000  N
  N5       1.0000 0.05720  0.80770  0.56765  Biso   1.000  N
  N6       1.0000 0.44280  0.69230  0.56765  Biso   1.000  N
  N7       1.0000 0.44280  0.80770  0.93235  Biso   1.000  N
  N8       1.0000 0.05720  0.69230  0.93235  Biso   1.000  N
  N9       1.0000 0.75000  0.25000  0.38440  Biso   1.000  N
  N10      1.0000 0.75000  0.25000  0.11560  Biso   1.000  N
  N11      1.0000 0.25000  0.75000  0.61560  Biso   1.000  N
  N12      1.0000 0.25000  0.75000  0.88440  Biso   1.000  N
  N13      1.0000 0.10970  0.48870  0.38960  Biso   1.000  N
  N14      1.0000 0.39030  0.01130  0.38960  Biso   1.000  N
  N15      1.0000 0.39030  0.48870  0.11040  Biso   1.000  N
  N16      1.0000 0.10970  0.01130  0.11040  Biso   1.000  N
  N17      1.0000 0.89030  0.51130  0.61040  Biso   1.000  N
  N18      1.0000 0.60970  0.98870  0.61040  Biso   1.000  N
  N19      1.0000 0.60970  0.51130  0.88960  Biso   1.000  N
  N20      1.0000 0.89030  0.98870  0.88960  Biso   1.000  N
  O1       1.0000 0.85200  0.75100  0.30230  Biso   1.000  O
  O2       1.0000 0.64800  0.74900  0.30230  Biso   1.000  O
  O3       1.0000 0.64800  0.75100  0.19770  Biso   1.000  O
  O4       1.0000 0.85200  0.74900  0.19770  Biso   1.000  O
  O5       1.0000 0.14800  0.24900  0.69770  Biso   1.000  O
  O6       1.0000 0.35200  0.25100  0.69770  Biso   1.000  O
  O7       1.0000 0.35200  0.24900  0.80230  Biso   1.000  O
  O8       1.0000 0.14800  0.25100  0.80230  Biso   1.000  O
