data_image0
_cell_length_a       17.327
_cell_length_b       17.327
_cell_length_c       7.7288
_cell_angle_alpha    90
_cell_angle_beta     90
_cell_angle_gamma    90

_symmetry_space_group_name_H-M    "P 1"
_symmetry_int_tables_number       1

loop_
  _symmetry_equiv_pos_as_xyz
  'x, y, z'

loop_
  _atom_site_label
  _atom_site_occupancy
  _atom_site_fract_x
  _atom_site_fract_y
  _atom_site_fract_z
  _atom_site_thermal_displace_type
  _atom_site_B_iso_or_equiv
  _atom_site_type_symbol
  Cu1      1.0000 0.00000  0.25000  0.12500  Biso   1.000  Cu
  Cu2      1.0000 0.00000  0.25000  0.37500  Biso   1.000  Cu
  Cu3      1.0000 0.50000  0.75000  0.62500  Biso   1.000  Cu
  Cu4      1.0000 0.50000  0.25000  0.37500  Biso   1.000  Cu
  Cu5      1.0000 0.00000  0.75000  0.87500  Biso   1.000  Cu
  Cu6      1.0000 0.50000  0.25000  0.12500  Biso   1.000  Cu
  N1       1.0000 0.00159  0.34230  0.96240  Biso   1.000  N
  N2       1.0000 0.90770  0.25159  0.21240  Biso   1.000  N
  N3       1.0000 0.50159  0.84230  0.46240  Biso   1.000  N
  N4       1.0000 0.59230  0.24841  0.21240  Biso   1.000  N
  N5       1.0000 0.50159  0.34230  0.53760  Biso   1.000  N
  N6       1.0000 0.90770  0.25159  0.28760  Biso   1.000  N
  N7       1.0000 0.00159  0.84230  0.03760  Biso   1.000  N
  N8       1.0000 0.99841  0.65770  0.03760  Biso   1.000  N
  N9       1.0000 0.59230  0.24841  0.28760  Biso   1.000  N
  N10      1.0000 0.49841  0.15770  0.53760  Biso   1.000  N
  N11      1.0000 0.49841  0.65770  0.46240  Biso   1.000  N
  N12      1.0000 0.99841  0.15770  0.96240  Biso   1.000  N
  C1       1.0000 0.99460  0.45290  0.70290  Biso   1.000  C
  C2       1.0000 0.79710  0.24460  0.95290  Biso   1.000  C
  C3       1.0000 0.49460  0.95290  0.20290  Biso   1.000  C
  C4       1.0000 0.70290  0.25540  0.95290  Biso   1.000  C
  C5       1.0000 0.49460  0.45290  0.79710  Biso   1.000  C
  C6       1.0000 0.79710  0.24460  0.54710  Biso   1.000  C
  C7       1.0000 0.99460  0.95290  0.29710  Biso   1.000  C
  C8       1.0000 0.00540  0.54710  0.29710  Biso   1.000  C
  C9       1.0000 0.70290  0.25540  0.54710  Biso   1.000  C
  C10      1.0000 0.50540  0.04710  0.79710  Biso   1.000  C
  C11      1.0000 0.50540  0.54710  0.20290  Biso   1.000  C
  C12      1.0000 0.00540  0.04710  0.70290  Biso   1.000  C
  N13      1.0000 0.98823  0.51111  0.57260  Biso   1.000  N
  N14      1.0000 0.73889  0.23823  0.82260  Biso   1.000  N
  N15      1.0000 0.48823  0.01111  0.07260  Biso   1.000  N
  N16      1.0000 0.76111  0.26177  0.82260  Biso   1.000  N
  N17      1.0000 0.48823  0.51111  0.92740  Biso   1.000  N
  N18      1.0000 0.73889  0.23823  0.67740  Biso   1.000  N
  N19      1.0000 0.98823  0.01111  0.42740  Biso   1.000  N
  N20      1.0000 0.01177  0.48889  0.42740  Biso   1.000  N
  N21      1.0000 0.76111  0.26177  0.67740  Biso   1.000  N
  N22      1.0000 0.51177  0.98889  0.92740  Biso   1.000  N
  N23      1.0000 0.51177  0.48889  0.07260  Biso   1.000  N
  N24      1.0000 0.01177  0.98889  0.57260  Biso   1.000  N
  C13      1.0000 0.94250  0.45400  0.83720  Biso   1.000  C
  C14      1.0000 0.79600  0.19250  0.08720  Biso   1.000  C
  C15      1.0000 0.44250  0.95400  0.33720  Biso   1.000  C
  C16      1.0000 0.70400  0.30750  0.08720  Biso   1.000  C
  C17      1.0000 0.44250  0.45400  0.66280  Biso   1.000  C
  C18      1.0000 0.79600  0.19250  0.41280  Biso   1.000  C
  C19      1.0000 0.94250  0.95400  0.16280  Biso   1.000  C
  C20      1.0000 0.05750  0.54600  0.16280  Biso   1.000  C
  C21      1.0000 0.70400  0.30750  0.41280  Biso   1.000  C
  C22      1.0000 0.55750  0.04600  0.66280  Biso   1.000  C
  C23      1.0000 0.55750  0.54600  0.33720  Biso   1.000  C
  C24      1.0000 0.05750  0.04600  0.83720  Biso   1.000  C
  H1       1.0000 0.90410  0.49300  0.84380  Biso   1.000  H
  H2       1.0000 0.75700  0.15410  0.09380  Biso   1.000  H
  H3       1.0000 0.40410  0.99300  0.34380  Biso   1.000  H
  H4       1.0000 0.74300  0.34590  0.09380  Biso   1.000  H
  H5       1.0000 0.40410  0.49300  0.65620  Biso   1.000  H
  H6       1.0000 0.75700  0.15410  0.40620  Biso   1.000  H
  H7       1.0000 0.90410  0.99300  0.15620  Biso   1.000  H
  H8       1.0000 0.09590  0.50700  0.15620  Biso   1.000  H
  H9       1.0000 0.74300  0.34590  0.40620  Biso   1.000  H
  H10      1.0000 0.59590  0.00700  0.65620  Biso   1.000  H
  H11      1.0000 0.59590  0.50700  0.34380  Biso   1.000  H
  H12      1.0000 0.09590  0.00700  0.84380  Biso   1.000  H
  C25      1.0000 0.94710  0.39730  0.96190  Biso   1.000  C
  C26      1.0000 0.85270  0.19710  0.21190  Biso   1.000  C
  C27      1.0000 0.44710  0.89730  0.46190  Biso   1.000  C
  C28      1.0000 0.64730  0.30290  0.21190  Biso   1.000  C
  C29      1.0000 0.44710  0.39730  0.53810  Biso   1.000  C
  C30      1.0000 0.85270  0.19710  0.28810  Biso   1.000  C
  C31      1.0000 0.94710  0.89730  0.03810  Biso   1.000  C
  C32      1.0000 0.05290  0.60270  0.03810  Biso   1.000  C
  C33      1.0000 0.64730  0.30290  0.28810  Biso   1.000  C
  C34      1.0000 0.55290  0.10270  0.53810  Biso   1.000  C
  C35      1.0000 0.55290  0.60270  0.46190  Biso   1.000  C
  C36      1.0000 0.05290  0.10270  0.96190  Biso   1.000  C
  H13      1.0000 0.90980  0.39710  0.05200  Biso   1.000  H
  H14      1.0000 0.85290  0.15980  0.30200  Biso   1.000  H
  H15      1.0000 0.40980  0.89710  0.55200  Biso   1.000  H
  H16      1.0000 0.64710  0.34020  0.30200  Biso   1.000  H
  H17      1.0000 0.40980  0.39710  0.44800  Biso   1.000  H
  H18      1.0000 0.85290  0.15980  0.19800  Biso   1.000  H
  H19      1.0000 0.90980  0.89710  0.94800  Biso   1.000  H
  H20      1.0000 0.09020  0.60290  0.94800  Biso   1.000  H
  H21      1.0000 0.64710  0.34020  0.19800  Biso   1.000  H
  H22      1.0000 0.59020  0.10290  0.44800  Biso   1.000  H
  H23      1.0000 0.59020  0.60290  0.55200  Biso   1.000  H
  H24      1.0000 0.09020  0.10290  0.05200  Biso   1.000  H
  C37      1.0000 0.05350  0.34410  0.83490  Biso   1.000  C
  C38      1.0000 0.90590  0.30350  0.08490  Biso   1.000  C
  C39      1.0000 0.55350  0.84410  0.33490  Biso   1.000  C
  C40      1.0000 0.59410  0.19650  0.08490  Biso   1.000  C
  C41      1.0000 0.55350  0.34410  0.66510  Biso   1.000  C
  C42      1.0000 0.90590  0.30350  0.41510  Biso   1.000  C
  C43      1.0000 0.05350  0.84410  0.16510  Biso   1.000  C
  C44      1.0000 0.94650  0.65590  0.16510  Biso   1.000  C
  C45      1.0000 0.59410  0.19650  0.41510  Biso   1.000  C
  C46      1.0000 0.44650  0.15590  0.66510  Biso   1.000  C
  C47      1.0000 0.44650  0.65590  0.33490  Biso   1.000  C
  C48      1.0000 0.94650  0.15590  0.83490  Biso   1.000  C
  H25      1.0000 0.09320  0.30640  0.83520  Biso   1.000  H
  H26      1.0000 0.94360  0.34320  0.08520  Biso   1.000  H
  H27      1.0000 0.59320  0.80640  0.33520  Biso   1.000  H
  H28      1.0000 0.55640  0.15680  0.08520  Biso   1.000  H
  H29      1.0000 0.59320  0.30640  0.66480  Biso   1.000  H
  H30      1.0000 0.94360  0.34320  0.41480  Biso   1.000  H
  H31      1.0000 0.09320  0.80640  0.16480  Biso   1.000  H
  H32      1.0000 0.90680  0.69360  0.16480  Biso   1.000  H
  H33      1.0000 0.55640  0.15680  0.41480  Biso   1.000  H
  H34      1.0000 0.40680  0.19360  0.66480  Biso   1.000  H
  H35      1.0000 0.40680  0.69360  0.33520  Biso   1.000  H
  H36      1.0000 0.90680  0.19360  0.83520  Biso   1.000  H
  C49      1.0000 0.05280  0.39760  0.70310  Biso   1.000  C
  C50      1.0000 0.85240  0.30280  0.95310  Biso   1.000  C
  C51      1.0000 0.55280  0.89760  0.20310  Biso   1.000  C
  C52      1.0000 0.64760  0.19720  0.95310  Biso   1.000  C
  C53      1.0000 0.55280  0.39760  0.79690  Biso   1.000  C
  C54      1.0000 0.85240  0.30280  0.54690  Biso   1.000  C
  C55      1.0000 0.05280  0.89760  0.29690  Biso   1.000  C
  C56      1.0000 0.94720  0.60240  0.29690  Biso   1.000  C
  C57      1.0000 0.64760  0.19720  0.54690  Biso   1.000  C
  C58      1.0000 0.44720  0.10240  0.79690  Biso   1.000  C
  C59      1.0000 0.44720  0.60240  0.20310  Biso   1.000  C
  C60      1.0000 0.94720  0.10240  0.70310  Biso   1.000  C
  H37      1.0000 0.09100  0.39670  0.61490  Biso   1.000  H
  H38      1.0000 0.85330  0.34100  0.86490  Biso   1.000  H
  H39      1.0000 0.59100  0.89670  0.11490  Biso   1.000  H
  H40      1.0000 0.64670  0.15900  0.86490  Biso   1.000  H
  H41      1.0000 0.59100  0.39670  0.88510  Biso   1.000  H
  H42      1.0000 0.85330  0.34100  0.63510  Biso   1.000  H
  H43      1.0000 0.09100  0.89670  0.38510  Biso   1.000  H
  H44      1.0000 0.90900  0.60330  0.38510  Biso   1.000  H
  H45      1.0000 0.64670  0.15900  0.63510  Biso   1.000  H
  H46      1.0000 0.40900  0.10330  0.88510  Biso   1.000  H
  H47      1.0000 0.40900  0.60330  0.11490  Biso   1.000  H
  H48      1.0000 0.90900  0.10330  0.61490  Biso   1.000  H
  B1       1.0000 0.78060  0.48280  0.38290  Biso   1.000  B
  B2       1.0000 0.76720  0.03060  0.63290  Biso   1.000  B
  B3       1.0000 0.28060  0.98280  0.88290  Biso   1.000  B
  B4       1.0000 0.73280  0.46940  0.63290  Biso   1.000  B
  B5       1.0000 0.28060  0.48280  0.11710  Biso   1.000  B
  B6       1.0000 0.76720  0.03060  0.86710  Biso   1.000  B
  B7       1.0000 0.78060  0.98280  0.61710  Biso   1.000  B
  B8       1.0000 0.21940  0.51720  0.61710  Biso   1.000  B
  B9       1.0000 0.73280  0.46940  0.86710  Biso   1.000  B
  B10      1.0000 0.71940  0.01720  0.11710  Biso   1.000  B
  B11      1.0000 0.71940  0.51720  0.88290  Biso   1.000  B
  B12      1.0000 0.21940  0.01720  0.38290  Biso   1.000  B
  F1       1.0000 0.81390  0.49740  0.54670  Biso   1.000  F
  F2       1.0000 0.75260  0.06390  0.79670  Biso   1.000  F
  F3       1.0000 0.31390  0.99740  0.04670  Biso   1.000  F
  F4       1.0000 0.74740  0.43610  0.79670  Biso   1.000  F
  F5       1.0000 0.31390  0.49740  0.95330  Biso   1.000  F
  F6       1.0000 0.75260  0.06390  0.70330  Biso   1.000  F
  F7       1.0000 0.81390  0.99740  0.45330  Biso   1.000  F
  F8       1.0000 0.18610  0.50260  0.45330  Biso   1.000  F
  F9       1.0000 0.74740  0.43610  0.70330  Biso   1.000  F
  F10      1.0000 0.68610  0.00260  0.95330  Biso   1.000  F
  F11      1.0000 0.68610  0.50260  0.04670  Biso   1.000  F
  F12      1.0000 0.18610  0.00260  0.54670  Biso   1.000  F
  F13      1.0000 0.81420  0.45840  0.22760  Biso   1.000  F
  F14      1.0000 0.79160  0.06420  0.47760  Biso   1.000  F
  F15      1.0000 0.31420  0.95840  0.72760  Biso   1.000  F
  F16      1.0000 0.70840  0.43580  0.47760  Biso   1.000  F
  F17      1.0000 0.31420  0.45840  0.27240  Biso   1.000  F
  F18      1.0000 0.79160  0.06420  0.02240  Biso   1.000  F
  F19      1.0000 0.81420  0.95840  0.77240  Biso   1.000  F
  F20      1.0000 0.18580  0.54160  0.77240  Biso   1.000  F
  F21      1.0000 0.70840  0.43580  0.02240  Biso   1.000  F
  F22      1.0000 0.68580  0.04160  0.27240  Biso   1.000  F
  F23      1.0000 0.68580  0.54160  0.72760  Biso   1.000  F
  F24      1.0000 0.18580  0.04160  0.22760  Biso   1.000  F
  N25      1.0000 0.99841  0.15770  0.53760  Biso   1.000  N
  N26      1.0000 0.40770  0.75159  0.78760  Biso   1.000  N
  N27      1.0000 0.40770  0.25159  0.21240  Biso   1.000  N
  N28      1.0000 0.90770  0.75159  0.71240  Biso   1.000  N
  N29      1.0000 0.09230  0.74841  0.71240  Biso   1.000  N
  N30      1.0000 0.50159  0.34230  0.96240  Biso   1.000  N
  N31      1.0000 0.59230  0.74841  0.78760  Biso   1.000  N
  N32      1.0000 0.09230  0.24841  0.28760  Biso   1.000  N
  N33      1.0000 0.00159  0.34230  0.53760  Biso   1.000  N
  N34      1.0000 0.49841  0.15770  0.96240  Biso   1.000  N
  N35      1.0000 0.09230  0.24841  0.21240  Biso   1.000  N
  N36      1.0000 0.40770  0.25159  0.28760  Biso   1.000  N
  F25      1.0000 0.75260  0.56390  0.29670  Biso   1.000  F
  F26      1.0000 0.68610  0.00260  0.54670  Biso   1.000  F
  F27      1.0000 0.25260  0.06390  0.79670  Biso   1.000  F
  F28      1.0000 0.25260  0.56390  0.20330  Biso   1.000  F
  F29      1.0000 0.24740  0.43610  0.70330  Biso   1.000  F
  F30      1.0000 0.81390  0.49740  0.95330  Biso   1.000  F
  F31      1.0000 0.74740  0.93610  0.20330  Biso   1.000  F
  F32      1.0000 0.24740  0.93610  0.29670  Biso   1.000  F
  F33      1.0000 0.81420  0.95840  0.72760  Biso   1.000  F
  F34      1.0000 0.20840  0.93580  0.97760  Biso   1.000  F
  F35      1.0000 0.20840  0.43580  0.02240  Biso   1.000  F
  F36      1.0000 0.70840  0.93580  0.52240  Biso   1.000  F
  F37      1.0000 0.29160  0.56420  0.52240  Biso   1.000  F
  F38      1.0000 0.68580  0.54160  0.77240  Biso   1.000  F
  F39      1.0000 0.79160  0.56420  0.97760  Biso   1.000  F
  F40      1.0000 0.29160  0.06420  0.47760  Biso   1.000  F
  B13      1.0000 0.78060  0.98280  0.88290  Biso   1.000  B
  B14      1.0000 0.23280  0.96940  0.13290  Biso   1.000  B
  B15      1.0000 0.23280  0.46940  0.86710  Biso   1.000  B
  B16      1.0000 0.73280  0.96940  0.36710  Biso   1.000  B
  B17      1.0000 0.26720  0.53060  0.36710  Biso   1.000  B
  B18      1.0000 0.71940  0.51720  0.61710  Biso   1.000  B
  B19      1.0000 0.76720  0.53060  0.13290  Biso   1.000  B
  B20      1.0000 0.26720  0.03060  0.63290  Biso   1.000  B
  B21      1.0000 0.71940  0.01720  0.38290  Biso   1.000  B
  B22      1.0000 0.78060  0.48280  0.11710  Biso   1.000  B
  C61      1.0000 0.05290  0.10270  0.53810  Biso   1.000  C
  C62      1.0000 0.35270  0.69710  0.78810  Biso   1.000  C
  C63      1.0000 0.35270  0.19710  0.21190  Biso   1.000  C
  C64      1.0000 0.85270  0.69710  0.71190  Biso   1.000  C
  C65      1.0000 0.14730  0.80290  0.71190  Biso   1.000  C
  C66      1.0000 0.44710  0.39730  0.96190  Biso   1.000  C
  C67      1.0000 0.64730  0.80290  0.78810  Biso   1.000  C
  C68      1.0000 0.14730  0.30290  0.28810  Biso   1.000  C
  C69      1.0000 0.94650  0.15590  0.66510  Biso   1.000  C
  C70      1.0000 0.40590  0.80350  0.91510  Biso   1.000  C
  C71      1.0000 0.40590  0.30350  0.08490  Biso   1.000  C
  C72      1.0000 0.90590  0.80350  0.58490  Biso   1.000  C
  C73      1.0000 0.09410  0.69650  0.58490  Biso   1.000  C
  C74      1.0000 0.55350  0.34410  0.83490  Biso   1.000  C
  C75      1.0000 0.59410  0.69650  0.91510  Biso   1.000  C
  C76      1.0000 0.09410  0.19650  0.41510  Biso   1.000  C
  F41      1.0000 0.81390  0.99740  0.04670  Biso   1.000  F
  F42      1.0000 0.68610  0.50260  0.45330  Biso   1.000  F
  F43      1.0000 0.70840  0.93580  0.97760  Biso   1.000  F
  F44      1.0000 0.79160  0.56420  0.52240  Biso   1.000  F
  F45      1.0000 0.74740  0.93610  0.29670  Biso   1.000  F
  F46      1.0000 0.75260  0.56390  0.20330  Biso   1.000  F
  F47      1.0000 0.68580  0.04160  0.22760  Biso   1.000  F
  F48      1.0000 0.81420  0.45840  0.27240  Biso   1.000  F
  C77      1.0000 0.05750  0.04600  0.66280  Biso   1.000  C
  C78      1.0000 0.29600  0.69250  0.91280  Biso   1.000  C
  C79      1.0000 0.29600  0.19250  0.08720  Biso   1.000  C
  C80      1.0000 0.79600  0.69250  0.58720  Biso   1.000  C
  C81      1.0000 0.20400  0.80750  0.58720  Biso   1.000  C
  C82      1.0000 0.44250  0.45400  0.83720  Biso   1.000  C
  C83      1.0000 0.70400  0.80750  0.91280  Biso   1.000  C
  C84      1.0000 0.20400  0.30750  0.41280  Biso   1.000  C
  H49      1.0000 0.09020  0.10290  0.44800  Biso   1.000  H
  H50      1.0000 0.35290  0.65980  0.69800  Biso   1.000  H
  H51      1.0000 0.35290  0.15980  0.30200  Biso   1.000  H
  H52      1.0000 0.85290  0.65980  0.80200  Biso   1.000  H
  H53      1.0000 0.14710  0.84020  0.80200  Biso   1.000  H
  H54      1.0000 0.40980  0.39710  0.05200  Biso   1.000  H
  H55      1.0000 0.64710  0.84020  0.69800  Biso   1.000  H
  H56      1.0000 0.14710  0.34020  0.19800  Biso   1.000  H
  H57      1.0000 0.90680  0.19360  0.66480  Biso   1.000  H
  H58      1.0000 0.44360  0.84320  0.91480  Biso   1.000  H
  H59      1.0000 0.44360  0.34320  0.08520  Biso   1.000  H
  H60      1.0000 0.94360  0.84320  0.58520  Biso   1.000  H
  H61      1.0000 0.05640  0.65680  0.58520  Biso   1.000  H
  H62      1.0000 0.59320  0.30640  0.83520  Biso   1.000  H
  H63      1.0000 0.55640  0.65680  0.91480  Biso   1.000  H
  H64      1.0000 0.05640  0.15680  0.41480  Biso   1.000  H
  C85      1.0000 0.94720  0.10240  0.79690  Biso   1.000  C
  C86      1.0000 0.35240  0.80280  0.04690  Biso   1.000  C
  C87      1.0000 0.35240  0.30280  0.95310  Biso   1.000  C
  C88      1.0000 0.85240  0.80280  0.45310  Biso   1.000  C
  C89      1.0000 0.14760  0.69720  0.45310  Biso   1.000  C
  C90      1.0000 0.55280  0.39760  0.70310  Biso   1.000  C
  C91      1.0000 0.64760  0.69720  0.04690  Biso   1.000  C
  C92      1.0000 0.14760  0.19720  0.54690  Biso   1.000  C
  B23      1.0000 0.73280  0.96940  0.13290  Biso   1.000  B
  B24      1.0000 0.76720  0.53060  0.36710  Biso   1.000  B
  C93      1.0000 0.00540  0.04710  0.79710  Biso   1.000  C
  C94      1.0000 0.29710  0.74460  0.04710  Biso   1.000  C
  C95      1.0000 0.29710  0.24460  0.95290  Biso   1.000  C
  C96      1.0000 0.79710  0.74460  0.45290  Biso   1.000  C
  C97      1.0000 0.20290  0.75540  0.45290  Biso   1.000  C
  C98      1.0000 0.49460  0.45290  0.70290  Biso   1.000  C
  C99      1.0000 0.70290  0.75540  0.04710  Biso   1.000  C
  C100     1.0000 0.20290  0.25540  0.54710  Biso   1.000  C
  H65      1.0000 0.09590  0.00700  0.65620  Biso   1.000  H
  H66      1.0000 0.25700  0.65410  0.90620  Biso   1.000  H
  H67      1.0000 0.25700  0.15410  0.09380  Biso   1.000  H
  H68      1.0000 0.75700  0.65410  0.59380  Biso   1.000  H
  H69      1.0000 0.24300  0.84590  0.59380  Biso   1.000  H
  H70      1.0000 0.40410  0.49300  0.84380  Biso   1.000  H
  H71      1.0000 0.74300  0.84590  0.90620  Biso   1.000  H
  H72      1.0000 0.24300  0.34590  0.40620  Biso   1.000  H
  H73      1.0000 0.90900  0.10330  0.88510  Biso   1.000  H
  H74      1.0000 0.35330  0.84100  0.13510  Biso   1.000  H
  H75      1.0000 0.35330  0.34100  0.86490  Biso   1.000  H
  H76      1.0000 0.85330  0.84100  0.36490  Biso   1.000  H
  H77      1.0000 0.14670  0.65900  0.36490  Biso   1.000  H
  H78      1.0000 0.59100  0.39670  0.61490  Biso   1.000  H
  H79      1.0000 0.64670  0.65900  0.13510  Biso   1.000  H
  H80      1.0000 0.14670  0.15900  0.63510  Biso   1.000  H
  N37      1.0000 0.01177  0.98889  0.92740  Biso   1.000  N
  N38      1.0000 0.23889  0.73823  0.17740  Biso   1.000  N
  N39      1.0000 0.23889  0.23823  0.82260  Biso   1.000  N
  N40      1.0000 0.73889  0.73823  0.32260  Biso   1.000  N
  N41      1.0000 0.26111  0.76177  0.32260  Biso   1.000  N
  N42      1.0000 0.48823  0.51111  0.57260  Biso   1.000  N
  N43      1.0000 0.76111  0.76177  0.17740  Biso   1.000  N
  N44      1.0000 0.26111  0.26177  0.67740  Biso   1.000  N
  N45      1.0000 0.98823  0.01111  0.07260  Biso   1.000  N
  N46      1.0000 0.51177  0.48889  0.42740  Biso   1.000  N
  C101     1.0000 0.99460  0.95290  0.20290  Biso   1.000  C
  C102     1.0000 0.50540  0.54710  0.29710  Biso   1.000  C
  C103     1.0000 0.94250  0.95400  0.33720  Biso   1.000  C
  C104     1.0000 0.55750  0.54600  0.16280  Biso   1.000  C
  C105     1.0000 0.05280  0.89760  0.20310  Biso   1.000  C
  C106     1.0000 0.44720  0.60240  0.29690  Biso   1.000  C
  H81      1.0000 0.90410  0.99300  0.34380  Biso   1.000  H
  H82      1.0000 0.59590  0.50700  0.15620  Biso   1.000  H
  C107     1.0000 0.94710  0.89730  0.46190  Biso   1.000  C
  C108     1.0000 0.55290  0.60270  0.03810  Biso   1.000  C
  C109     1.0000 0.05350  0.84410  0.33490  Biso   1.000  C
  C110     1.0000 0.44650  0.65590  0.16510  Biso   1.000  C
  H83      1.0000 0.09100  0.89670  0.11490  Biso   1.000  H
  H84      1.0000 0.40900  0.60330  0.38510  Biso   1.000  H
  N47      1.0000 0.00159  0.84230  0.46240  Biso   1.000  N
  N48      1.0000 0.49841  0.65770  0.03760  Biso   1.000  N
  H85      1.0000 0.90980  0.89710  0.55200  Biso   1.000  H
  H86      1.0000 0.59020  0.60290  0.94800  Biso   1.000  H
  H87      1.0000 0.09320  0.80640  0.33520  Biso   1.000  H
  H88      1.0000 0.40680  0.69360  0.16480  Biso   1.000  H
  Cu7      1.0000 0.00000  0.75000  0.62500  Biso   1.000  Cu
  Cu8      1.0000 0.50000  0.75000  0.87500  Biso   1.000  Cu
