data_image0
_cell_length_a       10.727
_cell_length_b       21.194
_cell_length_c       7.553
_cell_angle_alpha    90
_cell_angle_beta     90
_cell_angle_gamma    90

_symmetry_space_group_name_H-M    "P 1"
_symmetry_int_tables_number       1

loop_
  _symmetry_equiv_pos_as_xyz
  'x, y, z'

loop_
  _atom_site_label
  _atom_site_occupancy
  _atom_site_fract_x
  _atom_site_fract_y
  _atom_site_fract_z
  _atom_site_thermal_displace_type
  _atom_site_B_iso_or_equiv
  _atom_site_type_symbol
  Cu1      1.0000 0.65702  0.18002  0.50000  Biso   1.000  Cu
  Cu2      1.0000 0.15702  0.31998  0.50000  Biso   1.000  Cu
  Cu3      1.0000 0.84298  0.68002  0.50000  Biso   1.000  Cu
  Cu4      1.0000 0.34298  0.81998  0.50000  Biso   1.000  Cu
  S1       1.0000 0.57340  0.27436  0.50000  Biso   1.000  S
  S2       1.0000 0.07340  0.22564  0.50000  Biso   1.000  S
  S3       1.0000 0.92660  0.77436  0.50000  Biso   1.000  S
  S4       1.0000 0.42660  0.72564  0.50000  Biso   1.000  S
  S5       1.0000 0.55130  0.08311  0.50000  Biso   1.000  S
  S6       1.0000 0.05130  0.41689  0.50000  Biso   1.000  S
  S7       1.0000 0.94870  0.58311  0.50000  Biso   1.000  S
  S8       1.0000 0.44870  0.91689  0.50000  Biso   1.000  S
  C1       1.0000 0.63350  0.05000  0.31290  Biso   1.000  C
  C2       1.0000 0.63350  0.05000  0.68710  Biso   1.000  C
  C3       1.0000 0.13350  0.45000  0.31290  Biso   1.000  C
  C4       1.0000 0.86650  0.55000  0.31290  Biso   1.000  C
  C5       1.0000 0.36650  0.95000  0.68710  Biso   1.000  C
  C6       1.0000 0.36650  0.95000  0.31290  Biso   1.000  C
  C7       1.0000 0.86650  0.55000  0.68710  Biso   1.000  C
  C8       1.0000 0.13350  0.45000  0.68710  Biso   1.000  C
  H1       1.0000 0.64990  0.00460  0.33450  Biso   1.000  H
  H2       1.0000 0.64990  0.00460  0.66550  Biso   1.000  H
  H3       1.0000 0.14990  0.49540  0.33450  Biso   1.000  H
  H4       1.0000 0.85010  0.50460  0.33450  Biso   1.000  H
  H5       1.0000 0.35010  0.99540  0.66550  Biso   1.000  H
  H6       1.0000 0.35010  0.99540  0.33450  Biso   1.000  H
  H7       1.0000 0.85010  0.50460  0.66550  Biso   1.000  H
  H8       1.0000 0.14990  0.49540  0.66550  Biso   1.000  H
  H9       1.0000 0.58120  0.05350  0.20540  Biso   1.000  H
  H10      1.0000 0.58120  0.05350  0.79460  Biso   1.000  H
  H11      1.0000 0.08120  0.44650  0.20540  Biso   1.000  H
  H12      1.0000 0.91880  0.55350  0.20540  Biso   1.000  H
  H13      1.0000 0.41880  0.94650  0.79460  Biso   1.000  H
  H14      1.0000 0.41880  0.94650  0.20540  Biso   1.000  H
  H15      1.0000 0.91880  0.55350  0.79460  Biso   1.000  H
  H16      1.0000 0.08120  0.44650  0.79460  Biso   1.000  H
  N1       1.0000 0.78410  0.14020  0.33780  Biso   1.000  N
  N2       1.0000 0.78410  0.14020  0.66220  Biso   1.000  N
  N3       1.0000 0.28410  0.35980  0.33780  Biso   1.000  N
  N4       1.0000 0.71590  0.64020  0.33780  Biso   1.000  N
  N5       1.0000 0.21590  0.85980  0.66220  Biso   1.000  N
  N6       1.0000 0.21590  0.85980  0.33780  Biso   1.000  N
  N7       1.0000 0.71590  0.64020  0.66220  Biso   1.000  N
  N8       1.0000 0.28410  0.35980  0.66220  Biso   1.000  N
  C9       1.0000 0.75100  0.08290  0.28500  Biso   1.000  C
  C10      1.0000 0.75100  0.08290  0.71500  Biso   1.000  C
  C11      1.0000 0.25100  0.41710  0.28500  Biso   1.000  C
  C12      1.0000 0.74900  0.58290  0.28500  Biso   1.000  C
  C13      1.0000 0.24900  0.91710  0.71500  Biso   1.000  C
  C14      1.0000 0.24900  0.91710  0.28500  Biso   1.000  C
  C15      1.0000 0.74900  0.58290  0.71500  Biso   1.000  C
  C16      1.0000 0.25100  0.41710  0.71500  Biso   1.000  C
  C17      1.0000 0.84000  0.04860  0.17800  Biso   1.000  C
  C18      1.0000 0.84000  0.04860  0.82200  Biso   1.000  C
  C19      1.0000 0.34000  0.45140  0.17800  Biso   1.000  C
  C20      1.0000 0.66000  0.54860  0.17800  Biso   1.000  C
  C21      1.0000 0.16000  0.95140  0.82200  Biso   1.000  C
  C22      1.0000 0.16000  0.95140  0.17800  Biso   1.000  C
  C23      1.0000 0.66000  0.54860  0.82200  Biso   1.000  C
  C24      1.0000 0.34000  0.45140  0.82200  Biso   1.000  C
  H17      1.0000 0.82130  0.00700  0.13970  Biso   1.000  H
  H18      1.0000 0.82130  0.00700  0.86030  Biso   1.000  H
  H19      1.0000 0.32130  0.49300  0.13970  Biso   1.000  H
  H20      1.0000 0.67870  0.50700  0.13970  Biso   1.000  H
  H21      1.0000 0.17870  0.99300  0.86030  Biso   1.000  H
  H22      1.0000 0.17870  0.99300  0.13970  Biso   1.000  H
  H23      1.0000 0.67870  0.50700  0.86030  Biso   1.000  H
  H24      1.0000 0.32130  0.49300  0.86030  Biso   1.000  H
  C25      1.0000 0.95190  0.07580  0.13200  Biso   1.000  C
  C26      1.0000 0.95190  0.07580  0.86800  Biso   1.000  C
  C27      1.0000 0.45190  0.42420  0.13200  Biso   1.000  C
  C28      1.0000 0.54810  0.57580  0.13200  Biso   1.000  C
  C29      1.0000 0.04810  0.92420  0.86800  Biso   1.000  C
  C30      1.0000 0.04810  0.92420  0.13200  Biso   1.000  C
  C31      1.0000 0.54810  0.57580  0.86800  Biso   1.000  C
  C32      1.0000 0.45190  0.42420  0.86800  Biso   1.000  C
  H25      1.0000 0.00810  0.05410  0.05640  Biso   1.000  H
  H26      1.0000 0.00810  0.05410  0.94360  Biso   1.000  H
  H27      1.0000 0.50810  0.44590  0.05640  Biso   1.000  H
  H28      1.0000 0.49190  0.55410  0.05640  Biso   1.000  H
  H29      1.0000 0.99190  0.94590  0.94360  Biso   1.000  H
  H30      1.0000 0.99190  0.94590  0.05640  Biso   1.000  H
  H31      1.0000 0.49190  0.55410  0.94360  Biso   1.000  H
  H32      1.0000 0.50810  0.44590  0.94360  Biso   1.000  H
  C33      1.0000 0.98230  0.13530  0.19700  Biso   1.000  C
  C34      1.0000 0.98230  0.13530  0.80300  Biso   1.000  C
  C35      1.0000 0.48230  0.36470  0.19700  Biso   1.000  C
  C36      1.0000 0.51770  0.63530  0.19700  Biso   1.000  C
  C37      1.0000 0.01770  0.86470  0.80300  Biso   1.000  C
  C38      1.0000 0.01770  0.86470  0.19700  Biso   1.000  C
  C39      1.0000 0.51770  0.63530  0.80300  Biso   1.000  C
  C40      1.0000 0.48230  0.36470  0.80300  Biso   1.000  C
  H33      1.0000 0.06010  0.15440  0.16980  Biso   1.000  H
  H34      1.0000 0.06010  0.15440  0.83020  Biso   1.000  H
  H35      1.0000 0.56010  0.34560  0.16980  Biso   1.000  H
  H36      1.0000 0.43990  0.65440  0.16980  Biso   1.000  H
  H37      1.0000 0.93990  0.84560  0.83020  Biso   1.000  H
  H38      1.0000 0.93990  0.84560  0.16980  Biso   1.000  H
  H39      1.0000 0.43990  0.65440  0.83020  Biso   1.000  H
  H40      1.0000 0.56010  0.34560  0.83020  Biso   1.000  H
  C41      1.0000 0.89630  0.16550  0.30210  Biso   1.000  C
  C42      1.0000 0.89630  0.16550  0.69790  Biso   1.000  C
  C43      1.0000 0.39630  0.33450  0.30210  Biso   1.000  C
  C44      1.0000 0.60370  0.66550  0.30210  Biso   1.000  C
  C45      1.0000 0.10370  0.83450  0.69790  Biso   1.000  C
  C46      1.0000 0.10370  0.83450  0.30210  Biso   1.000  C
  C47      1.0000 0.60370  0.66550  0.69790  Biso   1.000  C
  C48      1.0000 0.39630  0.33450  0.69790  Biso   1.000  C
  C49      1.0000 0.42920  0.27080  0.38010  Biso   1.000  C
  C50      1.0000 0.42920  0.27080  0.61990  Biso   1.000  C
  C51      1.0000 0.92920  0.22920  0.38010  Biso   1.000  C
  C52      1.0000 0.07080  0.77080  0.38010  Biso   1.000  C
  C53      1.0000 0.57080  0.72920  0.61990  Biso   1.000  C
  C54      1.0000 0.57080  0.72920  0.38010  Biso   1.000  C
  C55      1.0000 0.07080  0.77080  0.61990  Biso   1.000  C
  C56      1.0000 0.92920  0.22920  0.61990  Biso   1.000  C
  H41      1.0000 0.36170  0.25690  0.46060  Biso   1.000  H
  H42      1.0000 0.36170  0.25690  0.53940  Biso   1.000  H
  H43      1.0000 0.86170  0.24310  0.46060  Biso   1.000  H
  H44      1.0000 0.13830  0.75690  0.46060  Biso   1.000  H
  H45      1.0000 0.63830  0.74310  0.53940  Biso   1.000  H
  H46      1.0000 0.63830  0.74310  0.46060  Biso   1.000  H
  H47      1.0000 0.13830  0.75690  0.53940  Biso   1.000  H
  H48      1.0000 0.86170  0.24310  0.53940  Biso   1.000  H
  H49      1.0000 0.43640  0.23930  0.28370  Biso   1.000  H
  H50      1.0000 0.43640  0.23930  0.71630  Biso   1.000  H
  H51      1.0000 0.93640  0.26070  0.28370  Biso   1.000  H
  H52      1.0000 0.06360  0.73930  0.28370  Biso   1.000  H
  H53      1.0000 0.56360  0.76070  0.71630  Biso   1.000  H
  H54      1.0000 0.56360  0.76070  0.28370  Biso   1.000  H
  H55      1.0000 0.06360  0.73930  0.71630  Biso   1.000  H
  H56      1.0000 0.93640  0.26070  0.71630  Biso   1.000  H
  S9       1.0000 0.78200  0.15242  0.22350  Biso   1.000  S
  S10      1.0000 0.78200  0.15242  0.77650  Biso   1.000  S
  S11      1.0000 0.28200  0.34758  0.22350  Biso   1.000  S
  S12      1.0000 0.71800  0.65242  0.22350  Biso   1.000  S
  S13      1.0000 0.21800  0.84758  0.77650  Biso   1.000  S
  S14      1.0000 0.21800  0.84758  0.22350  Biso   1.000  S
  S15      1.0000 0.71800  0.65242  0.77650  Biso   1.000  S
  S16      1.0000 0.28200  0.34758  0.77650  Biso   1.000  S
  C57      1.0000 0.93940  0.14900  0.27900  Biso   1.000  C
  C58      1.0000 0.93940  0.14900  0.72100  Biso   1.000  C
  C59      1.0000 0.43940  0.35100  0.27900  Biso   1.000  C
  C60      1.0000 0.56060  0.64900  0.27900  Biso   1.000  C
  C61      1.0000 0.06060  0.85100  0.72100  Biso   1.000  C
  C62      1.0000 0.06060  0.85100  0.27900  Biso   1.000  C
  C63      1.0000 0.56060  0.64900  0.72100  Biso   1.000  C
  C64      1.0000 0.43940  0.35100  0.72100  Biso   1.000  C
  C65      1.0000 0.97210  0.09020  0.32030  Biso   1.000  C
  C66      1.0000 0.97210  0.09020  0.67970  Biso   1.000  C
  C67      1.0000 0.47210  0.40980  0.32030  Biso   1.000  C
  C68      1.0000 0.52790  0.59020  0.32030  Biso   1.000  C
  C69      1.0000 0.02790  0.90980  0.67970  Biso   1.000  C
  C70      1.0000 0.02790  0.90980  0.32030  Biso   1.000  C
  C71      1.0000 0.52790  0.59020  0.67970  Biso   1.000  C
  C72      1.0000 0.47210  0.40980  0.67970  Biso   1.000  C
  H57      1.0000 0.05640  0.07870  0.34190  Biso   1.000  H
  H58      1.0000 0.05640  0.07870  0.65810  Biso   1.000  H
  H59      1.0000 0.55640  0.42130  0.34190  Biso   1.000  H
  H60      1.0000 0.44360  0.57870  0.34190  Biso   1.000  H
  H61      1.0000 0.94360  0.92130  0.65810  Biso   1.000  H
  H62      1.0000 0.94360  0.92130  0.34190  Biso   1.000  H
  H63      1.0000 0.44360  0.57870  0.65810  Biso   1.000  H
  H64      1.0000 0.55640  0.42130  0.65810  Biso   1.000  H
  C73      1.0000 0.87400  0.04620  0.33000  Biso   1.000  C
  C74      1.0000 0.87400  0.04620  0.67000  Biso   1.000  C
  C75      1.0000 0.37400  0.45380  0.33000  Biso   1.000  C
  C76      1.0000 0.62600  0.54620  0.33000  Biso   1.000  C
  C77      1.0000 0.12600  0.95380  0.67000  Biso   1.000  C
  C78      1.0000 0.12600  0.95380  0.33000  Biso   1.000  C
  C79      1.0000 0.62600  0.54620  0.67000  Biso   1.000  C
  C80      1.0000 0.37400  0.45380  0.67000  Biso   1.000  C
  H65      1.0000 0.88140  0.00380  0.37020  Biso   1.000  H
  H66      1.0000 0.88140  0.00380  0.62980  Biso   1.000  H
  H67      1.0000 0.38140  0.49620  0.37020  Biso   1.000  H
  H68      1.0000 0.61860  0.50380  0.37020  Biso   1.000  H
  H69      1.0000 0.11860  0.99620  0.62980  Biso   1.000  H
  H70      1.0000 0.11860  0.99620  0.37020  Biso   1.000  H
  H71      1.0000 0.61860  0.50380  0.62980  Biso   1.000  H
  H72      1.0000 0.38140  0.49620  0.62980  Biso   1.000  H
  C81      1.0000 0.76800  0.07370  0.27400  Biso   1.000  C
  C82      1.0000 0.76800  0.07370  0.72600  Biso   1.000  C
  C83      1.0000 0.26800  0.42630  0.27400  Biso   1.000  C
  C84      1.0000 0.73200  0.57370  0.27400  Biso   1.000  C
  C85      1.0000 0.23200  0.92630  0.72600  Biso   1.000  C
  C86      1.0000 0.23200  0.92630  0.27400  Biso   1.000  C
  C87      1.0000 0.73200  0.57370  0.72600  Biso   1.000  C
  C88      1.0000 0.26800  0.42630  0.72600  Biso   1.000  C
  C89      1.0000 0.51630  0.29130  0.27330  Biso   1.000  C
  C90      1.0000 0.51630  0.29130  0.72670  Biso   1.000  C
  C91      1.0000 0.01630  0.20870  0.27330  Biso   1.000  C
  C92      1.0000 0.98370  0.79130  0.27330  Biso   1.000  C
  C93      1.0000 0.48370  0.70870  0.72670  Biso   1.000  C
  C94      1.0000 0.48370  0.70870  0.27330  Biso   1.000  C
  C95      1.0000 0.98370  0.79130  0.72670  Biso   1.000  C
  C96      1.0000 0.01630  0.20870  0.72670  Biso   1.000  C
  H73      1.0000 0.46490  0.25580  0.23000  Biso   1.000  H
  H74      1.0000 0.46490  0.25580  0.77000  Biso   1.000  H
  H75      1.0000 0.96490  0.24420  0.23000  Biso   1.000  H
  H76      1.0000 0.03510  0.75580  0.23000  Biso   1.000  H
  H77      1.0000 0.53510  0.74420  0.77000  Biso   1.000  H
  H78      1.0000 0.53510  0.74420  0.23000  Biso   1.000  H
  H79      1.0000 0.03510  0.75580  0.77000  Biso   1.000  H
  H80      1.0000 0.96490  0.24420  0.77000  Biso   1.000  H
  H81      1.0000 0.58780  0.29680  0.19180  Biso   1.000  H
  H82      1.0000 0.58780  0.29680  0.80820  Biso   1.000  H
  H83      1.0000 0.08780  0.20320  0.19180  Biso   1.000  H
  H84      1.0000 0.91220  0.79680  0.19180  Biso   1.000  H
  H85      1.0000 0.41220  0.70320  0.80820  Biso   1.000  H
  H86      1.0000 0.41220  0.70320  0.19180  Biso   1.000  H
  H87      1.0000 0.91220  0.79680  0.80820  Biso   1.000  H
  H88      1.0000 0.08780  0.20320  0.80820  Biso   1.000  H
  P1       1.0000 0.34860  0.13125  0.00000  Biso   1.000  P
  P2       1.0000 0.84860  0.36875  0.00000  Biso   1.000  P
  P3       1.0000 0.15140  0.63125  0.00000  Biso   1.000  P
  P4       1.0000 0.65140  0.86875  0.00000  Biso   1.000  P
  F1       1.0000 0.40390  0.06150  0.00000  Biso   1.000  F
  F2       1.0000 0.90390  0.43850  0.00000  Biso   1.000  F
  F3       1.0000 0.09610  0.56150  0.00000  Biso   1.000  F
  F4       1.0000 0.59610  0.93850  0.00000  Biso   1.000  F
