data_image0
_cell_length_a       18.1226
_cell_length_b       18.1226
_cell_length_c       8.7244
_cell_angle_alpha    90
_cell_angle_beta     90
_cell_angle_gamma    120

_symmetry_space_group_name_H-M    "P 1"
_symmetry_int_tables_number       1

loop_
  _symmetry_equiv_pos_as_xyz
  'x, y, z'

loop_
  _atom_site_label
  _atom_site_occupancy
  _atom_site_fract_x
  _atom_site_fract_y
  _atom_site_fract_z
  _atom_site_thermal_displace_type
  _atom_site_B_iso_or_equiv
  _atom_site_type_symbol
  Cu1      1.0000 0.53640  0.07279  0.25000  Biso   1.000  Cu
  Cu2      1.0000 0.92721  0.46361  0.25000  Biso   1.000  Cu
  Cu3      1.0000 0.53639  0.46360  0.25000  Biso   1.000  Cu
  Cu4      1.0000 0.46361  0.53640  0.75000  Biso   1.000  Cu
  Cu5      1.0000 0.07279  0.53639  0.75000  Biso   1.000  Cu
  Cu6      1.0000 0.46360  0.92721  0.75000  Biso   1.000  Cu
  C1       1.0000 0.58800  0.25550  0.25000  Biso   1.000  C
  C2       1.0000 0.74450  0.33250  0.25000  Biso   1.000  C
  C3       1.0000 0.66750  0.41200  0.25000  Biso   1.000  C
  C4       1.0000 0.33250  0.58800  0.75000  Biso   1.000  C
  C5       1.0000 0.25550  0.66750  0.75000  Biso   1.000  C
  C6       1.0000 0.25550  0.58800  0.75000  Biso   1.000  C
  C7       1.0000 0.58800  0.33250  0.25000  Biso   1.000  C
  C8       1.0000 0.66750  0.25550  0.25000  Biso   1.000  C
  C9       1.0000 0.41200  0.74450  0.75000  Biso   1.000  C
  C10      1.0000 0.33250  0.74450  0.75000  Biso   1.000  C
  C11      1.0000 0.41200  0.66750  0.75000  Biso   1.000  C
  C12      1.0000 0.74450  0.41200  0.25000  Biso   1.000  C
  N1       1.0000 0.51440  0.17930  0.25000  Biso   1.000  N
  N2       1.0000 0.82070  0.33510  0.25000  Biso   1.000  N
  N3       1.0000 0.66490  0.48560  0.25000  Biso   1.000  N
  N4       1.0000 0.33510  0.51440  0.75000  Biso   1.000  N
  N5       1.0000 0.17930  0.66490  0.75000  Biso   1.000  N
  N6       1.0000 0.17930  0.51440  0.75000  Biso   1.000  N
  N7       1.0000 0.51440  0.33510  0.25000  Biso   1.000  N
  N8       1.0000 0.66490  0.17930  0.25000  Biso   1.000  N
  N9       1.0000 0.48560  0.82070  0.75000  Biso   1.000  N
  N10      1.0000 0.33510  0.82070  0.75000  Biso   1.000  N
  N11      1.0000 0.48560  0.66490  0.75000  Biso   1.000  N
  N12      1.0000 0.82070  0.48560  0.25000  Biso   1.000  N
  C13      1.0000 0.50894  0.01790  0.05880  Biso   1.000  C
  C14      1.0000 0.98210  0.49104  0.05880  Biso   1.000  C
  C15      1.0000 0.50896  0.49106  0.05880  Biso   1.000  C
  C16      1.0000 0.49104  0.50894  0.55880  Biso   1.000  C
  C17      1.0000 0.01790  0.50896  0.55880  Biso   1.000  C
  C18      1.0000 0.01790  0.50894  0.94120  Biso   1.000  C
  C19      1.0000 0.50894  0.49104  0.44120  Biso   1.000  C
  C20      1.0000 0.50896  0.01790  0.44120  Biso   1.000  C
  C21      1.0000 0.49106  0.98210  0.55880  Biso   1.000  C
  C22      1.0000 0.49104  0.98210  0.94120  Biso   1.000  C
  C23      1.0000 0.49106  0.50896  0.94120  Biso   1.000  C
  C24      1.0000 0.98210  0.49106  0.44120  Biso   1.000  C
  C25      1.0000 0.44430  0.18400  0.25000  Biso   1.000  C
  C26      1.0000 0.81600  0.26030  0.25000  Biso   1.000  C
  C27      1.0000 0.73970  0.55570  0.25000  Biso   1.000  C
  C28      1.0000 0.26030  0.44430  0.75000  Biso   1.000  C
  C29      1.0000 0.18400  0.73970  0.75000  Biso   1.000  C
  C30      1.0000 0.18400  0.44430  0.75000  Biso   1.000  C
  C31      1.0000 0.44430  0.26030  0.25000  Biso   1.000  C
  C32      1.0000 0.73970  0.18400  0.25000  Biso   1.000  C
  C33      1.0000 0.55570  0.81600  0.75000  Biso   1.000  C
  C34      1.0000 0.26030  0.81600  0.75000  Biso   1.000  C
  C35      1.0000 0.55570  0.73970  0.75000  Biso   1.000  C
  C36      1.0000 0.81600  0.55570  0.25000  Biso   1.000  C
  O1       1.0000 0.48570  0.24290  0.91900  Biso   1.000  O
  O2       1.0000 0.75710  0.24280  0.91900  Biso   1.000  O
  O3       1.0000 0.75720  0.51430  0.91900  Biso   1.000  O
  O4       1.0000 0.24280  0.48570  0.41900  Biso   1.000  O
  O5       1.0000 0.24290  0.75720  0.41900  Biso   1.000  O
  O6       1.0000 0.24290  0.48570  0.08100  Biso   1.000  O
  O7       1.0000 0.48570  0.24280  0.58100  Biso   1.000  O
  O8       1.0000 0.75720  0.24290  0.58100  Biso   1.000  O
  O9       1.0000 0.51430  0.75710  0.41900  Biso   1.000  O
  O10      1.0000 0.24280  0.75710  0.08100  Biso   1.000  O
  O11      1.0000 0.51430  0.75720  0.08100  Biso   1.000  O
  O12      1.0000 0.75710  0.51430  0.58100  Biso   1.000  O
  C37      1.0000 0.46480  0.18640  0.83500  Biso   1.000  C
  C38      1.0000 0.81360  0.27840  0.83500  Biso   1.000  C
  C39      1.0000 0.72160  0.53520  0.83500  Biso   1.000  C
  C40      1.0000 0.27840  0.46480  0.33500  Biso   1.000  C
  C41      1.0000 0.18640  0.72160  0.33500  Biso   1.000  C
  C42      1.0000 0.18640  0.46480  0.16500  Biso   1.000  C
  C43      1.0000 0.46480  0.27840  0.66500  Biso   1.000  C
  C44      1.0000 0.72160  0.18640  0.66500  Biso   1.000  C
  C45      1.0000 0.53520  0.81360  0.33500  Biso   1.000  C
  C46      1.0000 0.27840  0.81360  0.16500  Biso   1.000  C
  C47      1.0000 0.53520  0.72160  0.16500  Biso   1.000  C
  C48      1.0000 0.81360  0.53520  0.66500  Biso   1.000  C
  C49      1.0000 0.53520  0.81360  0.16500  Biso   1.000  C
  C50      1.0000 0.18640  0.72160  0.16500  Biso   1.000  C
  C51      1.0000 0.27840  0.46480  0.16500  Biso   1.000  C
  C52      1.0000 0.72160  0.53520  0.66500  Biso   1.000  C
  C53      1.0000 0.81360  0.27840  0.66500  Biso   1.000  C
  C54      1.0000 0.81360  0.53520  0.83500  Biso   1.000  C
  C55      1.0000 0.53520  0.72160  0.33500  Biso   1.000  C
  C56      1.0000 0.27840  0.81360  0.33500  Biso   1.000  C
  C57      1.0000 0.46480  0.18640  0.66500  Biso   1.000  C
  C58      1.0000 0.72160  0.18640  0.83500  Biso   1.000  C
  C59      1.0000 0.46480  0.27840  0.83500  Biso   1.000  C
  C60      1.0000 0.18640  0.46480  0.33500  Biso   1.000  C
  N13      1.0000 0.32230  0.03010  0.25000  Biso   1.000  N
  N14      1.0000 0.96990  0.29220  0.25000  Biso   1.000  N
  N15      1.0000 0.70780  0.67770  0.25000  Biso   1.000  N
  N16      1.0000 0.29220  0.32230  0.75000  Biso   1.000  N
  N17      1.0000 0.03010  0.70780  0.75000  Biso   1.000  N
  N18      1.0000 0.03010  0.32230  0.75000  Biso   1.000  N
  N19      1.0000 0.32230  0.29220  0.25000  Biso   1.000  N
  N20      1.0000 0.70780  0.03010  0.25000  Biso   1.000  N
  N21      1.0000 0.67770  0.96990  0.75000  Biso   1.000  N
  N22      1.0000 0.29220  0.96990  0.75000  Biso   1.000  N
  N23      1.0000 0.67770  0.70780  0.75000  Biso   1.000  N
  N24      1.0000 0.96990  0.67770  0.25000  Biso   1.000  N
  O13      1.0000 0.36290  0.12840  0.25000  Biso   1.000  O
  O14      1.0000 0.87160  0.23450  0.25000  Biso   1.000  O
  O15      1.0000 0.76550  0.63710  0.25000  Biso   1.000  O
  O16      1.0000 0.23450  0.36290  0.75000  Biso   1.000  O
  O17      1.0000 0.12840  0.76550  0.75000  Biso   1.000  O
  O18      1.0000 0.12840  0.36290  0.75000  Biso   1.000  O
  O19      1.0000 0.36290  0.23450  0.25000  Biso   1.000  O
  O20      1.0000 0.76550  0.12840  0.25000  Biso   1.000  O
  O21      1.0000 0.63710  0.87160  0.75000  Biso   1.000  O
  O22      1.0000 0.23450  0.87160  0.75000  Biso   1.000  O
  O23      1.0000 0.63710  0.76550  0.75000  Biso   1.000  O
  O24      1.0000 0.87160  0.63710  0.25000  Biso   1.000  O
  C61      1.0000 0.37120  0.09140  0.25000  Biso   1.000  C
  C62      1.0000 0.90860  0.27980  0.25000  Biso   1.000  C
  C63      1.0000 0.72020  0.62880  0.25000  Biso   1.000  C
  C64      1.0000 0.27980  0.37120  0.75000  Biso   1.000  C
  C65      1.0000 0.09140  0.72020  0.75000  Biso   1.000  C
  C66      1.0000 0.09140  0.37120  0.75000  Biso   1.000  C
  C67      1.0000 0.37120  0.27980  0.25000  Biso   1.000  C
  C68      1.0000 0.72020  0.09140  0.25000  Biso   1.000  C
  C69      1.0000 0.62880  0.90860  0.75000  Biso   1.000  C
  C70      1.0000 0.27980  0.90860  0.75000  Biso   1.000  C
  C71      1.0000 0.62880  0.72020  0.75000  Biso   1.000  C
  C72      1.0000 0.90860  0.62880  0.25000  Biso   1.000  C
  C73      1.0000 0.42400  0.25800  0.82600  Biso   1.000  C
  C74      1.0000 0.74200  0.16600  0.82600  Biso   1.000  C
  C75      1.0000 0.83400  0.57600  0.82600  Biso   1.000  C
  C76      1.0000 0.16600  0.42400  0.32600  Biso   1.000  C
  C77      1.0000 0.25800  0.83400  0.32600  Biso   1.000  C
  C78      1.0000 0.25800  0.42400  0.17400  Biso   1.000  C
  C79      1.0000 0.42400  0.16600  0.67400  Biso   1.000  C
  C80      1.0000 0.83400  0.25800  0.67400  Biso   1.000  C
  C81      1.0000 0.57600  0.74200  0.32600  Biso   1.000  C
  C82      1.0000 0.16600  0.74200  0.17400  Biso   1.000  C
  C83      1.0000 0.57600  0.83400  0.17400  Biso   1.000  C
  C84      1.0000 0.74200  0.57600  0.67400  Biso   1.000  C
  C85      1.0000 0.57600  0.74200  0.17400  Biso   1.000  C
  C86      1.0000 0.25800  0.83400  0.17400  Biso   1.000  C
  C87      1.0000 0.16600  0.42400  0.17400  Biso   1.000  C
  C88      1.0000 0.83400  0.57600  0.67400  Biso   1.000  C
  C89      1.0000 0.74200  0.16600  0.67400  Biso   1.000  C
  C90      1.0000 0.74200  0.57600  0.82600  Biso   1.000  C
  C91      1.0000 0.57600  0.83400  0.32600  Biso   1.000  C
  C92      1.0000 0.16600  0.74200  0.32600  Biso   1.000  C
  C93      1.0000 0.42400  0.25800  0.67400  Biso   1.000  C
  C94      1.0000 0.83400  0.25800  0.82600  Biso   1.000  C
  C95      1.0000 0.42400  0.16600  0.82600  Biso   1.000  C
  C96      1.0000 0.25800  0.42400  0.32600  Biso   1.000  C
  C97      1.0000 0.51900  0.28800  0.84900  Biso   1.000  C
  C98      1.0000 0.71200  0.23100  0.84900  Biso   1.000  C
  C99      1.0000 0.76900  0.48100  0.84900  Biso   1.000  C
  C100     1.0000 0.23100  0.51900  0.34900  Biso   1.000  C
  C101     1.0000 0.28800  0.76900  0.34900  Biso   1.000  C
  C102     1.0000 0.28800  0.51900  0.15100  Biso   1.000  C
  C103     1.0000 0.51900  0.23100  0.65100  Biso   1.000  C
  C104     1.0000 0.76900  0.28800  0.65100  Biso   1.000  C
  C105     1.0000 0.48100  0.71200  0.34900  Biso   1.000  C
  C106     1.0000 0.23100  0.71200  0.15100  Biso   1.000  C
  C107     1.0000 0.48100  0.76900  0.15100  Biso   1.000  C
  C108     1.0000 0.71200  0.48100  0.65100  Biso   1.000  C
  C109     1.0000 0.48100  0.71200  0.15100  Biso   1.000  C
  C110     1.0000 0.28800  0.76900  0.15100  Biso   1.000  C
  C111     1.0000 0.23100  0.51900  0.15100  Biso   1.000  C
  C112     1.0000 0.76900  0.48100  0.65100  Biso   1.000  C
  C113     1.0000 0.71200  0.23100  0.65100  Biso   1.000  C
  C114     1.0000 0.71200  0.48100  0.84900  Biso   1.000  C
  C115     1.0000 0.48100  0.76900  0.34900  Biso   1.000  C
  C116     1.0000 0.23100  0.71200  0.34900  Biso   1.000  C
  C117     1.0000 0.51900  0.28800  0.65100  Biso   1.000  C
  C118     1.0000 0.76900  0.28800  0.84900  Biso   1.000  C
  C119     1.0000 0.51900  0.23100  0.84900  Biso   1.000  C
  C120     1.0000 0.28800  0.51900  0.34900  Biso   1.000  C
  C121     1.0000 0.51600  0.19620  0.81900  Biso   1.000  C
  C122     1.0000 0.80380  0.31980  0.81900  Biso   1.000  C
  C123     1.0000 0.68020  0.48400  0.81900  Biso   1.000  C
  C124     1.0000 0.31980  0.51600  0.31900  Biso   1.000  C
  C125     1.0000 0.19620  0.68020  0.31900  Biso   1.000  C
  C126     1.0000 0.19620  0.51600  0.18100  Biso   1.000  C
  C127     1.0000 0.51600  0.31980  0.68100  Biso   1.000  C
  C128     1.0000 0.68020  0.19620  0.68100  Biso   1.000  C
  C129     1.0000 0.48400  0.80380  0.31900  Biso   1.000  C
  C130     1.0000 0.31980  0.80380  0.18100  Biso   1.000  C
  C131     1.0000 0.48400  0.68020  0.18100  Biso   1.000  C
  C132     1.0000 0.80380  0.48400  0.68100  Biso   1.000  C
  C133     1.0000 0.48400  0.80380  0.18100  Biso   1.000  C
  C134     1.0000 0.19620  0.68020  0.18100  Biso   1.000  C
  C135     1.0000 0.31980  0.51600  0.18100  Biso   1.000  C
  C136     1.0000 0.68020  0.48400  0.68100  Biso   1.000  C
  C137     1.0000 0.80380  0.31980  0.68100  Biso   1.000  C
  C138     1.0000 0.80380  0.48400  0.81900  Biso   1.000  C
  C139     1.0000 0.48400  0.68020  0.31900  Biso   1.000  C
  C140     1.0000 0.31980  0.80380  0.31900  Biso   1.000  C
  C141     1.0000 0.51600  0.19620  0.68100  Biso   1.000  C
  C142     1.0000 0.68020  0.19620  0.81900  Biso   1.000  C
  C143     1.0000 0.51600  0.31980  0.81900  Biso   1.000  C
  C144     1.0000 0.19620  0.51600  0.31900  Biso   1.000  C
  C145     1.0000 0.25200  0.98600  0.25000  Biso   1.000  C
  C146     1.0000 0.01400  0.26600  0.25000  Biso   1.000  C
  C147     1.0000 0.73400  0.74800  0.25000  Biso   1.000  C
  C148     1.0000 0.26600  0.25200  0.75000  Biso   1.000  C
  C149     1.0000 0.98600  0.73400  0.75000  Biso   1.000  C
  C150     1.0000 0.98600  0.25200  0.75000  Biso   1.000  C
  C151     1.0000 0.25200  0.26600  0.25000  Biso   1.000  C
  C152     1.0000 0.73400  0.98600  0.25000  Biso   1.000  C
  C153     1.0000 0.74800  0.01400  0.75000  Biso   1.000  C
  C154     1.0000 0.26600  0.01400  0.75000  Biso   1.000  C
  C155     1.0000 0.74800  0.73400  0.75000  Biso   1.000  C
  C156     1.0000 0.01400  0.74800  0.25000  Biso   1.000  C
  C157     1.0000 0.25100  0.99600  0.33500  Biso   1.000  C
  C158     1.0000 0.00400  0.25500  0.33500  Biso   1.000  C
  C159     1.0000 0.74500  0.74900  0.33500  Biso   1.000  C
  C160     1.0000 0.25500  0.25100  0.83500  Biso   1.000  C
  C161     1.0000 0.99600  0.74500  0.83500  Biso   1.000  C
  C162     1.0000 0.99600  0.25100  0.66500  Biso   1.000  C
  C163     1.0000 0.25100  0.25500  0.16500  Biso   1.000  C
  C164     1.0000 0.74500  0.99600  0.16500  Biso   1.000  C
  C165     1.0000 0.74900  0.00400  0.83500  Biso   1.000  C
  C166     1.0000 0.25500  0.00400  0.66500  Biso   1.000  C
  C167     1.0000 0.74900  0.74500  0.66500  Biso   1.000  C
  C168     1.0000 0.00400  0.74900  0.16500  Biso   1.000  C
  C169     1.0000 0.74900  0.00400  0.66500  Biso   1.000  C
  C170     1.0000 0.99600  0.74500  0.66500  Biso   1.000  C
  C171     1.0000 0.25500  0.25100  0.66500  Biso   1.000  C
  C172     1.0000 0.74500  0.74900  0.16500  Biso   1.000  C
  C173     1.0000 0.00400  0.25500  0.16500  Biso   1.000  C
  C174     1.0000 0.00400  0.74900  0.33500  Biso   1.000  C
  C175     1.0000 0.74900  0.74500  0.83500  Biso   1.000  C
  C176     1.0000 0.25500  0.00400  0.83500  Biso   1.000  C
  C177     1.0000 0.25100  0.99600  0.16500  Biso   1.000  C
  C178     1.0000 0.74500  0.99600  0.33500  Biso   1.000  C
  C179     1.0000 0.25100  0.25500  0.33500  Biso   1.000  C
  C180     1.0000 0.99600  0.25100  0.83500  Biso   1.000  C
  C181     1.0000 0.34100  0.03700  0.31700  Biso   1.000  C
  C182     1.0000 0.96300  0.30400  0.31700  Biso   1.000  C
  C183     1.0000 0.69600  0.65900  0.31700  Biso   1.000  C
  C184     1.0000 0.30400  0.34100  0.81700  Biso   1.000  C
  C185     1.0000 0.03700  0.69600  0.81700  Biso   1.000  C
  C186     1.0000 0.03700  0.34100  0.68300  Biso   1.000  C
  C187     1.0000 0.34100  0.30400  0.18300  Biso   1.000  C
  C188     1.0000 0.69600  0.03700  0.18300  Biso   1.000  C
  C189     1.0000 0.65900  0.96300  0.81700  Biso   1.000  C
  C190     1.0000 0.30400  0.96300  0.68300  Biso   1.000  C
  C191     1.0000 0.65900  0.69600  0.68300  Biso   1.000  C
  C192     1.0000 0.96300  0.65900  0.18300  Biso   1.000  C
  C193     1.0000 0.65900  0.96300  0.68300  Biso   1.000  C
  C194     1.0000 0.03700  0.69600  0.68300  Biso   1.000  C
  C195     1.0000 0.30400  0.34100  0.68300  Biso   1.000  C
  C196     1.0000 0.69600  0.65900  0.18300  Biso   1.000  C
  C197     1.0000 0.96300  0.30400  0.18300  Biso   1.000  C
  C198     1.0000 0.96300  0.65900  0.31700  Biso   1.000  C
  C199     1.0000 0.65900  0.69600  0.81700  Biso   1.000  C
  C200     1.0000 0.30400  0.96300  0.81700  Biso   1.000  C
  C201     1.0000 0.34100  0.03700  0.18300  Biso   1.000  C
  C202     1.0000 0.69600  0.03700  0.31700  Biso   1.000  C
  C203     1.0000 0.34100  0.30400  0.31700  Biso   1.000  C
  C204     1.0000 0.03700  0.34100  0.81700  Biso   1.000  C
