data_image0
_cell_length_a       18.034
_cell_length_b       18.034
_cell_length_c       8.791
_cell_angle_alpha    90
_cell_angle_beta     90
_cell_angle_gamma    120

_symmetry_space_group_name_H-M    "P 1"
_symmetry_int_tables_number       1

loop_
  _symmetry_equiv_pos_as_xyz
  'x, y, z'

loop_
  _atom_site_label
  _atom_site_occupancy
  _atom_site_fract_x
  _atom_site_fract_y
  _atom_site_fract_z
  _atom_site_thermal_displace_type
  _atom_site_B_iso_or_equiv
  _atom_site_type_symbol
  Cu1      1.0000 0.53610  0.07220  0.75000  Biso   1.000  Cu
  Cu2      1.0000 0.92780  0.46390  0.75000  Biso   1.000  Cu
  Cu3      1.0000 0.53610  0.46390  0.75000  Biso   1.000  Cu
  Cu4      1.0000 0.46390  0.53610  0.25000  Biso   1.000  Cu
  Cu5      1.0000 0.07220  0.53610  0.25000  Biso   1.000  Cu
  Cu6      1.0000 0.46390  0.92780  0.25000  Biso   1.000  Cu
  N1       1.0000 0.50861  0.01720  0.55850  Biso   1.000  N
  N2       1.0000 0.98280  0.49141  0.55850  Biso   1.000  N
  N3       1.0000 0.50859  0.49139  0.55850  Biso   1.000  N
  N4       1.0000 0.49141  0.50861  0.05850  Biso   1.000  N
  N5       1.0000 0.01720  0.50859  0.05850  Biso   1.000  N
  N6       1.0000 0.01720  0.50861  0.44150  Biso   1.000  N
  N7       1.0000 0.50861  0.49141  0.94150  Biso   1.000  N
  N8       1.0000 0.50859  0.01720  0.94150  Biso   1.000  N
  N9       1.0000 0.49139  0.98280  0.05850  Biso   1.000  N
  N10      1.0000 0.49141  0.98280  0.44150  Biso   1.000  N
  N11      1.0000 0.49139  0.50859  0.44150  Biso   1.000  N
  N12      1.0000 0.98280  0.49139  0.94150  Biso   1.000  N
  N13      1.0000 0.51380  0.17890  0.75000  Biso   1.000  N
  N14      1.0000 0.82110  0.33490  0.75000  Biso   1.000  N
  N15      1.0000 0.66510  0.48620  0.75000  Biso   1.000  N
  N16      1.0000 0.33490  0.51380  0.25000  Biso   1.000  N
  N17      1.0000 0.17890  0.66510  0.25000  Biso   1.000  N
  N18      1.0000 0.17890  0.51380  0.25000  Biso   1.000  N
  N19      1.0000 0.51380  0.33490  0.75000  Biso   1.000  N
  N20      1.0000 0.66510  0.17890  0.75000  Biso   1.000  N
  N21      1.0000 0.48620  0.82110  0.25000  Biso   1.000  N
  N22      1.0000 0.33490  0.82110  0.25000  Biso   1.000  N
  N23      1.0000 0.48620  0.66510  0.25000  Biso   1.000  N
  N24      1.0000 0.82110  0.48620  0.75000  Biso   1.000  N
  C1       1.0000 0.58820  0.25570  0.75000  Biso   1.000  C
  C2       1.0000 0.74430  0.33250  0.75000  Biso   1.000  C
  C3       1.0000 0.66750  0.41180  0.75000  Biso   1.000  C
  C4       1.0000 0.33250  0.58820  0.25000  Biso   1.000  C
  C5       1.0000 0.25570  0.66750  0.25000  Biso   1.000  C
  C6       1.0000 0.25570  0.58820  0.25000  Biso   1.000  C
  C7       1.0000 0.58820  0.33250  0.75000  Biso   1.000  C
  C8       1.0000 0.66750  0.25570  0.75000  Biso   1.000  C
  C9       1.0000 0.41180  0.74430  0.25000  Biso   1.000  C
  C10      1.0000 0.33250  0.74430  0.25000  Biso   1.000  C
  C11      1.0000 0.41180  0.66750  0.25000  Biso   1.000  C
  C12      1.0000 0.74430  0.41180  0.75000  Biso   1.000  C
  C13      1.0000 0.44290  0.18240  0.75000  Biso   1.000  C
  C14      1.0000 0.81760  0.26050  0.75000  Biso   1.000  C
  C15      1.0000 0.73950  0.55710  0.75000  Biso   1.000  C
  C16      1.0000 0.26050  0.44290  0.25000  Biso   1.000  C
  C17      1.0000 0.18240  0.73950  0.25000  Biso   1.000  C
  C18      1.0000 0.18240  0.44290  0.25000  Biso   1.000  C
  C19      1.0000 0.44290  0.26050  0.75000  Biso   1.000  C
  C20      1.0000 0.73950  0.18240  0.75000  Biso   1.000  C
  C21      1.0000 0.55710  0.81760  0.25000  Biso   1.000  C
  C22      1.0000 0.26050  0.81760  0.25000  Biso   1.000  C
  C23      1.0000 0.55710  0.73950  0.25000  Biso   1.000  C
  C24      1.0000 0.81760  0.55710  0.75000  Biso   1.000  C
  C25      1.0000 0.46280  0.17310  0.32710  Biso   1.000  C
  C26      1.0000 0.82690  0.28970  0.32710  Biso   1.000  C
  C27      1.0000 0.71030  0.53720  0.32710  Biso   1.000  C
  C28      1.0000 0.28970  0.46280  0.82710  Biso   1.000  C
  C29      1.0000 0.17310  0.71030  0.82710  Biso   1.000  C
  C30      1.0000 0.17310  0.46280  0.67290  Biso   1.000  C
  C31      1.0000 0.46280  0.28970  0.17290  Biso   1.000  C
  C32      1.0000 0.71030  0.17310  0.17290  Biso   1.000  C
  C33      1.0000 0.53720  0.82690  0.82710  Biso   1.000  C
  C34      1.0000 0.28970  0.82690  0.67290  Biso   1.000  C
  C35      1.0000 0.53720  0.71030  0.67290  Biso   1.000  C
  C36      1.0000 0.82690  0.53720  0.17290  Biso   1.000  C
  C37      1.0000 0.53720  0.82690  0.67290  Biso   1.000  C
  C38      1.0000 0.17310  0.71030  0.67290  Biso   1.000  C
  C39      1.0000 0.28970  0.46280  0.67290  Biso   1.000  C
  C40      1.0000 0.71030  0.53720  0.17290  Biso   1.000  C
  C41      1.0000 0.82690  0.28970  0.17290  Biso   1.000  C
  C42      1.0000 0.82690  0.53720  0.32710  Biso   1.000  C
  C43      1.0000 0.53720  0.71030  0.82710  Biso   1.000  C
  C44      1.0000 0.28970  0.82690  0.82710  Biso   1.000  C
  C45      1.0000 0.46280  0.17310  0.17290  Biso   1.000  C
  C46      1.0000 0.71030  0.17310  0.32710  Biso   1.000  C
  C47      1.0000 0.46280  0.28970  0.32710  Biso   1.000  C
  C48      1.0000 0.17310  0.46280  0.82710  Biso   1.000  C
  H1       1.0000 0.44400  0.12100  0.37850  Biso   1.000  H
  H2       1.0000 0.87900  0.32300  0.37850  Biso   1.000  H
  H3       1.0000 0.67700  0.55600  0.37850  Biso   1.000  H
  H4       1.0000 0.32300  0.44400  0.87850  Biso   1.000  H
  H5       1.0000 0.12100  0.67700  0.87850  Biso   1.000  H
  H6       1.0000 0.12100  0.44400  0.62150  Biso   1.000  H
  H7       1.0000 0.44400  0.32300  0.12150  Biso   1.000  H
  H8       1.0000 0.67700  0.12100  0.12150  Biso   1.000  H
  H9       1.0000 0.55600  0.87900  0.87850  Biso   1.000  H
  H10      1.0000 0.32300  0.87900  0.62150  Biso   1.000  H
  H11      1.0000 0.55600  0.67700  0.62150  Biso   1.000  H
  H12      1.0000 0.87900  0.55600  0.12150  Biso   1.000  H
  H13      1.0000 0.55600  0.87900  0.62150  Biso   1.000  H
  H14      1.0000 0.12100  0.67700  0.62150  Biso   1.000  H
  H15      1.0000 0.32300  0.44400  0.62150  Biso   1.000  H
  H16      1.0000 0.67700  0.55600  0.12150  Biso   1.000  H
  H17      1.0000 0.87900  0.32300  0.12150  Biso   1.000  H
  H18      1.0000 0.87900  0.55600  0.37850  Biso   1.000  H
  H19      1.0000 0.55600  0.67700  0.87850  Biso   1.000  H
  H20      1.0000 0.32300  0.87900  0.87850  Biso   1.000  H
  H21      1.0000 0.44400  0.12100  0.12150  Biso   1.000  H
  H22      1.0000 0.67700  0.12100  0.37850  Biso   1.000  H
  H23      1.0000 0.44400  0.32300  0.37850  Biso   1.000  H
  H24      1.0000 0.12100  0.44400  0.87850  Biso   1.000  H
  C49      1.0000 0.51240  0.19680  0.17040  Biso   1.000  C
  C50      1.0000 0.80320  0.31560  0.17040  Biso   1.000  C
  C51      1.0000 0.68440  0.48760  0.17040  Biso   1.000  C
  C52      1.0000 0.31560  0.51240  0.67040  Biso   1.000  C
  C53      1.0000 0.19680  0.68440  0.67040  Biso   1.000  C
  C54      1.0000 0.19680  0.51240  0.82960  Biso   1.000  C
  C55      1.0000 0.51240  0.31560  0.32960  Biso   1.000  C
  C56      1.0000 0.68440  0.19680  0.32960  Biso   1.000  C
  C57      1.0000 0.48760  0.80320  0.67040  Biso   1.000  C
  C58      1.0000 0.31560  0.80320  0.82960  Biso   1.000  C
  C59      1.0000 0.48760  0.68440  0.82960  Biso   1.000  C
  C60      1.0000 0.80320  0.48760  0.32960  Biso   1.000  C
  C61      1.0000 0.48760  0.80320  0.82960  Biso   1.000  C
  C62      1.0000 0.19680  0.68440  0.82960  Biso   1.000  C
  C63      1.0000 0.31560  0.51240  0.82960  Biso   1.000  C
  C64      1.0000 0.68440  0.48760  0.32960  Biso   1.000  C
  C65      1.0000 0.80320  0.31560  0.32960  Biso   1.000  C
  C66      1.0000 0.80320  0.48760  0.17040  Biso   1.000  C
  C67      1.0000 0.48760  0.68440  0.67040  Biso   1.000  C
  C68      1.0000 0.31560  0.80320  0.67040  Biso   1.000  C
  C69      1.0000 0.51240  0.19680  0.32960  Biso   1.000  C
  C70      1.0000 0.68440  0.19680  0.17040  Biso   1.000  C
  C71      1.0000 0.51240  0.31560  0.17040  Biso   1.000  C
  C72      1.0000 0.19680  0.51240  0.67040  Biso   1.000  C
  H25      1.0000 0.52960  0.16240  0.11810  Biso   1.000  H
  H26      1.0000 0.83760  0.36720  0.11810  Biso   1.000  H
  H27      1.0000 0.63280  0.47040  0.11810  Biso   1.000  H
  H28      1.0000 0.36720  0.52960  0.61810  Biso   1.000  H
  H29      1.0000 0.16240  0.63280  0.61810  Biso   1.000  H
  H30      1.0000 0.16240  0.52960  0.88190  Biso   1.000  H
  H31      1.0000 0.52960  0.36720  0.38190  Biso   1.000  H
  H32      1.0000 0.63280  0.16240  0.38190  Biso   1.000  H
  H33      1.0000 0.47040  0.83760  0.61810  Biso   1.000  H
  H34      1.0000 0.36720  0.83760  0.88190  Biso   1.000  H
  H35      1.0000 0.47040  0.63280  0.88190  Biso   1.000  H
  H36      1.0000 0.83760  0.47040  0.38190  Biso   1.000  H
  H37      1.0000 0.47040  0.83760  0.88190  Biso   1.000  H
  H38      1.0000 0.16240  0.63280  0.88190  Biso   1.000  H
  H39      1.0000 0.36720  0.52960  0.88190  Biso   1.000  H
  H40      1.0000 0.63280  0.47040  0.38190  Biso   1.000  H
  H41      1.0000 0.83760  0.36720  0.38190  Biso   1.000  H
  H42      1.0000 0.83760  0.47040  0.11810  Biso   1.000  H
  H43      1.0000 0.47040  0.63280  0.61810  Biso   1.000  H
  H44      1.0000 0.36720  0.83760  0.61810  Biso   1.000  H
  H45      1.0000 0.52960  0.16240  0.38190  Biso   1.000  H
  H46      1.0000 0.63280  0.16240  0.11810  Biso   1.000  H
  H47      1.0000 0.52960  0.36720  0.11810  Biso   1.000  H
  H48      1.0000 0.16240  0.52960  0.61810  Biso   1.000  H
  N25      1.0000 0.48850  0.24420  0.40840  Biso   1.000  N
  N26      1.0000 0.75580  0.24430  0.40840  Biso   1.000  N
  N27      1.0000 0.75570  0.51150  0.40840  Biso   1.000  N
  N28      1.0000 0.24430  0.48850  0.90840  Biso   1.000  N
  N29      1.0000 0.24420  0.75570  0.90840  Biso   1.000  N
  N30      1.0000 0.24420  0.48850  0.59160  Biso   1.000  N
  N31      1.0000 0.48850  0.24430  0.09160  Biso   1.000  N
  N32      1.0000 0.75570  0.24420  0.09160  Biso   1.000  N
  N33      1.0000 0.51150  0.75580  0.90840  Biso   1.000  N
  N34      1.0000 0.24430  0.75580  0.59160  Biso   1.000  N
  N35      1.0000 0.51150  0.75570  0.59160  Biso   1.000  N
  N36      1.0000 0.75580  0.51150  0.09160  Biso   1.000  N
  O1       1.0000 0.36160  0.12320  0.75000  Biso   1.000  O
  O2       1.0000 0.87680  0.23840  0.75000  Biso   1.000  O
  O3       1.0000 0.76160  0.63840  0.75000  Biso   1.000  O
  O4       1.0000 0.23840  0.36160  0.25000  Biso   1.000  O
  O5       1.0000 0.12320  0.76160  0.25000  Biso   1.000  O
  O6       1.0000 0.12320  0.36160  0.25000  Biso   1.000  O
  O7       1.0000 0.36160  0.23840  0.75000  Biso   1.000  O
  O8       1.0000 0.76160  0.12320  0.75000  Biso   1.000  O
  O9       1.0000 0.63840  0.87680  0.25000  Biso   1.000  O
  O10      1.0000 0.23840  0.87680  0.25000  Biso   1.000  O
  O11      1.0000 0.63840  0.76160  0.25000  Biso   1.000  O
  O12      1.0000 0.87680  0.63840  0.75000  Biso   1.000  O
  C73      1.0000 0.36900  0.09550  0.75000  Biso   1.000  C
  C74      1.0000 0.90450  0.27350  0.75000  Biso   1.000  C
  C75      1.0000 0.72650  0.63100  0.75000  Biso   1.000  C
  C76      1.0000 0.27350  0.36900  0.25000  Biso   1.000  C
  C77      1.0000 0.09550  0.72650  0.25000  Biso   1.000  C
  C78      1.0000 0.09550  0.36900  0.25000  Biso   1.000  C
  C79      1.0000 0.36900  0.27350  0.75000  Biso   1.000  C
  C80      1.0000 0.72650  0.09550  0.75000  Biso   1.000  C
  C81      1.0000 0.63100  0.90450  0.25000  Biso   1.000  C
  C82      1.0000 0.27350  0.90450  0.25000  Biso   1.000  C
  C83      1.0000 0.63100  0.72650  0.25000  Biso   1.000  C
  C84      1.0000 0.90450  0.63100  0.75000  Biso   1.000  C
  N37      1.0000 0.31100  0.02940  0.75000  Biso   1.000  N
  N38      1.0000 0.97060  0.28160  0.75000  Biso   1.000  N
  N39      1.0000 0.71840  0.68900  0.75000  Biso   1.000  N
  N40      1.0000 0.28160  0.31100  0.25000  Biso   1.000  N
  N41      1.0000 0.02940  0.71840  0.25000  Biso   1.000  N
  N42      1.0000 0.02940  0.31100  0.25000  Biso   1.000  N
  N43      1.0000 0.31100  0.28160  0.75000  Biso   1.000  N
  N44      1.0000 0.71840  0.02940  0.75000  Biso   1.000  N
  N45      1.0000 0.68900  0.97060  0.25000  Biso   1.000  N
  N46      1.0000 0.28160  0.97060  0.25000  Biso   1.000  N
  N47      1.0000 0.68900  0.71840  0.25000  Biso   1.000  N
  N48      1.0000 0.97060  0.68900  0.75000  Biso   1.000  N
  C85      1.0000 0.35300  0.03260  0.75000  Biso   1.000  C
  C86      1.0000 0.96740  0.32040  0.75000  Biso   1.000  C
  C87      1.0000 0.67960  0.64700  0.75000  Biso   1.000  C
  C88      1.0000 0.32040  0.35300  0.25000  Biso   1.000  C
  C89      1.0000 0.03260  0.67960  0.25000  Biso   1.000  C
  C90      1.0000 0.03260  0.35300  0.25000  Biso   1.000  C
  C91      1.0000 0.35300  0.32040  0.75000  Biso   1.000  C
  C92      1.0000 0.67960  0.03260  0.75000  Biso   1.000  C
  C93      1.0000 0.64700  0.96740  0.25000  Biso   1.000  C
  C94      1.0000 0.32040  0.96740  0.25000  Biso   1.000  C
  C95      1.0000 0.64700  0.67960  0.25000  Biso   1.000  C
  C96      1.0000 0.96740  0.64700  0.75000  Biso   1.000  C
  C97      1.0000 0.24200  0.98800  0.70000  Biso   1.000  C
  C98      1.0000 0.01200  0.25400  0.70000  Biso   1.000  C
  C99      1.0000 0.74600  0.75800  0.70000  Biso   1.000  C
  C100     1.0000 0.25400  0.24200  0.20000  Biso   1.000  C
  C101     1.0000 0.98800  0.74600  0.20000  Biso   1.000  C
  C102     1.0000 0.98800  0.24200  0.30000  Biso   1.000  C
  C103     1.0000 0.24200  0.25400  0.80000  Biso   1.000  C
  C104     1.0000 0.74600  0.98800  0.80000  Biso   1.000  C
  C105     1.0000 0.75800  0.01200  0.20000  Biso   1.000  C
  C106     1.0000 0.25400  0.01200  0.30000  Biso   1.000  C
  C107     1.0000 0.75800  0.74600  0.30000  Biso   1.000  C
  C108     1.0000 0.01200  0.75800  0.80000  Biso   1.000  C
  C109     1.0000 0.75800  0.01200  0.30000  Biso   1.000  C
  C110     1.0000 0.98800  0.74600  0.30000  Biso   1.000  C
  C111     1.0000 0.25400  0.24200  0.30000  Biso   1.000  C
  C112     1.0000 0.74600  0.75800  0.80000  Biso   1.000  C
  C113     1.0000 0.01200  0.25400  0.80000  Biso   1.000  C
  C114     1.0000 0.01200  0.75800  0.70000  Biso   1.000  C
  C115     1.0000 0.75800  0.74600  0.20000  Biso   1.000  C
  C116     1.0000 0.25400  0.01200  0.20000  Biso   1.000  C
  C117     1.0000 0.24200  0.98800  0.80000  Biso   1.000  C
  C118     1.0000 0.74600  0.98800  0.70000  Biso   1.000  C
  C119     1.0000 0.24200  0.25400  0.70000  Biso   1.000  C
  C120     1.0000 0.98800  0.24200  0.20000  Biso   1.000  C
  C121     1.0000 0.33800  0.03400  0.68000  Biso   1.000  C
  C122     1.0000 0.96600  0.30400  0.68000  Biso   1.000  C
  C123     1.0000 0.69600  0.66200  0.68000  Biso   1.000  C
  C124     1.0000 0.30400  0.33800  0.18000  Biso   1.000  C
  C125     1.0000 0.03400  0.69600  0.18000  Biso   1.000  C
  C126     1.0000 0.03400  0.33800  0.32000  Biso   1.000  C
  C127     1.0000 0.33800  0.30400  0.82000  Biso   1.000  C
  C128     1.0000 0.69600  0.03400  0.82000  Biso   1.000  C
  C129     1.0000 0.66200  0.96600  0.18000  Biso   1.000  C
  C130     1.0000 0.30400  0.96600  0.32000  Biso   1.000  C
  C131     1.0000 0.66200  0.69600  0.32000  Biso   1.000  C
  C132     1.0000 0.96600  0.66200  0.82000  Biso   1.000  C
  C133     1.0000 0.66200  0.96600  0.32000  Biso   1.000  C
  C134     1.0000 0.03400  0.69600  0.32000  Biso   1.000  C
  C135     1.0000 0.30400  0.33800  0.32000  Biso   1.000  C
  C136     1.0000 0.69600  0.66200  0.82000  Biso   1.000  C
  C137     1.0000 0.96600  0.30400  0.82000  Biso   1.000  C
  C138     1.0000 0.96600  0.66200  0.68000  Biso   1.000  C
  C139     1.0000 0.66200  0.69600  0.18000  Biso   1.000  C
  C140     1.0000 0.30400  0.96600  0.18000  Biso   1.000  C
  C141     1.0000 0.33800  0.03400  0.82000  Biso   1.000  C
  C142     1.0000 0.69600  0.03400  0.68000  Biso   1.000  C
  C143     1.0000 0.33800  0.30400  0.68000  Biso   1.000  C
  C144     1.0000 0.03400  0.33800  0.18000  Biso   1.000  C
  C145     1.0000 0.25500  0.96900  0.70900  Biso   1.000  C
  C146     1.0000 0.03100  0.28600  0.70900  Biso   1.000  C
  C147     1.0000 0.71400  0.74500  0.70900  Biso   1.000  C
  C148     1.0000 0.28600  0.25500  0.20900  Biso   1.000  C
  C149     1.0000 0.96900  0.71400  0.20900  Biso   1.000  C
  C150     1.0000 0.96900  0.25500  0.29100  Biso   1.000  C
  C151     1.0000 0.25500  0.28600  0.79100  Biso   1.000  C
  C152     1.0000 0.71400  0.96900  0.79100  Biso   1.000  C
  C153     1.0000 0.74500  0.03100  0.20900  Biso   1.000  C
  C154     1.0000 0.28600  0.03100  0.29100  Biso   1.000  C
  C155     1.0000 0.74500  0.71400  0.29100  Biso   1.000  C
  C156     1.0000 0.03100  0.74500  0.79100  Biso   1.000  C
  C157     1.0000 0.74500  0.03100  0.29100  Biso   1.000  C
  C158     1.0000 0.96900  0.71400  0.29100  Biso   1.000  C
  C159     1.0000 0.28600  0.25500  0.29100  Biso   1.000  C
  C160     1.0000 0.71400  0.74500  0.79100  Biso   1.000  C
  C161     1.0000 0.03100  0.28600  0.79100  Biso   1.000  C
  C162     1.0000 0.03100  0.74500  0.70900  Biso   1.000  C
  C163     1.0000 0.74500  0.71400  0.20900  Biso   1.000  C
  C164     1.0000 0.28600  0.03100  0.20900  Biso   1.000  C
  C165     1.0000 0.25500  0.96900  0.79100  Biso   1.000  C
  C166     1.0000 0.71400  0.96900  0.70900  Biso   1.000  C
  C167     1.0000 0.25500  0.28600  0.70900  Biso   1.000  C
  C168     1.0000 0.96900  0.25500  0.20900  Biso   1.000  C
