data_image0
_cell_length_a       18.421
_cell_length_b       18.421
_cell_length_c       8.537
_cell_angle_alpha    90
_cell_angle_beta     90
_cell_angle_gamma    120

_symmetry_space_group_name_H-M    "P 1"
_symmetry_int_tables_number       1

loop_
  _symmetry_equiv_pos_as_xyz
  'x, y, z'

loop_
  _atom_site_label
  _atom_site_occupancy
  _atom_site_fract_x
  _atom_site_fract_y
  _atom_site_fract_z
  _atom_site_thermal_displace_type
  _atom_site_B_iso_or_equiv
  _atom_site_type_symbol
  Cu1      1.0000 0.53885  0.07769  0.25000  Biso   1.000  Cu
  Cu2      1.0000 0.92231  0.46116  0.25000  Biso   1.000  Cu
  Cu3      1.0000 0.53884  0.46115  0.25000  Biso   1.000  Cu
  Cu4      1.0000 0.46116  0.53885  0.75000  Biso   1.000  Cu
  Cu5      1.0000 0.07769  0.53884  0.75000  Biso   1.000  Cu
  Cu6      1.0000 0.46115  0.92231  0.75000  Biso   1.000  Cu
  N1       1.0000 0.50974  0.01950  0.05740  Biso   1.000  N
  N2       1.0000 0.98050  0.49024  0.05740  Biso   1.000  N
  N3       1.0000 0.50976  0.49026  0.05740  Biso   1.000  N
  N4       1.0000 0.49024  0.50974  0.55740  Biso   1.000  N
  N5       1.0000 0.01950  0.50976  0.55740  Biso   1.000  N
  N6       1.0000 0.01950  0.50974  0.94260  Biso   1.000  N
  N7       1.0000 0.50974  0.49024  0.44260  Biso   1.000  N
  N8       1.0000 0.50976  0.01950  0.44260  Biso   1.000  N
  N9       1.0000 0.49026  0.98050  0.55740  Biso   1.000  N
  N10      1.0000 0.49024  0.98050  0.94260  Biso   1.000  N
  N11      1.0000 0.49026  0.50976  0.94260  Biso   1.000  N
  N12      1.0000 0.98050  0.49026  0.44260  Biso   1.000  N
  C1       1.0000 0.58940  0.25720  0.25000  Biso   1.000  C
  C2       1.0000 0.74280  0.33220  0.25000  Biso   1.000  C
  C3       1.0000 0.66780  0.41060  0.25000  Biso   1.000  C
  C4       1.0000 0.33220  0.58940  0.75000  Biso   1.000  C
  C5       1.0000 0.25720  0.66780  0.75000  Biso   1.000  C
  C6       1.0000 0.25720  0.58940  0.75000  Biso   1.000  C
  C7       1.0000 0.58940  0.33220  0.25000  Biso   1.000  C
  C8       1.0000 0.66780  0.25720  0.25000  Biso   1.000  C
  C9       1.0000 0.41060  0.74280  0.75000  Biso   1.000  C
  C10      1.0000 0.33220  0.74280  0.75000  Biso   1.000  C
  C11      1.0000 0.41060  0.66780  0.75000  Biso   1.000  C
  C12      1.0000 0.74280  0.41060  0.25000  Biso   1.000  C
  N13      1.0000 0.51740  0.18200  0.25000  Biso   1.000  N
  N14      1.0000 0.81800  0.33540  0.25000  Biso   1.000  N
  N15      1.0000 0.66460  0.48260  0.25000  Biso   1.000  N
  N16      1.0000 0.33540  0.51740  0.75000  Biso   1.000  N
  N17      1.0000 0.18200  0.66460  0.75000  Biso   1.000  N
  N18      1.0000 0.18200  0.51740  0.75000  Biso   1.000  N
  N19      1.0000 0.51740  0.33540  0.25000  Biso   1.000  N
  N20      1.0000 0.66460  0.18200  0.25000  Biso   1.000  N
  N21      1.0000 0.48260  0.81800  0.75000  Biso   1.000  N
  N22      1.0000 0.33540  0.81800  0.75000  Biso   1.000  N
  N23      1.0000 0.48260  0.66460  0.75000  Biso   1.000  N
  N24      1.0000 0.81800  0.48260  0.25000  Biso   1.000  N
  O1       1.0000 0.36830  0.12770  0.25000  Biso   1.000  O
  O2       1.0000 0.87230  0.24060  0.25000  Biso   1.000  O
  O3       1.0000 0.75940  0.63170  0.25000  Biso   1.000  O
  O4       1.0000 0.24060  0.36830  0.75000  Biso   1.000  O
  O5       1.0000 0.12770  0.75940  0.75000  Biso   1.000  O
  O6       1.0000 0.12770  0.36830  0.75000  Biso   1.000  O
  O7       1.0000 0.36830  0.24060  0.25000  Biso   1.000  O
  O8       1.0000 0.75940  0.12770  0.25000  Biso   1.000  O
  O9       1.0000 0.63170  0.87230  0.75000  Biso   1.000  O
  O10      1.0000 0.24060  0.87230  0.75000  Biso   1.000  O
  O11      1.0000 0.63170  0.75940  0.75000  Biso   1.000  O
  O12      1.0000 0.87230  0.63170  0.25000  Biso   1.000  O
  C13      1.0000 0.44780  0.18550  0.25000  Biso   1.000  C
  C14      1.0000 0.81450  0.26230  0.25000  Biso   1.000  C
  C15      1.0000 0.73770  0.55220  0.25000  Biso   1.000  C
  C16      1.0000 0.26230  0.44780  0.75000  Biso   1.000  C
  C17      1.0000 0.18550  0.73770  0.75000  Biso   1.000  C
  C18      1.0000 0.18550  0.44780  0.75000  Biso   1.000  C
  C19      1.0000 0.44780  0.26230  0.25000  Biso   1.000  C
  C20      1.0000 0.73770  0.18550  0.25000  Biso   1.000  C
  C21      1.0000 0.55220  0.81450  0.75000  Biso   1.000  C
  C22      1.0000 0.26230  0.81450  0.75000  Biso   1.000  C
  C23      1.0000 0.55220  0.73770  0.75000  Biso   1.000  C
  C24      1.0000 0.81450  0.55220  0.25000  Biso   1.000  C
  O13      1.0000 0.48110  0.24060  0.90900  Biso   1.000  O
  O14      1.0000 0.75940  0.24050  0.90900  Biso   1.000  O
  O15      1.0000 0.75950  0.51890  0.90900  Biso   1.000  O
  O16      1.0000 0.24050  0.48110  0.40900  Biso   1.000  O
  O17      1.0000 0.24060  0.75950  0.40900  Biso   1.000  O
  O18      1.0000 0.24060  0.48110  0.09100  Biso   1.000  O
  O19      1.0000 0.48110  0.24050  0.59100  Biso   1.000  O
  O20      1.0000 0.75950  0.24060  0.59100  Biso   1.000  O
  O21      1.0000 0.51890  0.75940  0.40900  Biso   1.000  O
  O22      1.0000 0.24050  0.75940  0.09100  Biso   1.000  O
  O23      1.0000 0.51890  0.75950  0.09100  Biso   1.000  O
  O24      1.0000 0.75940  0.51890  0.59100  Biso   1.000  O
  C25      1.0000 0.47600  0.17630  0.83650  Biso   1.000  C
  C26      1.0000 0.82370  0.29970  0.83650  Biso   1.000  C
  C27      1.0000 0.70030  0.52400  0.83650  Biso   1.000  C
  C28      1.0000 0.29970  0.47600  0.33650  Biso   1.000  C
  C29      1.0000 0.17630  0.70030  0.33650  Biso   1.000  C
  C30      1.0000 0.17630  0.47600  0.16350  Biso   1.000  C
  C31      1.0000 0.47600  0.29970  0.66350  Biso   1.000  C
  C32      1.0000 0.70030  0.17630  0.66350  Biso   1.000  C
  C33      1.0000 0.52400  0.82370  0.33650  Biso   1.000  C
  C34      1.0000 0.29970  0.82370  0.16350  Biso   1.000  C
  C35      1.0000 0.52400  0.70030  0.16350  Biso   1.000  C
  C36      1.0000 0.82370  0.52400  0.66350  Biso   1.000  C
  C37      1.0000 0.52400  0.82370  0.16350  Biso   1.000  C
  C38      1.0000 0.17630  0.70030  0.16350  Biso   1.000  C
  C39      1.0000 0.29970  0.47600  0.16350  Biso   1.000  C
  C40      1.0000 0.70030  0.52400  0.66350  Biso   1.000  C
  C41      1.0000 0.82370  0.29970  0.66350  Biso   1.000  C
  C42      1.0000 0.82370  0.52400  0.83650  Biso   1.000  C
  C43      1.0000 0.52400  0.70030  0.33650  Biso   1.000  C
  C44      1.0000 0.29970  0.82370  0.33650  Biso   1.000  C
  C45      1.0000 0.47600  0.17630  0.66350  Biso   1.000  C
  C46      1.0000 0.70030  0.17630  0.83650  Biso   1.000  C
  C47      1.0000 0.47600  0.29970  0.83650  Biso   1.000  C
  C48      1.0000 0.17630  0.47600  0.33650  Biso   1.000  C
  C49      1.0000 0.43450  0.16360  0.84600  Biso   1.000  C
  C50      1.0000 0.83640  0.27090  0.84600  Biso   1.000  C
  C51      1.0000 0.72910  0.56550  0.84600  Biso   1.000  C
  C52      1.0000 0.27090  0.43450  0.34600  Biso   1.000  C
  C53      1.0000 0.16360  0.72910  0.34600  Biso   1.000  C
  C54      1.0000 0.16360  0.43450  0.15400  Biso   1.000  C
  C55      1.0000 0.43450  0.27090  0.65400  Biso   1.000  C
  C56      1.0000 0.72910  0.16360  0.65400  Biso   1.000  C
  C57      1.0000 0.56550  0.83640  0.34600  Biso   1.000  C
  C58      1.0000 0.27090  0.83640  0.15400  Biso   1.000  C
  C59      1.0000 0.56550  0.72910  0.15400  Biso   1.000  C
  C60      1.0000 0.83640  0.56550  0.65400  Biso   1.000  C
  C61      1.0000 0.56550  0.83640  0.15400  Biso   1.000  C
  C62      1.0000 0.16360  0.72910  0.15400  Biso   1.000  C
  C63      1.0000 0.27090  0.43450  0.15400  Biso   1.000  C
  C64      1.0000 0.72910  0.56550  0.65400  Biso   1.000  C
  C65      1.0000 0.83640  0.27090  0.65400  Biso   1.000  C
  C66      1.0000 0.83640  0.56550  0.84600  Biso   1.000  C
  C67      1.0000 0.56550  0.72910  0.34600  Biso   1.000  C
  C68      1.0000 0.27090  0.83640  0.34600  Biso   1.000  C
  C69      1.0000 0.43450  0.16360  0.65400  Biso   1.000  C
  C70      1.0000 0.72910  0.16360  0.84600  Biso   1.000  C
  C71      1.0000 0.43450  0.27090  0.84600  Biso   1.000  C
  C72      1.0000 0.16360  0.43450  0.34600  Biso   1.000  C
  O25      1.0000 0.52730  0.26370  0.90500  Biso   1.000  O
  O26      1.0000 0.73630  0.26360  0.90500  Biso   1.000  O
  O27      1.0000 0.73640  0.47270  0.90500  Biso   1.000  O
  O28      1.0000 0.26360  0.52730  0.40500  Biso   1.000  O
  O29      1.0000 0.26370  0.73640  0.40500  Biso   1.000  O
  O30      1.0000 0.26370  0.52730  0.09500  Biso   1.000  O
  O31      1.0000 0.52730  0.26360  0.59500  Biso   1.000  O
  O32      1.0000 0.73640  0.26370  0.59500  Biso   1.000  O
  O33      1.0000 0.47270  0.73630  0.40500  Biso   1.000  O
  O34      1.0000 0.26360  0.73630  0.09500  Biso   1.000  O
  O35      1.0000 0.47270  0.73640  0.09500  Biso   1.000  O
  O36      1.0000 0.73630  0.47270  0.59500  Biso   1.000  O
  O37      1.0000 0.43790  0.21900  0.90300  Biso   1.000  O
  O38      1.0000 0.78100  0.21890  0.90300  Biso   1.000  O
  O39      1.0000 0.78110  0.56210  0.90300  Biso   1.000  O
  O40      1.0000 0.21890  0.43790  0.40300  Biso   1.000  O
  O41      1.0000 0.21900  0.78110  0.40300  Biso   1.000  O
  O42      1.0000 0.21900  0.43790  0.09700  Biso   1.000  O
  O43      1.0000 0.43790  0.21890  0.59700  Biso   1.000  O
  O44      1.0000 0.78110  0.21900  0.59700  Biso   1.000  O
  O45      1.0000 0.56210  0.78100  0.40300  Biso   1.000  O
  O46      1.0000 0.21890  0.78100  0.09700  Biso   1.000  O
  O47      1.0000 0.56210  0.78110  0.09700  Biso   1.000  O
  O48      1.0000 0.78100  0.56210  0.59700  Biso   1.000  O
  C73      1.0000 0.52250  0.20590  0.84010  Biso   1.000  C
  C74      1.0000 0.79410  0.31660  0.84010  Biso   1.000  C
  C75      1.0000 0.68340  0.47750  0.84010  Biso   1.000  C
  C76      1.0000 0.31660  0.52250  0.34010  Biso   1.000  C
  C77      1.0000 0.20590  0.68340  0.34010  Biso   1.000  C
  C78      1.0000 0.20590  0.52250  0.15990  Biso   1.000  C
  C79      1.0000 0.52250  0.31660  0.65990  Biso   1.000  C
  C80      1.0000 0.68340  0.20590  0.65990  Biso   1.000  C
  C81      1.0000 0.47750  0.79410  0.34010  Biso   1.000  C
  C82      1.0000 0.31660  0.79410  0.15990  Biso   1.000  C
  C83      1.0000 0.47750  0.68340  0.15990  Biso   1.000  C
  C84      1.0000 0.79410  0.47750  0.65990  Biso   1.000  C
  C85      1.0000 0.47750  0.79410  0.15990  Biso   1.000  C
  C86      1.0000 0.20590  0.68340  0.15990  Biso   1.000  C
  C87      1.0000 0.31660  0.52250  0.15990  Biso   1.000  C
  C88      1.0000 0.68340  0.47750  0.65990  Biso   1.000  C
  C89      1.0000 0.79410  0.31660  0.65990  Biso   1.000  C
  C90      1.0000 0.79410  0.47750  0.84010  Biso   1.000  C
  C91      1.0000 0.47750  0.68340  0.34010  Biso   1.000  C
  C92      1.0000 0.31660  0.79410  0.34010  Biso   1.000  C
  C93      1.0000 0.52250  0.20590  0.65990  Biso   1.000  C
  C94      1.0000 0.68340  0.20590  0.84010  Biso   1.000  C
  C95      1.0000 0.52250  0.31660  0.84010  Biso   1.000  C
  C96      1.0000 0.20590  0.52250  0.34010  Biso   1.000  C
  C97      1.0000 0.37500  0.09510  0.25000  Biso   1.000  C
  C98      1.0000 0.90490  0.27990  0.25000  Biso   1.000  C
  C99      1.0000 0.72010  0.62500  0.25000  Biso   1.000  C
  C100     1.0000 0.27990  0.37500  0.75000  Biso   1.000  C
  C101     1.0000 0.09510  0.72010  0.75000  Biso   1.000  C
  C102     1.0000 0.09510  0.37500  0.75000  Biso   1.000  C
  C103     1.0000 0.37500  0.27990  0.25000  Biso   1.000  C
  C104     1.0000 0.72010  0.09510  0.25000  Biso   1.000  C
  C105     1.0000 0.62500  0.90490  0.75000  Biso   1.000  C
  C106     1.0000 0.27990  0.90490  0.75000  Biso   1.000  C
  C107     1.0000 0.62500  0.72010  0.75000  Biso   1.000  C
  C108     1.0000 0.90490  0.62500  0.25000  Biso   1.000  C
  N25      1.0000 0.32140  0.03520  0.25000  Biso   1.000  N
  N26      1.0000 0.96480  0.28620  0.25000  Biso   1.000  N
  N27      1.0000 0.71380  0.67860  0.25000  Biso   1.000  N
  N28      1.0000 0.28620  0.32140  0.75000  Biso   1.000  N
  N29      1.0000 0.03520  0.71380  0.75000  Biso   1.000  N
  N30      1.0000 0.03520  0.32140  0.75000  Biso   1.000  N
  N31      1.0000 0.32140  0.28620  0.25000  Biso   1.000  N
  N32      1.0000 0.71380  0.03520  0.25000  Biso   1.000  N
  N33      1.0000 0.67860  0.96480  0.75000  Biso   1.000  N
  N34      1.0000 0.28620  0.96480  0.75000  Biso   1.000  N
  N35      1.0000 0.67860  0.71380  0.75000  Biso   1.000  N
  N36      1.0000 0.96480  0.67860  0.25000  Biso   1.000  N
  C109     1.0000 0.25700  0.98900  0.25000  Biso   1.000  C
  C110     1.0000 0.01100  0.26800  0.25000  Biso   1.000  C
  C111     1.0000 0.73200  0.74300  0.25000  Biso   1.000  C
  C112     1.0000 0.26800  0.25700  0.75000  Biso   1.000  C
  C113     1.0000 0.98900  0.73200  0.75000  Biso   1.000  C
  C114     1.0000 0.98900  0.25700  0.75000  Biso   1.000  C
  C115     1.0000 0.25700  0.26800  0.25000  Biso   1.000  C
  C116     1.0000 0.73200  0.98900  0.25000  Biso   1.000  C
  C117     1.0000 0.74300  0.01100  0.75000  Biso   1.000  C
  C118     1.0000 0.26800  0.01100  0.75000  Biso   1.000  C
  C119     1.0000 0.74300  0.73200  0.75000  Biso   1.000  C
  C120     1.0000 0.01100  0.74300  0.25000  Biso   1.000  C
  C121     1.0000 0.35460  0.03990  0.29000  Biso   1.000  C
  C122     1.0000 0.96010  0.31470  0.29000  Biso   1.000  C
  C123     1.0000 0.68530  0.64540  0.29000  Biso   1.000  C
  C124     1.0000 0.31470  0.35460  0.79000  Biso   1.000  C
  C125     1.0000 0.03990  0.68530  0.79000  Biso   1.000  C
  C126     1.0000 0.03990  0.35460  0.71000  Biso   1.000  C
  C127     1.0000 0.35460  0.31470  0.21000  Biso   1.000  C
  C128     1.0000 0.68530  0.03990  0.21000  Biso   1.000  C
  C129     1.0000 0.64540  0.96010  0.79000  Biso   1.000  C
  C130     1.0000 0.31470  0.96010  0.71000  Biso   1.000  C
  C131     1.0000 0.64540  0.68530  0.71000  Biso   1.000  C
  C132     1.0000 0.96010  0.64540  0.21000  Biso   1.000  C
  C133     1.0000 0.64540  0.96010  0.71000  Biso   1.000  C
  C134     1.0000 0.03990  0.68530  0.71000  Biso   1.000  C
  C135     1.0000 0.31470  0.35460  0.71000  Biso   1.000  C
  C136     1.0000 0.68530  0.64540  0.21000  Biso   1.000  C
  C137     1.0000 0.96010  0.31470  0.21000  Biso   1.000  C
  C138     1.0000 0.96010  0.64540  0.29000  Biso   1.000  C
  C139     1.0000 0.64540  0.68530  0.79000  Biso   1.000  C
  C140     1.0000 0.31470  0.96010  0.79000  Biso   1.000  C
  C141     1.0000 0.35460  0.03990  0.21000  Biso   1.000  C
  C142     1.0000 0.68530  0.03990  0.29000  Biso   1.000  C
  C143     1.0000 0.35460  0.31470  0.29000  Biso   1.000  C
  C144     1.0000 0.03990  0.35460  0.79000  Biso   1.000  C
  C145     1.0000 0.25700  0.99400  0.33900  Biso   1.000  C
  C146     1.0000 0.00600  0.26300  0.33900  Biso   1.000  C
  C147     1.0000 0.73700  0.74300  0.33900  Biso   1.000  C
  C148     1.0000 0.26300  0.25700  0.83900  Biso   1.000  C
  C149     1.0000 0.99400  0.73700  0.83900  Biso   1.000  C
  C150     1.0000 0.99400  0.25700  0.66100  Biso   1.000  C
  C151     1.0000 0.25700  0.26300  0.16100  Biso   1.000  C
  C152     1.0000 0.73700  0.99400  0.16100  Biso   1.000  C
  C153     1.0000 0.74300  0.00600  0.83900  Biso   1.000  C
  C154     1.0000 0.26300  0.00600  0.66100  Biso   1.000  C
  C155     1.0000 0.74300  0.73700  0.66100  Biso   1.000  C
  C156     1.0000 0.00600  0.74300  0.16100  Biso   1.000  C
  C157     1.0000 0.74300  0.00600  0.66100  Biso   1.000  C
  C158     1.0000 0.99400  0.73700  0.66100  Biso   1.000  C
  C159     1.0000 0.26300  0.25700  0.66100  Biso   1.000  C
  C160     1.0000 0.73700  0.74300  0.16100  Biso   1.000  C
  C161     1.0000 0.00600  0.26300  0.16100  Biso   1.000  C
  C162     1.0000 0.00600  0.74300  0.33900  Biso   1.000  C
  C163     1.0000 0.74300  0.73700  0.83900  Biso   1.000  C
  C164     1.0000 0.26300  0.00600  0.83900  Biso   1.000  C
  C165     1.0000 0.25700  0.99400  0.16100  Biso   1.000  C
  C166     1.0000 0.73700  0.99400  0.33900  Biso   1.000  C
  C167     1.0000 0.25700  0.26300  0.33900  Biso   1.000  C
  C168     1.0000 0.99400  0.25700  0.83900  Biso   1.000  C
  C169     1.0000 0.32200  0.03900  0.33300  Biso   1.000  C
  C170     1.0000 0.96100  0.28300  0.33300  Biso   1.000  C
  C171     1.0000 0.71700  0.67800  0.33300  Biso   1.000  C
  C172     1.0000 0.28300  0.32200  0.83300  Biso   1.000  C
  C173     1.0000 0.03900  0.71700  0.83300  Biso   1.000  C
  C174     1.0000 0.03900  0.32200  0.66700  Biso   1.000  C
  C175     1.0000 0.32200  0.28300  0.16700  Biso   1.000  C
  C176     1.0000 0.71700  0.03900  0.16700  Biso   1.000  C
  C177     1.0000 0.67800  0.96100  0.83300  Biso   1.000  C
  C178     1.0000 0.28300  0.96100  0.66700  Biso   1.000  C
  C179     1.0000 0.67800  0.71700  0.66700  Biso   1.000  C
  C180     1.0000 0.96100  0.67800  0.16700  Biso   1.000  C
  C181     1.0000 0.67800  0.96100  0.66700  Biso   1.000  C
  C182     1.0000 0.03900  0.71700  0.66700  Biso   1.000  C
  C183     1.0000 0.28300  0.32200  0.66700  Biso   1.000  C
  C184     1.0000 0.71700  0.67800  0.16700  Biso   1.000  C
  C185     1.0000 0.96100  0.28300  0.16700  Biso   1.000  C
  C186     1.0000 0.96100  0.67800  0.33300  Biso   1.000  C
  C187     1.0000 0.67800  0.71700  0.83300  Biso   1.000  C
  C188     1.0000 0.28300  0.96100  0.83300  Biso   1.000  C
  C189     1.0000 0.32200  0.03900  0.16700  Biso   1.000  C
  C190     1.0000 0.71700  0.03900  0.33300  Biso   1.000  C
  C191     1.0000 0.32200  0.28300  0.33300  Biso   1.000  C
  C192     1.0000 0.03900  0.32200  0.83300  Biso   1.000  C
