data_image0
_cell_length_a       7.8677
_cell_length_b       8.0468
_cell_length_c       25.1679
_cell_angle_alpha    90
_cell_angle_beta     95.013
_cell_angle_gamma    90

_symmetry_space_group_name_H-M    "P 1"
_symmetry_int_tables_number       1

loop_
  _symmetry_equiv_pos_as_xyz
  'x, y, z'

loop_
  _atom_site_label
  _atom_site_occupancy
  _atom_site_fract_x
  _atom_site_fract_y
  _atom_site_fract_z
  _atom_site_thermal_displace_type
  _atom_site_B_iso_or_equiv
  _atom_site_type_symbol
  Cu1      1.0000 0.61782  0.11234  0.23042  Biso   1.000  Cu
  Cu2      1.0000 0.88218  0.61234  0.26958  Biso   1.000  Cu
  Cu3      1.0000 0.38218  0.88766  0.76958  Biso   1.000  Cu
  Cu4      1.0000 0.11782  0.38766  0.73042  Biso   1.000  Cu
  N1       1.0000 0.90840  0.67440  0.38305  Biso   1.000  N
  N2       1.0000 0.59160  0.17440  0.11695  Biso   1.000  N
  N3       1.0000 0.09160  0.32560  0.61695  Biso   1.000  N
  N4       1.0000 0.40840  0.82560  0.88305  Biso   1.000  N
  N5       1.0000 0.98170  0.59140  0.34309  Biso   1.000  N
  N6       1.0000 0.51830  0.09140  0.15691  Biso   1.000  N
  N7       1.0000 0.01830  0.40860  0.65691  Biso   1.000  N
  N8       1.0000 0.48170  0.90860  0.84309  Biso   1.000  N
  N9       1.0000 0.15540  0.56820  0.41832  Biso   1.000  N
  N10      1.0000 0.34460  0.06820  0.08168  Biso   1.000  N
  N11      1.0000 0.84460  0.43180  0.58168  Biso   1.000  N
  N12      1.0000 0.65540  0.93180  0.91832  Biso   1.000  N
  N13      1.0000 0.45390  0.23920  0.27599  Biso   1.000  N
  N14      1.0000 0.04610  0.73920  0.22401  Biso   1.000  N
  N15      1.0000 0.54610  0.76080  0.72401  Biso   1.000  N
  N16      1.0000 0.95390  0.26080  0.77599  Biso   1.000  N
  N17      1.0000 0.92390  0.86800  0.57774  Biso   1.000  N
  N18      1.0000 0.57610  0.36800  0.92226  Biso   1.000  N
  N19      1.0000 0.07610  0.13200  0.42226  Biso   1.000  N
  N20      1.0000 0.42390  0.63200  0.07774  Biso   1.000  N
  C1       1.0000 0.12780  0.52890  0.36655  Biso   1.000  C
  C2       1.0000 0.37220  0.02890  0.13345  Biso   1.000  C
  C3       1.0000 0.87220  0.47110  0.63345  Biso   1.000  C
  C4       1.0000 0.62780  0.97110  0.86655  Biso   1.000  C
  C5       1.0000 0.01660  0.65630  0.42711  Biso   1.000  C
  C6       1.0000 0.48340  0.15630  0.07289  Biso   1.000  C
  C7       1.0000 0.98340  0.34370  0.57289  Biso   1.000  C
  C8       1.0000 0.51660  0.84370  0.92711  Biso   1.000  C
  C9       1.0000 0.51290  0.31470  0.32114  Biso   1.000  C
  C10      1.0000 0.98710  0.81470  0.17886  Biso   1.000  C
  C11      1.0000 0.48710  0.68530  0.67886  Biso   1.000  C
  C12      1.0000 0.01290  0.18530  0.82114  Biso   1.000  C
  H1       1.0000 0.62820  0.30340  0.33220  Biso   1.000  H
  H2       1.0000 0.87180  0.80340  0.16780  Biso   1.000  H
  H3       1.0000 0.37180  0.69660  0.66780  Biso   1.000  H
  H4       1.0000 0.12820  0.19660  0.83220  Biso   1.000  H
  C13      1.0000 0.41400  0.40810  0.35226  Biso   1.000  C
  C14      1.0000 0.08600  0.90810  0.14774  Biso   1.000  C
  C15      1.0000 0.58600  0.59190  0.64774  Biso   1.000  C
  C16      1.0000 0.91400  0.09190  0.85226  Biso   1.000  C
  H5       1.0000 0.46170  0.45810  0.38340  Biso   1.000  H
  H6       1.0000 0.03830  0.95810  0.11660  Biso   1.000  H
  H7       1.0000 0.53830  0.54190  0.61660  Biso   1.000  H
  H8       1.0000 0.96170  0.04190  0.88340  Biso   1.000  H
  C17      1.0000 0.28760  0.25610  0.26135  Biso   1.000  C
  C18      1.0000 0.21240  0.75610  0.23865  Biso   1.000  C
  C19      1.0000 0.71240  0.74390  0.73865  Biso   1.000  C
  C20      1.0000 0.78760  0.24390  0.76135  Biso   1.000  C
  H9       1.0000 0.24340  0.20420  0.23010  Biso   1.000  H
  H10      1.0000 0.25660  0.70420  0.26990  Biso   1.000  H
  H11      1.0000 0.75660  0.79580  0.76990  Biso   1.000  H
  H12      1.0000 0.74340  0.29580  0.73010  Biso   1.000  H
  C21      1.0000 0.17870  0.34570  0.28978  Biso   1.000  C
  C22      1.0000 0.32130  0.84570  0.21022  Biso   1.000  C
  C23      1.0000 0.82130  0.65430  0.71022  Biso   1.000  C
  C24      1.0000 0.67870  0.15430  0.78978  Biso   1.000  C
  H13      1.0000 0.06360  0.35250  0.27800  Biso   1.000  H
  H14      1.0000 0.43640  0.85250  0.22200  Biso   1.000  H
  H15      1.0000 0.93640  0.64750  0.72200  Biso   1.000  H
  H16      1.0000 0.56360  0.14750  0.77800  Biso   1.000  H
  C25      1.0000 0.98340  0.72700  0.47875  Biso   1.000  C
  C26      1.0000 0.51660  0.22700  0.02125  Biso   1.000  C
  C27      1.0000 0.01660  0.27300  0.52125  Biso   1.000  C
  C28      1.0000 0.48340  0.77300  0.97875  Biso   1.000  C
  C29      1.0000 0.07850  0.81300  0.56745  Biso   1.000  C
  C30      1.0000 0.42150  0.31300  0.93255  Biso   1.000  C
  C31      1.0000 0.92150  0.18700  0.43255  Biso   1.000  C
  C32      1.0000 0.57850  0.68700  0.06745  Biso   1.000  C
  H17      1.0000 0.16780  0.82240  0.59400  Biso   1.000  H
  H18      1.0000 0.33220  0.32240  0.90600  Biso   1.000  H
  H19      1.0000 0.83220  0.17760  0.40600  Biso   1.000  H
  H20      1.0000 0.66780  0.67760  0.09400  Biso   1.000  H
  C33      1.0000 0.79920  0.84740  0.53903  Biso   1.000  C
  C34      1.0000 0.70080  0.34740  0.96097  Biso   1.000  C
  C35      1.0000 0.20080  0.15260  0.46097  Biso   1.000  C
  C36      1.0000 0.29920  0.65260  0.03903  Biso   1.000  C
  H21      1.0000 0.68990  0.88210  0.54520  Biso   1.000  H
  H22      1.0000 0.81010  0.38210  0.95480  Biso   1.000  H
  H23      1.0000 0.31010  0.11790  0.45480  Biso   1.000  H
  H24      1.0000 0.18990  0.61790  0.04520  Biso   1.000  H
  C37      1.0000 0.24090  0.42640  0.33633  Biso   1.000  C
  C38      1.0000 0.25910  0.92640  0.16367  Biso   1.000  C
  C39      1.0000 0.75910  0.57360  0.66367  Biso   1.000  C
  C40      1.0000 0.74090  0.07360  0.83633  Biso   1.000  C
  C41      1.0000 0.11160  0.74350  0.51955  Biso   1.000  C
  C42      1.0000 0.38840  0.24350  0.98045  Biso   1.000  C
  C43      1.0000 0.88840  0.25650  0.48045  Biso   1.000  C
  C44      1.0000 0.61160  0.75650  0.01955  Biso   1.000  C
  H25      1.0000 0.22140  0.70730  0.51450  Biso   1.000  H
  H26      1.0000 0.27860  0.20730  0.98550  Biso   1.000  H
  H27      1.0000 0.77860  0.29270  0.48550  Biso   1.000  H
  H28      1.0000 0.72140  0.79270  0.01450  Biso   1.000  H
  C45      1.0000 0.82350  0.77730  0.49029  Biso   1.000  C
  C46      1.0000 0.67650  0.27730  0.00971  Biso   1.000  C
  C47      1.0000 0.17650  0.22270  0.50971  Biso   1.000  C
  C48      1.0000 0.32350  0.72270  0.99029  Biso   1.000  C
  H29      1.0000 0.73110  0.76390  0.46500  Biso   1.000  H
  H30      1.0000 0.76890  0.26390  0.03500  Biso   1.000  H
  H31      1.0000 0.26890  0.23610  0.53500  Biso   1.000  H
  H32      1.0000 0.23110  0.73610  0.96500  Biso   1.000  H
  Cu5      1.0000 0.70097  0.78408  0.36612  Biso   1.000  Cu
  Cu6      1.0000 0.79903  0.28408  0.13388  Biso   1.000  Cu
  Cu7      1.0000 0.29903  0.21592  0.63388  Biso   1.000  Cu
  Cu8      1.0000 0.20097  0.71592  0.86612  Biso   1.000  Cu
  Cu9      1.0000 0.12544  0.00865  0.35290  Biso   1.000  Cu
  Cu10     1.0000 0.37456  0.50865  0.14710  Biso   1.000  Cu
  Cu11     1.0000 0.87456  0.99135  0.64710  Biso   1.000  Cu
  Cu12     1.0000 0.62544  0.49135  0.85290  Biso   1.000  Cu
  N21      1.0000 0.48360  0.87390  0.35979  Biso   1.000  N
  N22      1.0000 0.01640  0.37390  0.14021  Biso   1.000  N
  N23      1.0000 0.51640  0.12610  0.64021  Biso   1.000  N
  N24      1.0000 0.98360  0.62610  0.85979  Biso   1.000  N
  N25      1.0000 0.92570  0.02390  0.30606  Biso   1.000  N
  N26      1.0000 0.57430  0.52390  0.19394  Biso   1.000  N
  N27      1.0000 0.07430  0.97610  0.69394  Biso   1.000  N
  N28      1.0000 0.42570  0.47610  0.80606  Biso   1.000  N
  N29      1.0000 0.81240  0.05170  0.27543  Biso   1.000  N
  N30      1.0000 0.68760  0.55170  0.22457  Biso   1.000  N
  N31      1.0000 0.18760  0.94830  0.72457  Biso   1.000  N
  N32      1.0000 0.31240  0.44830  0.77543  Biso   1.000  N
  C49      1.0000 0.34590  0.92350  0.35794  Biso   1.000  C
  C50      1.0000 0.15410  0.42350  0.14206  Biso   1.000  C
  C51      1.0000 0.65410  0.07650  0.64206  Biso   1.000  C
  C52      1.0000 0.84590  0.57650  0.85794  Biso   1.000  C
  O1       1.0000 0.00000  0.00000  0.00000  Biso   1.000  O
  O2       1.0000 0.50000  0.50000  0.50000  Biso   1.000  O
