data_image0
_cell_length_a       7.769
_cell_length_b       7.8659
_cell_length_c       21.031
_cell_angle_alpha    90
_cell_angle_beta     90
_cell_angle_gamma    90

_symmetry_space_group_name_H-M    "P 1"
_symmetry_int_tables_number       1

loop_
  _symmetry_equiv_pos_as_xyz
  'x, y, z'

loop_
  _atom_site_label
  _atom_site_occupancy
  _atom_site_fract_x
  _atom_site_fract_y
  _atom_site_fract_z
  _atom_site_thermal_displace_type
  _atom_site_B_iso_or_equiv
  _atom_site_type_symbol
  Cu1      1.0000 0.57515  0.41906  0.04460  Biso   1.000  Cu
  Cu2      1.0000 0.92485  0.58094  0.54460  Biso   1.000  Cu
  Cu3      1.0000 0.42485  0.91906  0.45540  Biso   1.000  Cu
  Cu4      1.0000 0.07515  0.08094  0.95540  Biso   1.000  Cu
  Cu5      1.0000 0.98021  0.57966  0.04494  Biso   1.000  Cu
  Cu6      1.0000 0.51979  0.42034  0.54494  Biso   1.000  Cu
  Cu7      1.0000 0.01979  0.07966  0.45506  Biso   1.000  Cu
  Cu8      1.0000 0.48021  0.92034  0.95506  Biso   1.000  Cu
  C1       1.0000 0.32590  0.82990  0.83251  Biso   1.000  C
  C2       1.0000 0.17410  0.17010  0.33251  Biso   1.000  C
  C3       1.0000 0.67410  0.32990  0.66749  Biso   1.000  C
  C4       1.0000 0.82590  0.67010  0.16749  Biso   1.000  C
  H1       1.0000 0.42160  0.88730  0.81680  Biso   1.000  H
  H2       1.0000 0.07840  0.11270  0.31680  Biso   1.000  H
  H3       1.0000 0.57840  0.38730  0.68320  Biso   1.000  H
  H4       1.0000 0.92160  0.61270  0.18320  Biso   1.000  H
  C5       1.0000 0.20340  0.77530  0.79023  Biso   1.000  C
  C6       1.0000 0.29660  0.22470  0.29023  Biso   1.000  C
  C7       1.0000 0.79660  0.27530  0.70977  Biso   1.000  C
  C8       1.0000 0.70340  0.72470  0.20977  Biso   1.000  C
  H5       1.0000 0.21440  0.79730  0.74700  Biso   1.000  H
  H6       1.0000 0.28560  0.20270  0.24700  Biso   1.000  H
  H7       1.0000 0.78560  0.29730  0.75300  Biso   1.000  H
  H8       1.0000 0.71440  0.70270  0.25300  Biso   1.000  H
  C9       1.0000 0.06370  0.68720  0.81335  Biso   1.000  C
  C10      1.0000 0.43630  0.31280  0.31335  Biso   1.000  C
  C11      1.0000 0.93630  0.18720  0.68665  Biso   1.000  C
  C12      1.0000 0.56370  0.81280  0.18665  Biso   1.000  C
  H9       1.0000 0.98050  0.64680  0.78540  Biso   1.000  H
  H10      1.0000 0.51950  0.35320  0.28540  Biso   1.000  H
  H11      1.0000 0.01950  0.14680  0.71460  Biso   1.000  H
  H12      1.0000 0.48050  0.85320  0.21460  Biso   1.000  H
  C13      1.0000 0.04630  0.65860  0.87748  Biso   1.000  C
  C14      1.0000 0.45370  0.34140  0.37748  Biso   1.000  C
  C15      1.0000 0.95370  0.15860  0.62252  Biso   1.000  C
  C16      1.0000 0.54630  0.84140  0.12252  Biso   1.000  C
  C17      1.0000 0.17540  0.71970  0.91653  Biso   1.000  C
  C18      1.0000 0.32460  0.28030  0.41653  Biso   1.000  C
  C19      1.0000 0.82460  0.21970  0.58347  Biso   1.000  C
  C20      1.0000 0.67540  0.78030  0.08347  Biso   1.000  C
  H13      1.0000 0.16560  0.70110  0.96010  Biso   1.000  H
  H14      1.0000 0.33440  0.29890  0.46010  Biso   1.000  H
  H15      1.0000 0.83440  0.20110  0.53990  Biso   1.000  H
  H16      1.0000 0.66560  0.79890  0.03990  Biso   1.000  H
  C21      1.0000 0.89160  0.57110  0.90206  Biso   1.000  C
  C22      1.0000 0.60840  0.42890  0.40206  Biso   1.000  C
  C23      1.0000 0.10840  0.07110  0.59794  Biso   1.000  C
  C24      1.0000 0.39160  0.92890  0.09794  Biso   1.000  C
  C25      1.0000 0.64990  0.45520  0.90311  Biso   1.000  C
  C26      1.0000 0.85010  0.54480  0.40311  Biso   1.000  C
  C27      1.0000 0.35010  0.95520  0.59689  Biso   1.000  C
  C28      1.0000 0.14990  0.04480  0.09689  Biso   1.000  C
  C29      1.0000 0.48780  0.38120  0.87992  Biso   1.000  C
  C30      1.0000 0.01220  0.61880  0.37992  Biso   1.000  C
  C31      1.0000 0.51220  0.88120  0.62008  Biso   1.000  C
  C32      1.0000 0.98780  0.11880  0.12008  Biso   1.000  C
  C33      1.0000 0.44220  0.39850  0.81665  Biso   1.000  C
  C34      1.0000 0.05780  0.60150  0.31665  Biso   1.000  C
  C35      1.0000 0.55780  0.89850  0.68335  Biso   1.000  C
  C36      1.0000 0.94220  0.10150  0.18335  Biso   1.000  C
  H17      1.0000 0.51380  0.45720  0.78880  Biso   1.000  H
  H18      1.0000 0.98620  0.54280  0.28880  Biso   1.000  H
  H19      1.0000 0.48620  0.95720  0.71120  Biso   1.000  H
  H20      1.0000 0.01380  0.04280  0.21120  Biso   1.000  H
  C37      1.0000 0.29030  0.32850  0.79490  Biso   1.000  C
  C38      1.0000 0.20970  0.67150  0.29490  Biso   1.000  C
  C39      1.0000 0.70970  0.82850  0.70510  Biso   1.000  C
  C40      1.0000 0.79030  0.17150  0.20510  Biso   1.000  C
  H21      1.0000 0.25820  0.33940  0.75250  Biso   1.000  H
  H22      1.0000 0.24180  0.66060  0.25250  Biso   1.000  H
  H23      1.0000 0.74180  0.83940  0.74750  Biso   1.000  H
  H24      1.0000 0.75820  0.16060  0.24750  Biso   1.000  H
  C41      1.0000 0.18810  0.24280  0.83704  Biso   1.000  C
  C42      1.0000 0.31190  0.75720  0.33704  Biso   1.000  C
  C43      1.0000 0.81190  0.74280  0.66296  Biso   1.000  C
  C44      1.0000 0.68810  0.25720  0.16296  Biso   1.000  C
  H25      1.0000 0.08600  0.19570  0.82210  Biso   1.000  H
  H26      1.0000 0.41400  0.80430  0.32210  Biso   1.000  H
  H27      1.0000 0.91400  0.69570  0.67790  Biso   1.000  H
  H28      1.0000 0.58600  0.30430  0.17790  Biso   1.000  H
  C45      1.0000 0.37620  0.29010  0.91898  Biso   1.000  C
  C46      1.0000 0.12380  0.70990  0.41898  Biso   1.000  C
  C47      1.0000 0.62380  0.79010  0.58102  Biso   1.000  C
  C48      1.0000 0.87620  0.20990  0.08102  Biso   1.000  C
  H29      1.0000 0.40640  0.27460  0.96140  Biso   1.000  H
  H30      1.0000 0.09360  0.72540  0.46140  Biso   1.000  H
  H31      1.0000 0.59360  0.77460  0.53860  Biso   1.000  H
  H32      1.0000 0.90640  0.22540  0.03860  Biso   1.000  H
  N1       1.0000 0.20890  0.51350  0.06703  Biso   1.000  N
  N2       1.0000 0.29110  0.48650  0.56703  Biso   1.000  N
  N3       1.0000 0.79110  0.01350  0.43297  Biso   1.000  N
  N4       1.0000 0.70890  0.98650  0.93297  Biso   1.000  N
  N5       1.0000 0.85600  0.54480  0.96323  Biso   1.000  N
  N6       1.0000 0.64400  0.45520  0.46323  Biso   1.000  N
  N7       1.0000 0.14400  0.04480  0.53677  Biso   1.000  N
  N8       1.0000 0.35600  0.95520  0.03677  Biso   1.000  N
  N9       1.0000 0.69510  0.46870  0.96400  Biso   1.000  N
  N10      1.0000 0.80490  0.53130  0.46400  Biso   1.000  N
  N11      1.0000 0.30490  0.96870  0.53600  Biso   1.000  N
  N12      1.0000 0.19510  0.03130  0.03600  Biso   1.000  N
  N13      1.0000 0.76790  0.51830  0.86219  Biso   1.000  N
  N14      1.0000 0.73210  0.48170  0.36219  Biso   1.000  N
  N15      1.0000 0.23210  0.01830  0.63781  Biso   1.000  N
  N16      1.0000 0.26790  0.98170  0.13781  Biso   1.000  N
  N17      1.0000 0.31420  0.80430  0.89527  Biso   1.000  N
  N18      1.0000 0.18580  0.19570  0.39527  Biso   1.000  N
  N19      1.0000 0.68580  0.30430  0.60473  Biso   1.000  N
  N20      1.0000 0.81420  0.69570  0.10473  Biso   1.000  N
  N21      1.0000 0.22690  0.22330  0.89831  Biso   1.000  N
  N22      1.0000 0.27310  0.77670  0.39831  Biso   1.000  N
  N23      1.0000 0.77310  0.72330  0.60169  Biso   1.000  N
  N24      1.0000 0.72690  0.27670  0.10169  Biso   1.000  N
  C49      1.0000 0.35010  0.47670  0.06764  Biso   1.000  C
  C50      1.0000 0.14990  0.52330  0.56764  Biso   1.000  C
  C51      1.0000 0.64990  0.97670  0.43236  Biso   1.000  C
  C52      1.0000 0.85010  0.02330  0.93236  Biso   1.000  C
