data_image0
_cell_length_a       8.848
_cell_length_b       12.024
_cell_length_c       12.296
_cell_angle_alpha    89.376
_cell_angle_beta     73.868
_cell_angle_gamma    68.693

_symmetry_space_group_name_H-M    "P 1"
_symmetry_int_tables_number       1

loop_
  _symmetry_equiv_pos_as_xyz
  'x, y, z'

loop_
  _atom_site_label
  _atom_site_occupancy
  _atom_site_fract_x
  _atom_site_fract_y
  _atom_site_fract_z
  _atom_site_thermal_displace_type
  _atom_site_B_iso_or_equiv
  _atom_site_type_symbol
  Cu1      1.0000 0.50000  0.00000  0.00000  Biso   1.000  Cu
  Cu2      1.0000 0.16023  0.43419  0.09648  Biso   1.000  Cu
  Cu3      1.0000 0.83977  0.56581  0.90352  Biso   1.000  Cu
  Cu4      1.0000 0.52819  0.62731  0.18497  Biso   1.000  Cu
  Cu5      1.0000 0.47181  0.37269  0.81503  Biso   1.000  Cu
  Cu6      1.0000 0.45248  0.03346  0.32837  Biso   1.000  Cu
  Cu7      1.0000 0.54752  0.96654  0.67163  Biso   1.000  Cu
  Cu8      1.0000 0.46159  0.32745  0.42367  Biso   1.000  Cu
  Cu9      1.0000 0.53841  0.67255  0.57633  Biso   1.000  Cu
  C1       1.0000 0.37290  0.16010  0.03880  Biso   1.000  C
  C2       1.0000 0.62710  0.83990  0.96120  Biso   1.000  C
  C3       1.0000 0.91740  0.49040  0.13820  Biso   1.000  C
  C4       1.0000 0.08260  0.50960  0.86180  Biso   1.000  C
  C5       1.0000 0.37350  0.56610  0.15310  Biso   1.000  C
  C6       1.0000 0.62650  0.43390  0.84690  Biso   1.000  C
  C7       1.0000 0.45310  0.88750  0.28060  Biso   1.000  C
  C8       1.0000 0.54690  0.11250  0.71940  Biso   1.000  C
  C9       1.0000 0.06240  0.17590  0.77070  Biso   1.000  C
  C10      1.0000 0.93760  0.82410  0.22930  Biso   1.000  C
  C11      1.0000 0.94230  0.12620  0.78100  Biso   1.000  C
  C12      1.0000 0.05770  0.87380  0.21900  Biso   1.000  C
  H1       1.0000 0.93050  0.09390  0.71700  Biso   1.000  H
  H2       1.0000 0.06950  0.90610  0.28300  Biso   1.000  H
  C13      1.0000 0.83880  0.12510  0.88890  Biso   1.000  C
  C14      1.0000 0.16120  0.87490  0.11110  Biso   1.000  C
  H3       1.0000 0.75910  0.08960  0.89770  Biso   1.000  H
  H4       1.0000 0.24090  0.91040  0.10230  Biso   1.000  H
  C15      1.0000 0.85430  0.17710  0.98390  Biso   1.000  C
  C16      1.0000 0.14570  0.82290  0.01610  Biso   1.000  C
  C17      1.0000 0.97830  0.22550  0.97130  Biso   1.000  C
  C18      1.0000 0.02170  0.77450  0.02870  Biso   1.000  C
  H5       1.0000 0.99130  0.25750  0.03500  Biso   1.000  H
  H6       1.0000 0.00870  0.74250  0.96500  Biso   1.000  H
  C19      1.0000 0.08160  0.22620  0.86500  Biso   1.000  C
  C20      1.0000 0.91840  0.77380  0.13500  Biso   1.000  C
  H7       1.0000 0.16330  0.25990  0.85620  Biso   1.000  H
  H8       1.0000 0.83670  0.74010  0.14380  Biso   1.000  H
  C21      1.0000 0.23330  0.09350  0.56710  Biso   1.000  C
  C22      1.0000 0.76670  0.90650  0.43290  Biso   1.000  C
  H9       1.0000 0.21420  0.02240  0.56650  Biso   1.000  H
  H10      1.0000 0.78580  0.97760  0.43350  Biso   1.000  H
  C23      1.0000 0.23710  0.26230  0.62280  Biso   1.000  C
  C24      1.0000 0.76290  0.73770  0.37720  Biso   1.000  C
  H11      1.0000 0.21940  0.33010  0.66800  Biso   1.000  H
  H12      1.0000 0.78060  0.66990  0.33200  Biso   1.000  H
  C25      1.0000 0.65280  0.27580  0.17510  Biso   1.000  C
  C26      1.0000 0.34720  0.72420  0.82490  Biso   1.000  C
  H13      1.0000 0.65390  0.35250  0.16700  Biso   1.000  H
  H14      1.0000 0.34610  0.64750  0.83300  Biso   1.000  H
  C27      1.0000 0.70160  0.08870  0.14140  Biso   1.000  C
  C28      1.0000 0.29840  0.91130  0.85860  Biso   1.000  C
  H15      1.0000 0.74540  0.01100  0.10590  Biso   1.000  H
  H16      1.0000 0.25460  0.98900  0.89410  Biso   1.000  H
  N1       1.0000 0.29500  0.26140  0.06030  Biso   1.000  N
  N2       1.0000 0.70500  0.73860  0.93970  Biso   1.000  N
  N3       1.0000 0.77110  0.53320  0.16130  Biso   1.000  N
  N4       1.0000 0.22890  0.46680  0.83870  Biso   1.000  N
  N5       1.0000 0.28670  0.52810  0.12780  Biso   1.000  N
  N6       1.0000 0.71330  0.47190  0.87220  Biso   1.000  N
  N7       1.0000 0.47060  0.78970  0.25120  Biso   1.000  N
  N8       1.0000 0.52940  0.21030  0.74880  Biso   1.000  N
  N9       1.0000 0.49010  0.45860  0.48110  Biso   1.000  N
  N10      1.0000 0.50990  0.54140  0.51890  Biso   1.000  N
  N11      1.0000 0.16930  0.17890  0.65880  Biso   1.000  N
  N12      1.0000 0.83070  0.82110  0.34120  Biso   1.000  N
  N13      1.0000 0.32660  0.12840  0.47970  Biso   1.000  N
  N14      1.0000 0.67340  0.87160  0.52030  Biso   1.000  N
  N15      1.0000 0.33100  0.23530  0.51620  Biso   1.000  N
  N16      1.0000 0.66900  0.76470  0.48380  Biso   1.000  N
  N17      1.0000 0.59140  0.12260  0.24250  Biso   1.000  N
  N18      1.0000 0.40860  0.87740  0.75750  Biso   1.000  N
  N19      1.0000 0.56260  0.24320  0.26600  Biso   1.000  N
  N20      1.0000 0.43740  0.75680  0.73400  Biso   1.000  N
  N21      1.0000 0.74450  0.17840  0.09460  Biso   1.000  N
  N22      1.0000 0.25550  0.82160  0.90540  Biso   1.000  N
  C29      1.0000 0.96640  0.40330  0.46490  Biso   1.000  C
  C30      1.0000 0.03360  0.59670  0.53510  Biso   1.000  C
  C31      1.0000 0.88570  0.46230  0.57110  Biso   1.000  C
  C32      1.0000 0.11430  0.53770  0.42890  Biso   1.000  C
  H17      1.0000 0.80650  0.43750  0.62090  Biso   1.000  H
  H18      1.0000 0.19350  0.56250  0.37910  Biso   1.000  H
  C33      1.0000 0.08350  0.44380  0.39320  Biso   1.000  C
  C34      1.0000 0.91650  0.55620  0.60680  Biso   1.000  C
  H19      1.0000 0.14120  0.40610  0.31980  Biso   1.000  H
  H20      1.0000 0.85880  0.59390  0.68020  Biso   1.000  H
  C35      1.0000 0.99380  0.24460  0.32360  Biso   1.000  C
  C36      1.0000 0.00620  0.75540  0.67640  Biso   1.000  C
  H21      1.0000 0.05910  0.26670  0.26050  Biso   1.000  H
  H22      1.0000 0.94090  0.73330  0.73950  Biso   1.000  H
  C37      1.0000 0.84830  0.23830  0.49190  Biso   1.000  C
  C38      1.0000 0.15170  0.76170  0.50810  Biso   1.000  C
  H23      1.0000 0.79090  0.25610  0.56920  Biso   1.000  H
  H24      1.0000 0.20910  0.74390  0.43080  Biso   1.000  H
  N23      1.0000 0.93750  0.30190  0.42880  Biso   1.000  N
  N24      1.0000 0.06250  0.69810  0.57120  Biso   1.000  N
  N25      1.0000 0.94590  0.15410  0.32080  Biso   1.000  N
  N26      1.0000 0.05410  0.84590  0.67920  Biso   1.000  N
  N27      1.0000 0.85540  0.15090  0.42910  Biso   1.000  N
  N28      1.0000 0.14460  0.84910  0.57090  Biso   1.000  N
