data_image0
_cell_length_a       23.774
_cell_length_b       6.7646
_cell_length_c       17.0414
_cell_angle_alpha    90
_cell_angle_beta     98.971
_cell_angle_gamma    90

_symmetry_space_group_name_H-M    "P 1"
_symmetry_int_tables_number       1

loop_
  _symmetry_equiv_pos_as_xyz
  'x, y, z'

loop_
  _atom_site_label
  _atom_site_occupancy
  _atom_site_fract_x
  _atom_site_fract_y
  _atom_site_fract_z
  _atom_site_thermal_displace_type
  _atom_site_B_iso_or_equiv
  _atom_site_type_symbol
  C1       1.0000 0.64980  0.08370  0.69900  Biso   1.000  C
  C2       1.0000 0.35020  0.08370  0.80100  Biso   1.000  C
  C3       1.0000 0.14980  0.58370  0.69900  Biso   1.000  C
  C4       1.0000 0.85020  0.58370  0.80100  Biso   1.000  C
  C5       1.0000 0.35020  0.91630  0.30100  Biso   1.000  C
  C6       1.0000 0.64980  0.91630  0.19900  Biso   1.000  C
  C7       1.0000 0.85020  0.41630  0.30100  Biso   1.000  C
  C8       1.0000 0.14980  0.41630  0.19900  Biso   1.000  C
  H1       1.0000 0.63480  0.95660  0.69780  Biso   1.000  H
  H2       1.0000 0.36520  0.95660  0.80220  Biso   1.000  H
  H3       1.0000 0.13480  0.45660  0.69780  Biso   1.000  H
  H4       1.0000 0.86520  0.45660  0.80220  Biso   1.000  H
  H5       1.0000 0.36520  0.04340  0.30220  Biso   1.000  H
  H6       1.0000 0.63480  0.04340  0.19780  Biso   1.000  H
  H7       1.0000 0.86520  0.54340  0.30220  Biso   1.000  H
  H8       1.0000 0.13480  0.54340  0.19780  Biso   1.000  H
  C9       1.0000 0.66660  0.39380  0.75760  Biso   1.000  C
  C10      1.0000 0.33340  0.39380  0.74240  Biso   1.000  C
  C11      1.0000 0.16660  0.89380  0.75760  Biso   1.000  C
  C12      1.0000 0.83340  0.89380  0.74240  Biso   1.000  C
  C13      1.0000 0.33340  0.60620  0.24240  Biso   1.000  C
  C14      1.0000 0.66660  0.60620  0.25760  Biso   1.000  C
  C15      1.0000 0.83340  0.10620  0.24240  Biso   1.000  C
  C16      1.0000 0.16660  0.10620  0.25760  Biso   1.000  C
  H9       1.0000 0.66280  0.48350  0.79780  Biso   1.000  H
  H10      1.0000 0.33720  0.48350  0.70220  Biso   1.000  H
  H11      1.0000 0.16280  0.98350  0.79780  Biso   1.000  H
  H12      1.0000 0.83720  0.98350  0.70220  Biso   1.000  H
  H13      1.0000 0.33720  0.51650  0.20220  Biso   1.000  H
  H14      1.0000 0.66280  0.51650  0.29780  Biso   1.000  H
  H15      1.0000 0.83720  0.01650  0.20220  Biso   1.000  H
  H16      1.0000 0.16280  0.01650  0.29780  Biso   1.000  H
  C17      1.0000 0.64380  0.20910  0.75920  Biso   1.000  C
  C18      1.0000 0.35620  0.20910  0.74080  Biso   1.000  C
  C19      1.0000 0.14380  0.70910  0.75920  Biso   1.000  C
  C20      1.0000 0.85620  0.70910  0.74080  Biso   1.000  C
  C21      1.0000 0.35620  0.79090  0.24080  Biso   1.000  C
  C22      1.0000 0.64380  0.79090  0.25920  Biso   1.000  C
  C23      1.0000 0.85620  0.29090  0.24080  Biso   1.000  C
  C24      1.0000 0.14380  0.29090  0.25920  Biso   1.000  C
  C25      1.0000 0.52380  0.21690  0.90510  Biso   1.000  C
  C26      1.0000 0.47620  0.21690  0.59490  Biso   1.000  C
  C27      1.0000 0.02380  0.71690  0.90510  Biso   1.000  C
  C28      1.0000 0.97620  0.71690  0.59490  Biso   1.000  C
  C29      1.0000 0.47620  0.78310  0.09490  Biso   1.000  C
  C30      1.0000 0.52380  0.78310  0.40510  Biso   1.000  C
  C31      1.0000 0.97620  0.28310  0.09490  Biso   1.000  C
  C32      1.0000 0.02380  0.28310  0.40510  Biso   1.000  C
  H17      1.0000 0.51290  0.18800  0.85150  Biso   1.000  H
  H18      1.0000 0.48710  0.18800  0.64850  Biso   1.000  H
  H19      1.0000 0.01290  0.68800  0.85150  Biso   1.000  H
  H20      1.0000 0.98710  0.68800  0.64850  Biso   1.000  H
  H21      1.0000 0.48710  0.81200  0.14850  Biso   1.000  H
  H22      1.0000 0.51290  0.81200  0.35150  Biso   1.000  H
  H23      1.0000 0.98710  0.31200  0.14850  Biso   1.000  H
  H24      1.0000 0.01290  0.31200  0.35150  Biso   1.000  H
  C33      1.0000 0.48310  0.22930  0.95860  Biso   1.000  C
  C34      1.0000 0.51690  0.22930  0.54140  Biso   1.000  C
  C35      1.0000 0.98310  0.72930  0.95860  Biso   1.000  C
  C36      1.0000 0.01690  0.72930  0.54140  Biso   1.000  C
  C37      1.0000 0.51690  0.77070  0.04140  Biso   1.000  C
  C38      1.0000 0.48310  0.77070  0.45860  Biso   1.000  C
  C39      1.0000 0.01690  0.27070  0.04140  Biso   1.000  C
  C40      1.0000 0.98310  0.27070  0.45860  Biso   1.000  C
  H25      1.0000 0.44490  0.20610  0.93920  Biso   1.000  H
  H26      1.0000 0.55510  0.20610  0.56080  Biso   1.000  H
  H27      1.0000 0.94490  0.70610  0.93920  Biso   1.000  H
  H28      1.0000 0.05510  0.70610  0.56080  Biso   1.000  H
  H29      1.0000 0.55510  0.79390  0.06080  Biso   1.000  H
  H30      1.0000 0.44490  0.79390  0.43920  Biso   1.000  H
  H31      1.0000 0.05510  0.29390  0.06080  Biso   1.000  H
  H32      1.0000 0.94490  0.29390  0.43920  Biso   1.000  H
  C41      1.0000 0.55390  0.30400  0.06100  Biso   1.000  C
  C42      1.0000 0.44610  0.30400  0.43900  Biso   1.000  C
  C43      1.0000 0.05390  0.80400  0.06100  Biso   1.000  C
  C44      1.0000 0.94610  0.80400  0.43900  Biso   1.000  C
  C45      1.0000 0.44610  0.69600  0.93900  Biso   1.000  C
  C46      1.0000 0.55390  0.69600  0.56100  Biso   1.000  C
  C47      1.0000 0.94610  0.19600  0.93900  Biso   1.000  C
  C48      1.0000 0.05390  0.19600  0.56100  Biso   1.000  C
  H33      1.0000 0.56450  0.33210  0.11470  Biso   1.000  H
  H34      1.0000 0.43550  0.33210  0.38530  Biso   1.000  H
  H35      1.0000 0.06450  0.83210  0.11470  Biso   1.000  H
  H36      1.0000 0.93550  0.83210  0.38530  Biso   1.000  H
  H37      1.0000 0.43550  0.66790  0.88530  Biso   1.000  H
  H38      1.0000 0.56450  0.66790  0.61470  Biso   1.000  H
  H39      1.0000 0.93550  0.16790  0.88530  Biso   1.000  H
  H40      1.0000 0.06450  0.16790  0.61470  Biso   1.000  H
  C49      1.0000 0.59590  0.29760  0.01500  Biso   1.000  C
  C50      1.0000 0.40410  0.29760  0.48500  Biso   1.000  C
  C51      1.0000 0.09590  0.79760  0.01500  Biso   1.000  C
  C52      1.0000 0.90410  0.79760  0.48500  Biso   1.000  C
  C53      1.0000 0.40410  0.70240  0.98500  Biso   1.000  C
  C54      1.0000 0.59590  0.70240  0.51500  Biso   1.000  C
  C55      1.0000 0.90410  0.20240  0.98500  Biso   1.000  C
  C56      1.0000 0.09590  0.20240  0.51500  Biso   1.000  C
  H41      1.0000 0.63360  0.32450  0.03610  Biso   1.000  H
  H42      1.0000 0.36640  0.32450  0.46390  Biso   1.000  H
  H43      1.0000 0.13360  0.82450  0.03610  Biso   1.000  H
  H44      1.0000 0.86640  0.82450  0.46390  Biso   1.000  H
  H45      1.0000 0.36640  0.67550  0.96390  Biso   1.000  H
  H46      1.0000 0.63360  0.67550  0.53610  Biso   1.000  H
  H47      1.0000 0.86640  0.17550  0.96390  Biso   1.000  H
  H48      1.0000 0.13360  0.17550  0.53610  Biso   1.000  H
  C57      1.0000 0.58070  0.25060  0.93740  Biso   1.000  C
  C58      1.0000 0.41930  0.25060  0.56260  Biso   1.000  C
  C59      1.0000 0.08070  0.75060  0.93740  Biso   1.000  C
  C60      1.0000 0.91930  0.75060  0.56260  Biso   1.000  C
  C61      1.0000 0.41930  0.74940  0.06260  Biso   1.000  C
  C62      1.0000 0.58070  0.74940  0.43740  Biso   1.000  C
  C63      1.0000 0.91930  0.24940  0.06260  Biso   1.000  C
  C64      1.0000 0.08070  0.24940  0.43740  Biso   1.000  C
  C65      1.0000 0.36560  0.25590  0.07500  Biso   1.000  C
  C66      1.0000 0.63440  0.25590  0.42500  Biso   1.000  C
  C67      1.0000 0.86560  0.75590  0.07500  Biso   1.000  C
  C68      1.0000 0.13440  0.75590  0.42500  Biso   1.000  C
  C69      1.0000 0.63440  0.74410  0.92500  Biso   1.000  C
  C70      1.0000 0.36560  0.74410  0.57500  Biso   1.000  C
  C71      1.0000 0.13440  0.24410  0.92500  Biso   1.000  C
  C72      1.0000 0.86560  0.24410  0.57500  Biso   1.000  C
  C73      1.0000 0.67850  0.14790  0.63970  Biso   1.000  C
  C74      1.0000 0.32150  0.14790  0.86030  Biso   1.000  C
  C75      1.0000 0.17850  0.64790  0.63970  Biso   1.000  C
  C76      1.0000 0.82150  0.64790  0.86030  Biso   1.000  C
  C77      1.0000 0.32150  0.85210  0.36030  Biso   1.000  C
  C78      1.0000 0.67850  0.85210  0.13970  Biso   1.000  C
  C79      1.0000 0.82150  0.35210  0.36030  Biso   1.000  C
  C80      1.0000 0.17850  0.35210  0.13970  Biso   1.000  C
  H49      1.0000 0.68160  0.06050  0.59850  Biso   1.000  H
  H50      1.0000 0.31840  0.06050  0.90150  Biso   1.000  H
  H51      1.0000 0.18160  0.56050  0.59850  Biso   1.000  H
  H52      1.0000 0.81840  0.56050  0.90150  Biso   1.000  H
  H53      1.0000 0.31840  0.93950  0.40150  Biso   1.000  H
  H54      1.0000 0.68160  0.93950  0.09850  Biso   1.000  H
  H55      1.0000 0.81840  0.43950  0.40150  Biso   1.000  H
  H56      1.0000 0.18160  0.43950  0.09850  Biso   1.000  H
  C81      1.0000 0.69560  0.44870  0.69570  Biso   1.000  C
  C82      1.0000 0.30440  0.44870  0.80430  Biso   1.000  C
  C83      1.0000 0.19560  0.94870  0.69570  Biso   1.000  C
  C84      1.0000 0.80440  0.94870  0.80430  Biso   1.000  C
  C85      1.0000 0.30440  0.55130  0.30430  Biso   1.000  C
  C86      1.0000 0.69560  0.55130  0.19570  Biso   1.000  C
  C87      1.0000 0.80440  0.05130  0.30430  Biso   1.000  C
  C88      1.0000 0.19560  0.05130  0.19570  Biso   1.000  C
  H57      1.0000 0.71070  0.57540  0.69570  Biso   1.000  H
  H58      1.0000 0.28930  0.57540  0.80430  Biso   1.000  H
  H59      1.0000 0.21070  0.07540  0.69570  Biso   1.000  H
  H60      1.0000 0.78930  0.07540  0.80430  Biso   1.000  H
  H61      1.0000 0.28930  0.42460  0.30430  Biso   1.000  H
  H62      1.0000 0.71070  0.42460  0.19570  Biso   1.000  H
  H63      1.0000 0.78930  0.92460  0.30430  Biso   1.000  H
  H64      1.0000 0.21070  0.92460  0.19570  Biso   1.000  H
  Cu1      1.0000 0.24245  0.10196  0.04232  Biso   1.000  Cu
  Cu2      1.0000 0.75755  0.10196  0.45768  Biso   1.000  Cu
  Cu3      1.0000 0.74245  0.60196  0.04232  Biso   1.000  Cu
  Cu4      1.0000 0.25755  0.60196  0.45768  Biso   1.000  Cu
  Cu5      1.0000 0.75755  0.89804  0.95768  Biso   1.000  Cu
  Cu6      1.0000 0.24245  0.89804  0.54232  Biso   1.000  Cu
  Cu7      1.0000 0.25755  0.39804  0.95768  Biso   1.000  Cu
  Cu8      1.0000 0.74245  0.39804  0.54232  Biso   1.000  Cu
  Cu9      1.0000 0.44362  0.28051  0.11578  Biso   1.000  Cu
  Cu10     1.0000 0.55638  0.28051  0.38422  Biso   1.000  Cu
  Cu11     1.0000 0.94362  0.78051  0.11578  Biso   1.000  Cu
  Cu12     1.0000 0.05638  0.78051  0.38422  Biso   1.000  Cu
  Cu13     1.0000 0.55638  0.71949  0.88422  Biso   1.000  Cu
  Cu14     1.0000 0.44362  0.71949  0.61578  Biso   1.000  Cu
  Cu15     1.0000 0.05638  0.21949  0.88422  Biso   1.000  Cu
  Cu16     1.0000 0.94362  0.21949  0.61578  Biso   1.000  Cu
  N1       1.0000 0.61250  0.14400  0.81770  Biso   1.000  N
  N2       1.0000 0.38750  0.14400  0.68230  Biso   1.000  N
  N3       1.0000 0.11250  0.64400  0.81770  Biso   1.000  N
  N4       1.0000 0.88750  0.64400  0.68230  Biso   1.000  N
  N5       1.0000 0.38750  0.85600  0.18230  Biso   1.000  N
  N6       1.0000 0.61250  0.85600  0.31770  Biso   1.000  N
  N7       1.0000 0.88750  0.35600  0.18230  Biso   1.000  N
  N8       1.0000 0.11250  0.35600  0.31770  Biso   1.000  N
  N9       1.0000 0.62380  0.24320  0.88950  Biso   1.000  N
  N10      1.0000 0.37620  0.24320  0.61050  Biso   1.000  N
  N11      1.0000 0.12380  0.74320  0.88950  Biso   1.000  N
  N12      1.0000 0.87620  0.74320  0.61050  Biso   1.000  N
  N13      1.0000 0.37620  0.75680  0.11050  Biso   1.000  N
  N14      1.0000 0.62380  0.75680  0.38950  Biso   1.000  N
  N15      1.0000 0.87620  0.25680  0.11050  Biso   1.000  N
  N16      1.0000 0.12380  0.25680  0.38950  Biso   1.000  N
  N17      1.0000 0.49810  0.27270  0.03460  Biso   1.000  N
  N18      1.0000 0.50190  0.27270  0.46540  Biso   1.000  N
  N19      1.0000 0.99810  0.77270  0.03460  Biso   1.000  N
  N20      1.0000 0.00190  0.77270  0.46540  Biso   1.000  N
  N21      1.0000 0.50190  0.72730  0.96540  Biso   1.000  N
  N22      1.0000 0.49810  0.72730  0.53460  Biso   1.000  N
  N23      1.0000 0.00190  0.22730  0.96540  Biso   1.000  N
  N24      1.0000 0.99810  0.22730  0.53460  Biso   1.000  N
  N25      1.0000 0.31820  0.24300  0.05210  Biso   1.000  N
  N26      1.0000 0.68180  0.24300  0.44790  Biso   1.000  N
  N27      1.0000 0.81820  0.74300  0.05210  Biso   1.000  N
  N28      1.0000 0.18180  0.74300  0.44790  Biso   1.000  N
  N29      1.0000 0.68180  0.75700  0.94790  Biso   1.000  N
  N30      1.0000 0.31820  0.75700  0.55210  Biso   1.000  N
  N31      1.0000 0.18180  0.25700  0.94790  Biso   1.000  N
  N32      1.0000 0.81820  0.25700  0.55210  Biso   1.000  N
  N33      1.0000 0.70230  0.32670  0.63670  Biso   1.000  N
  N34      1.0000 0.29770  0.32670  0.86330  Biso   1.000  N
  N35      1.0000 0.20230  0.82670  0.63670  Biso   1.000  N
  N36      1.0000 0.79770  0.82670  0.86330  Biso   1.000  N
  N37      1.0000 0.29770  0.67330  0.36330  Biso   1.000  N
  N38      1.0000 0.70230  0.67330  0.13670  Biso   1.000  N
  N39      1.0000 0.79770  0.17330  0.36330  Biso   1.000  N
  N40      1.0000 0.20230  0.17330  0.13670  Biso   1.000  N
  N41      1.0000 0.48610  0.28950  0.21920  Biso   1.000  N
  N42      1.0000 0.51390  0.28950  0.28080  Biso   1.000  N
  N43      1.0000 0.98610  0.78950  0.21920  Biso   1.000  N
  N44      1.0000 0.01390  0.78950  0.28080  Biso   1.000  N
  N45      1.0000 0.51390  0.71050  0.78080  Biso   1.000  N
  N46      1.0000 0.48610  0.71050  0.71920  Biso   1.000  N
  N47      1.0000 0.01390  0.21050  0.78080  Biso   1.000  N
  N48      1.0000 0.98610  0.21050  0.71920  Biso   1.000  N
  N49      1.0000 0.24710  0.82850  0.01200  Biso   1.000  N
  N50      1.0000 0.75290  0.82850  0.48800  Biso   1.000  N
  N51      1.0000 0.74710  0.32850  0.01200  Biso   1.000  N
  N52      1.0000 0.25290  0.32850  0.48800  Biso   1.000  N
  N53      1.0000 0.75290  0.17150  0.98800  Biso   1.000  N
  N54      1.0000 0.24710  0.17150  0.51200  Biso   1.000  N
  N55      1.0000 0.25290  0.67150  0.98800  Biso   1.000  N
  N56      1.0000 0.74710  0.67150  0.51200  Biso   1.000  N
