data_image0
_cell_length_a       7.8385
_cell_length_b       8.8547
_cell_length_c       9.306
_cell_angle_alpha    62.741
_cell_angle_beta     65.45
_cell_angle_gamma    75.509

_symmetry_space_group_name_H-M    "P 1"
_symmetry_int_tables_number       1

loop_
  _symmetry_equiv_pos_as_xyz
  'x, y, z'

loop_
  _atom_site_label
  _atom_site_occupancy
  _atom_site_fract_x
  _atom_site_fract_y
  _atom_site_fract_z
  _atom_site_thermal_displace_type
  _atom_site_B_iso_or_equiv
  _atom_site_type_symbol
  Cu1      1.0000 0.77447  0.98161  0.23322  Biso   1.000  Cu
  Cu2      1.0000 0.22553  0.01839  0.76678  Biso   1.000  Cu
  Cu3      1.0000 0.63751  0.37087  0.52653  Biso   1.000  Cu
  Cu4      1.0000 0.36249  0.62913  0.47347  Biso   1.000  Cu
  Cu5      1.0000 0.06517  0.14479  0.51784  Biso   1.000  Cu
  Cu6      1.0000 0.93483  0.85521  0.48216  Biso   1.000  Cu
  C1       1.0000 0.62820  0.19110  0.92210  Biso   1.000  C
  C2       1.0000 0.37180  0.80890  0.07790  Biso   1.000  C
  C3       1.0000 0.45310  0.26820  0.01080  Biso   1.000  C
  C4       1.0000 0.54690  0.73180  0.98920  Biso   1.000  C
  C5       1.0000 0.38110  0.42900  0.92300  Biso   1.000  C
  C6       1.0000 0.61890  0.57100  0.07700  Biso   1.000  C
  H1       1.0000 0.44110  0.48810  0.80530  Biso   1.000  H
  H2       1.0000 0.55890  0.51190  0.19470  Biso   1.000  H
  C7       1.0000 0.22010  0.49960  0.01250  Biso   1.000  C
  C8       1.0000 0.77990  0.50040  0.98750  Biso   1.000  C
  H3       1.0000 0.16940  0.60700  0.95610  Biso   1.000  H
  H4       1.0000 0.83060  0.39300  0.04390  Biso   1.000  H
  C9       1.0000 0.13460  0.40930  0.18710  Biso   1.000  C
  C10      1.0000 0.86540  0.59070  0.81290  Biso   1.000  C
  H5       1.0000 0.02560  0.45800  0.24690  Biso   1.000  H
  H6       1.0000 0.97440  0.54200  0.75310  Biso   1.000  H
  C11      1.0000 0.35960  0.18510  0.18670  Biso   1.000  C
  C12      1.0000 0.64040  0.81490  0.81330  Biso   1.000  C
  H7       1.0000 0.40780  0.07760  0.24590  Biso   1.000  H
  H8       1.0000 0.59220  0.92240  0.75410  Biso   1.000  H
  C13      1.0000 0.74340  0.74040  0.33000  Biso   1.000  C
  C14      1.0000 0.25660  0.25960  0.67000  Biso   1.000  C
  C15      1.0000 0.73380  0.11190  0.36070  Biso   1.000  C
  C16      1.0000 0.26620  0.88810  0.63930  Biso   1.000  C
  N1       1.0000 0.74980  0.08200  0.99780  Biso   1.000  N
  N2       1.0000 0.25020  0.91800  0.00220  Biso   1.000  N
  N3       1.0000 0.89360  0.04600  0.87350  Biso   1.000  N
  N4       1.0000 0.10640  0.95400  0.12650  Biso   1.000  N
  N5       1.0000 0.86010  0.13050  0.72890  Biso   1.000  N
  N6       1.0000 0.13990  0.86950  0.27110  Biso   1.000  N
  N7       1.0000 0.69440  0.22340  0.75380  Biso   1.000  N
  N8       1.0000 0.30560  0.77660  0.24620  Biso   1.000  N
  N9       1.0000 0.20270  0.25360  0.27440  Biso   1.000  N
  N10      1.0000 0.79730  0.74640  0.72560  Biso   1.000  N
  N11      1.0000 0.69890  0.60500  0.40510  Biso   1.000  N
  N12      1.0000 0.30110  0.39500  0.59490  Biso   1.000  N
  N13      1.0000 0.70130  0.20300  0.42610  Biso   1.000  N
  N14      1.0000 0.29870  0.79700  0.57390  Biso   1.000  N
