data_image0
_cell_length_a       7.9901
_cell_length_b       8.9892
_cell_length_c       9.0317
_cell_angle_alpha    106.226
_cell_angle_beta     115.699
_cell_angle_gamma    103.579

_symmetry_space_group_name_H-M    "P 1"
_symmetry_int_tables_number       1

loop_
  _symmetry_equiv_pos_as_xyz
  'x, y, z'

loop_
  _atom_site_label
  _atom_site_occupancy
  _atom_site_fract_x
  _atom_site_fract_y
  _atom_site_fract_z
  _atom_site_thermal_displace_type
  _atom_site_B_iso_or_equiv
  _atom_site_type_symbol
  Cu1      1.0000 0.14736  0.61391  0.01506  Biso   1.000  Cu
  Cu2      1.0000 0.85264  0.38609  0.98494  Biso   1.000  Cu
  Cu3      1.0000 0.02857  0.00440  0.72062  Biso   1.000  Cu
  Cu4      1.0000 0.97143  0.99560  0.27938  Biso   1.000  Cu
  C1       1.0000 0.09920  0.75980  0.89190  Biso   1.000  C
  C2       1.0000 0.90080  0.24020  0.10810  Biso   1.000  C
  C3       1.0000 0.07950  0.24320  0.84020  Biso   1.000  C
  C4       1.0000 0.92050  0.75680  0.15980  Biso   1.000  C
  C5       1.0000 0.55760  0.81290  0.42160  Biso   1.000  C
  C6       1.0000 0.44240  0.18710  0.57840  Biso   1.000  C
  C7       1.0000 0.49390  0.75480  0.53380  Biso   1.000  C
  C8       1.0000 0.50610  0.24520  0.46620  Biso   1.000  C
  C9       1.0000 0.33060  0.60230  0.45920  Biso   1.000  C
  C10      1.0000 0.66940  0.39770  0.54080  Biso   1.000  C
  C11      1.0000 0.39860  0.64660  0.75550  Biso   1.000  C
  C12      1.0000 0.60140  0.35340  0.24450  Biso   1.000  C
  H1       1.0000 0.37110  0.61220  0.83350  Biso   1.000  H
  H2       1.0000 0.62890  0.38780  0.16650  Biso   1.000  H
  C13      1.0000 0.55160  0.79330  0.82210  Biso   1.000  C
  C14      1.0000 0.44840  0.20670  0.17790  Biso   1.000  C
  H3       1.0000 0.62690  0.86030  0.94750  Biso   1.000  H
  H4       1.0000 0.37310  0.13970  0.05250  Biso   1.000  H
  C15      1.0000 0.60430  0.85080  0.72150  Biso   1.000  C
  C16      1.0000 0.39570  0.14920  0.27850  Biso   1.000  C
  N1       1.0000 0.07310  0.85380  0.83060  Biso   1.000  N
  N2       1.0000 0.92690  0.14620  0.16940  Biso   1.000  N
  N3       1.0000 0.43510  0.77370  0.24600  Biso   1.000  N
  N4       1.0000 0.56490  0.22630  0.75400  Biso   1.000  N
  N5       1.0000 0.09760  0.37720  0.90380  Biso   1.000  N
  N6       1.0000 0.90240  0.62280  0.09620  Biso   1.000  N
  N7       1.0000 0.75000  0.91160  0.48510  Biso   1.000  N
  N8       1.0000 0.25000  0.08840  0.51490  Biso   1.000  N
  N9       1.0000 0.74300  0.93320  0.34210  Biso   1.000  N
  N10      1.0000 0.25700  0.06680  0.65790  Biso   1.000  N
  N11      1.0000 0.55700  0.85210  0.19900  Biso   1.000  N
  N12      1.0000 0.44300  0.14790  0.80100  Biso   1.000  N
  N13      1.0000 0.27950  0.54450  0.56840  Biso   1.000  N
  N14      1.0000 0.72050  0.45550  0.43160  Biso   1.000  N
  H5       1.0000 0.25100  0.54300  0.33600  Biso   1.000  H
  H6       1.0000 0.74900  0.45700  0.66400  Biso   1.000  H
  H7       1.0000 0.70600  0.95000  0.77900  Biso   1.000  H
  H8       1.0000 0.29400  0.05000  0.22100  Biso   1.000  H
