data_image0
_cell_length_a       12.8912
_cell_length_b       13.3318
_cell_length_c       7.6987
_cell_angle_alpha    90
_cell_angle_beta     102.668
_cell_angle_gamma    90

_symmetry_space_group_name_H-M    "P 1"
_symmetry_int_tables_number       1

loop_
  _symmetry_equiv_pos_as_xyz
  'x, y, z'

loop_
  _atom_site_label
  _atom_site_occupancy
  _atom_site_fract_x
  _atom_site_fract_y
  _atom_site_fract_z
  _atom_site_thermal_displace_type
  _atom_site_B_iso_or_equiv
  _atom_site_type_symbol
  Cu1      1.0000 0.74217  0.32565  0.14643  Biso   1.000  Cu
  Cu2      1.0000 0.24217  0.82565  0.14643  Biso   1.000  Cu
  Cu3      1.0000 0.25783  0.32565  0.35357  Biso   1.000  Cu
  Cu4      1.0000 0.75783  0.82565  0.35357  Biso   1.000  Cu
  Cu5      1.0000 0.25783  0.67435  0.85357  Biso   1.000  Cu
  Cu6      1.0000 0.75783  0.17435  0.85357  Biso   1.000  Cu
  Cu7      1.0000 0.74217  0.67435  0.64643  Biso   1.000  Cu
  Cu8      1.0000 0.24217  0.17435  0.64643  Biso   1.000  Cu
  Cl1      1.0000 0.79792  0.15618  0.16626  Biso   1.000  Cl
  Cl2      1.0000 0.29792  0.65618  0.16626  Biso   1.000  Cl
  Cl3      1.0000 0.20208  0.15618  0.33374  Biso   1.000  Cl
  Cl4      1.0000 0.70208  0.65618  0.33374  Biso   1.000  Cl
  Cl5      1.0000 0.20208  0.84382  0.83374  Biso   1.000  Cl
  Cl6      1.0000 0.70208  0.34382  0.83374  Biso   1.000  Cl
  Cl7      1.0000 0.79792  0.84382  0.66626  Biso   1.000  Cl
  Cl8      1.0000 0.29792  0.34382  0.66626  Biso   1.000  Cl
  O1       1.0000 0.90130  0.46370  0.34270  Biso   1.000  O
  O2       1.0000 0.40130  0.96370  0.34270  Biso   1.000  O
  O3       1.0000 0.09870  0.46370  0.15730  Biso   1.000  O
  O4       1.0000 0.59870  0.96370  0.15730  Biso   1.000  O
  O5       1.0000 0.09870  0.53630  0.65730  Biso   1.000  O
  O6       1.0000 0.59870  0.03630  0.65730  Biso   1.000  O
  O7       1.0000 0.90130  0.53630  0.84270  Biso   1.000  O
  O8       1.0000 0.40130  0.03630  0.84270  Biso   1.000  O
  N1       1.0000 0.59174  0.31796  0.20810  Biso   1.000  N
  N2       1.0000 0.09174  0.81796  0.20810  Biso   1.000  N
  N3       1.0000 0.40826  0.31796  0.29190  Biso   1.000  N
  N4       1.0000 0.90826  0.81796  0.29190  Biso   1.000  N
  N5       1.0000 0.40826  0.68204  0.79190  Biso   1.000  N
  N6       1.0000 0.90826  0.18204  0.79190  Biso   1.000  N
  N7       1.0000 0.59174  0.68204  0.70810  Biso   1.000  N
  N8       1.0000 0.09174  0.18204  0.70810  Biso   1.000  N
  C1       1.0000 0.83950  0.41310  0.26660  Biso   1.000  C
  C2       1.0000 0.33950  0.91310  0.26660  Biso   1.000  C
  C3       1.0000 0.16050  0.41310  0.23340  Biso   1.000  C
  C4       1.0000 0.66050  0.91310  0.23340  Biso   1.000  C
  C5       1.0000 0.16050  0.58690  0.73340  Biso   1.000  C
  C6       1.0000 0.66050  0.08690  0.73340  Biso   1.000  C
  C7       1.0000 0.83950  0.58690  0.76660  Biso   1.000  C
  C8       1.0000 0.33950  0.08690  0.76660  Biso   1.000  C
  C9       1.0000 0.59960  0.29870  0.39700  Biso   1.000  C
  C10      1.0000 0.09960  0.79870  0.39700  Biso   1.000  C
  C11      1.0000 0.40040  0.29870  0.10300  Biso   1.000  C
  C12      1.0000 0.90040  0.79870  0.10300  Biso   1.000  C
  C13      1.0000 0.40040  0.70130  0.60300  Biso   1.000  C
  C14      1.0000 0.90040  0.20130  0.60300  Biso   1.000  C
  C15      1.0000 0.59960  0.70130  0.89700  Biso   1.000  C
  C16      1.0000 0.09960  0.20130  0.89700  Biso   1.000  C
  H1       1.0000 0.60840  0.36060  0.46510  Biso   1.000  H
  H2       1.0000 0.10840  0.86060  0.46510  Biso   1.000  H
  H3       1.0000 0.39160  0.36060  0.03490  Biso   1.000  H
  H4       1.0000 0.89160  0.86060  0.03490  Biso   1.000  H
  H5       1.0000 0.39160  0.63940  0.53490  Biso   1.000  H
  H6       1.0000 0.89160  0.13940  0.53490  Biso   1.000  H
  H7       1.0000 0.60840  0.63940  0.96510  Biso   1.000  H
  H8       1.0000 0.10840  0.13940  0.96510  Biso   1.000  H
  H9       1.0000 0.65830  0.25400  0.44470  Biso   1.000  H
  H10      1.0000 0.15830  0.75400  0.44470  Biso   1.000  H
  H11      1.0000 0.34170  0.25400  0.05530  Biso   1.000  H
  H12      1.0000 0.84170  0.75400  0.05530  Biso   1.000  H
  H13      1.0000 0.34170  0.74600  0.55530  Biso   1.000  H
  H14      1.0000 0.84170  0.24600  0.55530  Biso   1.000  H
  H15      1.0000 0.65830  0.74600  0.94470  Biso   1.000  H
  H16      1.0000 0.15830  0.24600  0.94470  Biso   1.000  H
  C17      1.0000 0.52570  0.24100  0.10300  Biso   1.000  C
  C18      1.0000 0.02570  0.74100  0.10300  Biso   1.000  C
  C19      1.0000 0.47430  0.24100  0.39700  Biso   1.000  C
  C20      1.0000 0.97430  0.74100  0.39700  Biso   1.000  C
  C21      1.0000 0.47430  0.75900  0.89700  Biso   1.000  C
  C22      1.0000 0.97430  0.25900  0.89700  Biso   1.000  C
  C23      1.0000 0.52570  0.75900  0.60300  Biso   1.000  C
  C24      1.0000 0.02570  0.25900  0.60300  Biso   1.000  C
  H17      1.0000 0.53330  0.17610  0.16160  Biso   1.000  H
  H18      1.0000 0.03330  0.67610  0.16160  Biso   1.000  H
  H19      1.0000 0.46670  0.17610  0.33840  Biso   1.000  H
  H20      1.0000 0.96670  0.67610  0.33840  Biso   1.000  H
  H21      1.0000 0.46670  0.82390  0.83840  Biso   1.000  H
  H22      1.0000 0.96670  0.32390  0.83840  Biso   1.000  H
  H23      1.0000 0.53330  0.82390  0.66160  Biso   1.000  H
  H24      1.0000 0.03330  0.32390  0.66160  Biso   1.000  H
  H25      1.0000 0.53890  0.23470  0.98410  Biso   1.000  H
  H26      1.0000 0.03890  0.73470  0.98410  Biso   1.000  H
  H27      1.0000 0.46110  0.23470  0.51590  Biso   1.000  H
  H28      1.0000 0.96110  0.73470  0.51590  Biso   1.000  H
  H29      1.0000 0.46110  0.76530  0.01590  Biso   1.000  H
  H30      1.0000 0.96110  0.26530  0.01590  Biso   1.000  H
  H31      1.0000 0.53890  0.76530  0.48410  Biso   1.000  H
  H32      1.0000 0.03890  0.26530  0.48410  Biso   1.000  H
  C25      1.0000 0.54140  0.41630  0.16270  Biso   1.000  C
  C26      1.0000 0.04140  0.91630  0.16270  Biso   1.000  C
  C27      1.0000 0.45860  0.41630  0.33730  Biso   1.000  C
  C28      1.0000 0.95860  0.91630  0.33730  Biso   1.000  C
  C29      1.0000 0.45860  0.58370  0.83730  Biso   1.000  C
  C30      1.0000 0.95860  0.08370  0.83730  Biso   1.000  C
  C31      1.0000 0.54140  0.58370  0.66270  Biso   1.000  C
  C32      1.0000 0.04140  0.08370  0.66270  Biso   1.000  C
  H33      1.0000 0.49800  0.41810  0.04260  Biso   1.000  H
  H34      1.0000 0.99800  0.91810  0.04260  Biso   1.000  H
  H35      1.0000 0.50200  0.41810  0.45740  Biso   1.000  H
  H36      1.0000 0.00200  0.91810  0.45740  Biso   1.000  H
  H37      1.0000 0.50200  0.58190  0.95740  Biso   1.000  H
  H38      1.0000 0.00200  0.08190  0.95740  Biso   1.000  H
  H39      1.0000 0.49800  0.58190  0.54260  Biso   1.000  H
  H40      1.0000 0.99800  0.08190  0.54260  Biso   1.000  H
  H41      1.0000 0.59270  0.47060  0.17930  Biso   1.000  H
  H42      1.0000 0.09270  0.97060  0.17930  Biso   1.000  H
  H43      1.0000 0.40730  0.47060  0.32070  Biso   1.000  H
  H44      1.0000 0.90730  0.97060  0.32070  Biso   1.000  H
  H45      1.0000 0.40730  0.52940  0.82070  Biso   1.000  H
  H46      1.0000 0.90730  0.02940  0.82070  Biso   1.000  H
  H47      1.0000 0.59270  0.52940  0.67930  Biso   1.000  H
  H48      1.0000 0.09270  0.02940  0.67930  Biso   1.000  H
  C33      1.0000 0.59080  0.24310  0.34620  Biso   1.000  C
  C34      1.0000 0.09080  0.74310  0.34620  Biso   1.000  C
  C35      1.0000 0.40920  0.24310  0.15380  Biso   1.000  C
  C36      1.0000 0.90920  0.74310  0.15380  Biso   1.000  C
  C37      1.0000 0.40920  0.75690  0.65380  Biso   1.000  C
  C38      1.0000 0.90920  0.25690  0.65380  Biso   1.000  C
  C39      1.0000 0.59080  0.75690  0.84620  Biso   1.000  C
  C40      1.0000 0.09080  0.25690  0.84620  Biso   1.000  C
  H49      1.0000 0.65920  0.23730  0.42850  Biso   1.000  H
  H50      1.0000 0.15920  0.73730  0.42850  Biso   1.000  H
  H51      1.0000 0.34080  0.23730  0.07150  Biso   1.000  H
  H52      1.0000 0.84080  0.73730  0.07150  Biso   1.000  H
  H53      1.0000 0.34080  0.76270  0.57150  Biso   1.000  H
  H54      1.0000 0.84080  0.26270  0.57150  Biso   1.000  H
  H55      1.0000 0.65920  0.76270  0.92850  Biso   1.000  H
  H56      1.0000 0.15920  0.26270  0.92850  Biso   1.000  H
  H57      1.0000 0.56790  0.17780  0.29670  Biso   1.000  H
  H58      1.0000 0.06790  0.67780  0.29670  Biso   1.000  H
  H59      1.0000 0.43210  0.17780  0.20330  Biso   1.000  H
  H60      1.0000 0.93210  0.67780  0.20330  Biso   1.000  H
  H61      1.0000 0.43210  0.82220  0.70330  Biso   1.000  H
  H62      1.0000 0.93210  0.32220  0.70330  Biso   1.000  H
  H63      1.0000 0.56790  0.82220  0.79670  Biso   1.000  H
  H64      1.0000 0.06790  0.32220  0.79670  Biso   1.000  H
  C41      1.0000 0.50320  0.29940  0.05750  Biso   1.000  C
  C42      1.0000 0.00320  0.79940  0.05750  Biso   1.000  C
  C43      1.0000 0.49680  0.29940  0.44250  Biso   1.000  C
  C44      1.0000 0.99680  0.79940  0.44250  Biso   1.000  C
  C45      1.0000 0.49680  0.70060  0.94250  Biso   1.000  C
  C46      1.0000 0.99680  0.20060  0.94250  Biso   1.000  C
  C47      1.0000 0.50320  0.70060  0.55750  Biso   1.000  C
  C48      1.0000 0.00320  0.20060  0.55750  Biso   1.000  C
  H65      1.0000 0.52430  0.25520  0.97120  Biso   1.000  H
  H66      1.0000 0.02430  0.75520  0.97120  Biso   1.000  H
  H67      1.0000 0.47570  0.25520  0.52880  Biso   1.000  H
  H68      1.0000 0.97570  0.75520  0.52880  Biso   1.000  H
  H69      1.0000 0.47570  0.74480  0.02880  Biso   1.000  H
  H70      1.0000 0.97570  0.24480  0.02880  Biso   1.000  H
  H71      1.0000 0.52430  0.74480  0.47120  Biso   1.000  H
  H72      1.0000 0.02430  0.24480  0.47120  Biso   1.000  H
  H73      1.0000 0.47650  0.36160  0.99920  Biso   1.000  H
  H74      1.0000 0.97650  0.86160  0.99920  Biso   1.000  H
  H75      1.0000 0.52350  0.36160  0.50080  Biso   1.000  H
  H76      1.0000 0.02350  0.86160  0.50080  Biso   1.000  H
  H77      1.0000 0.52350  0.63840  0.00080  Biso   1.000  H
  H78      1.0000 0.02350  0.13840  0.00080  Biso   1.000  H
  H79      1.0000 0.47650  0.63840  0.49920  Biso   1.000  H
  H80      1.0000 0.97650  0.13840  0.49920  Biso   1.000  H
  C49      1.0000 0.56960  0.41810  0.28630  Biso   1.000  C
  C50      1.0000 0.06960  0.91810  0.28630  Biso   1.000  C
  C51      1.0000 0.43040  0.41810  0.21370  Biso   1.000  C
  C52      1.0000 0.93040  0.91810  0.21370  Biso   1.000  C
  C53      1.0000 0.43040  0.58190  0.71370  Biso   1.000  C
  C54      1.0000 0.93040  0.08190  0.71370  Biso   1.000  C
  C55      1.0000 0.56960  0.58190  0.78630  Biso   1.000  C
  C56      1.0000 0.06960  0.08190  0.78630  Biso   1.000  C
  H81      1.0000 0.60240  0.47350  0.23650  Biso   1.000  H
  H82      1.0000 0.10240  0.97350  0.23650  Biso   1.000  H
  H83      1.0000 0.39760  0.47350  0.26350  Biso   1.000  H
  H84      1.0000 0.89760  0.97350  0.26350  Biso   1.000  H
  H85      1.0000 0.39760  0.52650  0.76350  Biso   1.000  H
  H86      1.0000 0.89760  0.02650  0.76350  Biso   1.000  H
  H87      1.0000 0.60240  0.52650  0.73650  Biso   1.000  H
  H88      1.0000 0.10240  0.02650  0.73650  Biso   1.000  H
  H89      1.0000 0.59190  0.41890  0.41510  Biso   1.000  H
  H90      1.0000 0.09190  0.91890  0.41510  Biso   1.000  H
  H91      1.0000 0.40810  0.41890  0.08490  Biso   1.000  H
  H92      1.0000 0.90810  0.91890  0.08490  Biso   1.000  H
  H93      1.0000 0.40810  0.58110  0.58490  Biso   1.000  H
  H94      1.0000 0.90810  0.08110  0.58490  Biso   1.000  H
  H95      1.0000 0.59190  0.58110  0.91510  Biso   1.000  H
  H96      1.0000 0.09190  0.08110  0.91510  Biso   1.000  H
