data_image0
_cell_length_a       7.6632
_cell_length_b       8.3201
_cell_length_c       14.958
_cell_angle_alpha    81.701
_cell_angle_beta     79.626
_cell_angle_gamma    67.423

_symmetry_space_group_name_H-M    "P 1"
_symmetry_int_tables_number       1

loop_
  _symmetry_equiv_pos_as_xyz
  'x, y, z'

loop_
  _atom_site_label
  _atom_site_occupancy
  _atom_site_fract_x
  _atom_site_fract_y
  _atom_site_fract_z
  _atom_site_thermal_displace_type
  _atom_site_B_iso_or_equiv
  _atom_site_type_symbol
  C1       1.0000 0.26990  0.71540  0.27730  Biso   1.000  C
  C2       1.0000 0.73010  0.28460  0.72270  Biso   1.000  C
  C3       1.0000 0.43300  0.12380  0.38750  Biso   1.000  C
  C4       1.0000 0.56700  0.87620  0.61250  Biso   1.000  C
  H1       1.0000 0.31900  0.18150  0.42330  Biso   1.000  H
  H2       1.0000 0.68100  0.81850  0.57670  Biso   1.000  H
  C5       1.0000 0.52920  0.22080  0.33520  Biso   1.000  C
  C6       1.0000 0.47080  0.77920  0.66480  Biso   1.000  C
  H3       1.0000 0.48040  0.34150  0.33720  Biso   1.000  H
  H4       1.0000 0.51960  0.65850  0.66280  Biso   1.000  H
  C7       1.0000 0.66010  0.87360  0.33660  Biso   1.000  C
  C8       1.0000 0.33990  0.12640  0.66340  Biso   1.000  C
  H5       1.0000 0.70850  0.75240  0.33740  Biso   1.000  H
  H6       1.0000 0.29150  0.24760  0.66260  Biso   1.000  H
  C9       1.0000 0.76180  0.96270  0.28170  Biso   1.000  C
  C10      1.0000 0.23820  0.03730  0.71830  Biso   1.000  C
  H7       1.0000 0.87440  0.90230  0.24570  Biso   1.000  H
  H8       1.0000 0.12560  0.09770  0.75430  Biso   1.000  H
  C11      1.0000 0.69730  0.14220  0.27970  Biso   1.000  C
  C12      1.0000 0.30270  0.85780  0.72030  Biso   1.000  C
  C13      1.0000 0.80270  0.24890  0.22290  Biso   1.000  C
  C14      1.0000 0.19730  0.75110  0.77710  Biso   1.000  C
  H9       1.0000 0.71280  0.35060  0.19330  Biso   1.000  H
  H10      1.0000 0.28720  0.64940  0.80670  Biso   1.000  H
  H11      1.0000 0.89300  0.18000  0.17580  Biso   1.000  H
  H12      1.0000 0.10700  0.82000  0.82420  Biso   1.000  H
  C15      1.0000 0.90960  0.30830  0.28050  Biso   1.000  C
  C16      1.0000 0.09040  0.69170  0.71950  Biso   1.000  C
  H13      1.0000 0.82170  0.36470  0.33200  Biso   1.000  H
  H14      1.0000 0.17830  0.63530  0.66800  Biso   1.000  H
  H15      1.0000 0.00940  0.20670  0.30430  Biso   1.000  H
  H16      1.0000 0.99060  0.79330  0.69570  Biso   1.000  H
  C17      1.0000 0.99830  0.43440  0.22640  Biso   1.000  C
  C18      1.0000 0.00170  0.56560  0.77360  Biso   1.000  C
  H17      1.0000 0.89830  0.53140  0.19970  Biso   1.000  H
  H18      1.0000 0.10170  0.46860  0.80030  Biso   1.000  H
  H19      1.0000 0.04500  0.48110  0.26880  Biso   1.000  H
  H20      1.0000 0.95500  0.51890  0.73120  Biso   1.000  H
  C19      1.0000 0.15850  0.36190  0.15170  Biso   1.000  C
  C20      1.0000 0.84150  0.63810  0.84830  Biso   1.000  C
  C21      1.0000 0.29730  0.19750  0.16020  Biso   1.000  C
  C22      1.0000 0.70270  0.80250  0.83980  Biso   1.000  C
  H21      1.0000 0.28790  0.12300  0.21210  Biso   1.000  H
  H22      1.0000 0.71210  0.87700  0.78790  Biso   1.000  H
  C23      1.0000 0.44910  0.14300  0.09280  Biso   1.000  C
  C24      1.0000 0.55090  0.85700  0.90720  Biso   1.000  C
  H23      1.0000 0.54180  0.03220  0.10100  Biso   1.000  H
  H24      1.0000 0.45820  0.96780  0.89900  Biso   1.000  H
  C25      1.0000 0.33250  0.39780  0.00620  Biso   1.000  C
  C26      1.0000 0.66750  0.60220  0.99380  Biso   1.000  C
  H25      1.0000 0.34130  0.46730  0.95230  Biso   1.000  H
  H26      1.0000 0.65870  0.53270  0.04770  Biso   1.000  H
  C27      1.0000 0.17910  0.46210  0.07100  Biso   1.000  C
  C28      1.0000 0.82090  0.53790  0.92900  Biso   1.000  C
  H27      1.0000 0.08830  0.57310  0.06090  Biso   1.000  H
  H28      1.0000 0.91170  0.42690  0.93910  Biso   1.000  H
  Cu1      1.0000 0.33903  0.81567  0.46192  Biso   1.000  Cu
  Cu2      1.0000 0.66097  0.18433  0.53808  Biso   1.000  Cu
  Cu3      1.0000 0.17679  0.64711  0.39183  Biso   1.000  Cu
  Cu4      1.0000 0.82321  0.35289  0.60817  Biso   1.000  Cu
  Cu5      1.0000 0.28731  0.83614  0.07537  Biso   1.000  Cu
  Cu6      1.0000 0.71269  0.16386  0.92463  Biso   1.000  Cu
  N1       1.0000 0.04010  0.53690  0.47450  Biso   1.000  N
  N2       1.0000 0.95990  0.46310  0.52550  Biso   1.000  N
  N3       1.0000 0.08080  0.95790  0.49030  Biso   1.000  N
  N4       1.0000 0.91920  0.04210  0.50970  Biso   1.000  N
  N5       1.0000 0.46440  0.57350  0.48810  Biso   1.000  N
  N6       1.0000 0.53560  0.42650  0.51190  Biso   1.000  N
  N7       1.0000 0.30000  0.75750  0.20120  Biso   1.000  N
  N8       1.0000 0.70000  0.24250  0.79880  Biso   1.000  N
  N9       1.0000 0.07020  0.96220  0.01720  Biso   1.000  N
  N10      1.0000 0.92980  0.03780  0.98280  Biso   1.000  N
  N11      1.0000 0.49530  0.94990  0.38931  Biso   1.000  N
  N12      1.0000 0.50470  0.05010  0.61069  Biso   1.000  N
  N13      1.0000 0.47000  0.24170  0.01560  Biso   1.000  N
  N14      1.0000 0.53000  0.75830  0.98440  Biso   1.000  N
