data_image0
_cell_length_a       11.8093
_cell_length_b       8.7799
_cell_length_c       8.2075
_cell_angle_alpha    90
_cell_angle_beta     131.624
_cell_angle_gamma    90

_symmetry_space_group_name_H-M    "P 1"
_symmetry_int_tables_number       1

loop_
  _symmetry_equiv_pos_as_xyz
  'x, y, z'

loop_
  _atom_site_label
  _atom_site_occupancy
  _atom_site_fract_x
  _atom_site_fract_y
  _atom_site_fract_z
  _atom_site_thermal_displace_type
  _atom_site_B_iso_or_equiv
  _atom_site_type_symbol
  Cu1      1.0000 0.58316  0.00000  0.74240  Biso   1.000  Cu
  Cu2      1.0000 0.08316  0.50000  0.74240  Biso   1.000  Cu
  Cu3      1.0000 0.41684  0.00000  0.25760  Biso   1.000  Cu
  Cu4      1.0000 0.91684  0.50000  0.25760  Biso   1.000  Cu
  Cl1      1.0000 0.50000  0.79220  0.50000  Biso   1.000  Cl
  Cl2      1.0000 0.00000  0.29220  0.50000  Biso   1.000  Cl
  Cl3      1.0000 0.50000  0.20780  0.50000  Biso   1.000  Cl
  Cl4      1.0000 0.00000  0.70780  0.50000  Biso   1.000  Cl
  O1       1.0000 0.91660  0.00000  0.08790  Biso   1.000  O
  O2       1.0000 0.41660  0.50000  0.08790  Biso   1.000  O
  O3       1.0000 0.08340  0.00000  0.91210  Biso   1.000  O
  O4       1.0000 0.58340  0.50000  0.91210  Biso   1.000  O
  N1       1.0000 0.41680  0.00000  0.76570  Biso   1.000  N
  N2       1.0000 0.91680  0.50000  0.76570  Biso   1.000  N
  N3       1.0000 0.58320  0.00000  0.23430  Biso   1.000  N
  N4       1.0000 0.08320  0.50000  0.23430  Biso   1.000  N
  C1       1.0000 0.78910  0.00000  0.96210  Biso   1.000  C
  C2       1.0000 0.28910  0.50000  0.96210  Biso   1.000  C
  C3       1.0000 0.21090  0.00000  0.03790  Biso   1.000  C
  C4       1.0000 0.71090  0.50000  0.03790  Biso   1.000  C
  C5       1.0000 0.42790  0.13730  0.88070  Biso   1.000  C
  C6       1.0000 0.92790  0.63730  0.88070  Biso   1.000  C
  C7       1.0000 0.57210  0.13730  0.11930  Biso   1.000  C
  C8       1.0000 0.07210  0.63730  0.11930  Biso   1.000  C
  C9       1.0000 0.57210  0.86270  0.11930  Biso   1.000  C
  C10      1.0000 0.07210  0.36270  0.11930  Biso   1.000  C
  C11      1.0000 0.42790  0.86270  0.88070  Biso   1.000  C
  C12      1.0000 0.92790  0.36270  0.88070  Biso   1.000  C
  H1       1.0000 0.33900  0.14400  0.86900  Biso   1.000  H
  H2       1.0000 0.83900  0.64400  0.86900  Biso   1.000  H
  H3       1.0000 0.66100  0.14400  0.13100  Biso   1.000  H
  H4       1.0000 0.16100  0.64400  0.13100  Biso   1.000  H
  H5       1.0000 0.66100  0.85600  0.13100  Biso   1.000  H
  H6       1.0000 0.16100  0.35600  0.13100  Biso   1.000  H
  H7       1.0000 0.33900  0.85600  0.86900  Biso   1.000  H
  H8       1.0000 0.83900  0.35600  0.86900  Biso   1.000  H
  H9       1.0000 0.42300  0.22600  0.80100  Biso   1.000  H
  H10      1.0000 0.92300  0.72600  0.80100  Biso   1.000  H
  H11      1.0000 0.57700  0.22600  0.19900  Biso   1.000  H
  H12      1.0000 0.07700  0.72600  0.19900  Biso   1.000  H
  H13      1.0000 0.57700  0.77400  0.19900  Biso   1.000  H
  H14      1.0000 0.07700  0.27400  0.19900  Biso   1.000  H
  H15      1.0000 0.42300  0.77400  0.80100  Biso   1.000  H
  H16      1.0000 0.92300  0.27400  0.80100  Biso   1.000  H
  C13      1.0000 0.26620  0.00000  0.54260  Biso   1.000  C
  C14      1.0000 0.76620  0.50000  0.54260  Biso   1.000  C
  C15      1.0000 0.73380  0.00000  0.45740  Biso   1.000  C
  C16      1.0000 0.23380  0.50000  0.45740  Biso   1.000  C
  H17      1.0000 0.25400  0.08700  0.46800  Biso   1.000  H
  H18      1.0000 0.75400  0.58700  0.46800  Biso   1.000  H
  H19      1.0000 0.74600  0.08700  0.53200  Biso   1.000  H
  H20      1.0000 0.24600  0.58700  0.53200  Biso   1.000  H
  H21      1.0000 0.74600  0.91300  0.53200  Biso   1.000  H
  H22      1.0000 0.24600  0.41300  0.53200  Biso   1.000  H
  H23      1.0000 0.25400  0.91300  0.46800  Biso   1.000  H
  H24      1.0000 0.75400  0.41300  0.46800  Biso   1.000  H
  H25      1.0000 0.19300  0.00000  0.55000  Biso   1.000  H
  H26      1.0000 0.69300  0.50000  0.55000  Biso   1.000  H
  H27      1.0000 0.80700  0.00000  0.45000  Biso   1.000  H
  H28      1.0000 0.30700  0.50000  0.45000  Biso   1.000  H
