data_image0
_cell_length_a       13.4585
_cell_length_b       13.4881
_cell_length_c       6.3617
_cell_angle_alpha    90
_cell_angle_beta     100.036
_cell_angle_gamma    90

_symmetry_space_group_name_H-M    "P 1"
_symmetry_int_tables_number       1

loop_
  _symmetry_equiv_pos_as_xyz
  'x, y, z'

loop_
  _atom_site_label
  _atom_site_occupancy
  _atom_site_fract_x
  _atom_site_fract_y
  _atom_site_fract_z
  _atom_site_thermal_displace_type
  _atom_site_B_iso_or_equiv
  _atom_site_type_symbol
  Cu1      1.0000 0.24776  0.32815  0.17790  Biso   1.000  Cu
  Cu2      1.0000 0.74776  0.82815  0.17790  Biso   1.000  Cu
  Cu3      1.0000 0.75224  0.32815  0.32210  Biso   1.000  Cu
  Cu4      1.0000 0.25224  0.82815  0.32210  Biso   1.000  Cu
  Cu5      1.0000 0.75224  0.67185  0.82210  Biso   1.000  Cu
  Cu6      1.0000 0.25224  0.17185  0.82210  Biso   1.000  Cu
  Cu7      1.0000 0.24776  0.67185  0.67790  Biso   1.000  Cu
  Cu8      1.0000 0.74776  0.17185  0.67790  Biso   1.000  Cu
  Cl1      1.0000 0.30465  0.16106  0.20035  Biso   1.000  Cl
  Cl2      1.0000 0.80465  0.66106  0.20035  Biso   1.000  Cl
  Cl3      1.0000 0.69535  0.16106  0.29965  Biso   1.000  Cl
  Cl4      1.0000 0.19535  0.66106  0.29965  Biso   1.000  Cl
  Cl5      1.0000 0.69535  0.83894  0.79965  Biso   1.000  Cl
  Cl6      1.0000 0.19535  0.33894  0.79965  Biso   1.000  Cl
  Cl7      1.0000 0.30465  0.83894  0.70035  Biso   1.000  Cl
  Cl8      1.0000 0.80465  0.33894  0.70035  Biso   1.000  Cl
  N1       1.0000 0.11040  0.32109  0.27290  Biso   1.000  N
  N2       1.0000 0.61040  0.82109  0.27290  Biso   1.000  N
  N3       1.0000 0.88960  0.32109  0.22710  Biso   1.000  N
  N4       1.0000 0.38960  0.82109  0.22710  Biso   1.000  N
  N5       1.0000 0.88960  0.67891  0.72710  Biso   1.000  N
  N6       1.0000 0.38960  0.17891  0.72710  Biso   1.000  N
  N7       1.0000 0.11040  0.67891  0.77290  Biso   1.000  N
  N8       1.0000 0.61040  0.17891  0.77290  Biso   1.000  N
  O1       1.0000 0.40310  0.47258  0.35740  Biso   1.000  O
  O2       1.0000 0.90310  0.97258  0.35740  Biso   1.000  O
  O3       1.0000 0.59690  0.47258  0.14260  Biso   1.000  O
  O4       1.0000 0.09690  0.97258  0.14260  Biso   1.000  O
  O5       1.0000 0.59690  0.52742  0.64260  Biso   1.000  O
  O6       1.0000 0.09690  0.02742  0.64260  Biso   1.000  O
  O7       1.0000 0.40310  0.52742  0.85740  Biso   1.000  O
  O8       1.0000 0.90310  0.02742  0.85740  Biso   1.000  O
  C1       1.0000 0.34370  0.41820  0.28650  Biso   1.000  C
  C2       1.0000 0.84370  0.91820  0.28650  Biso   1.000  C
  C3       1.0000 0.65630  0.41820  0.21350  Biso   1.000  C
  C4       1.0000 0.15630  0.91820  0.21350  Biso   1.000  C
  C5       1.0000 0.65630  0.58180  0.71350  Biso   1.000  C
  C6       1.0000 0.15630  0.08180  0.71350  Biso   1.000  C
  C7       1.0000 0.34370  0.58180  0.78650  Biso   1.000  C
  C8       1.0000 0.84370  0.08180  0.78650  Biso   1.000  C
  C9       1.0000 0.04960  0.41070  0.20880  Biso   1.000  C
  C10      1.0000 0.54960  0.91070  0.20880  Biso   1.000  C
  C11      1.0000 0.95040  0.41070  0.29120  Biso   1.000  C
  C12      1.0000 0.45040  0.91070  0.29120  Biso   1.000  C
  C13      1.0000 0.95040  0.58930  0.79120  Biso   1.000  C
  C14      1.0000 0.45040  0.08930  0.79120  Biso   1.000  C
  C15      1.0000 0.04960  0.58930  0.70880  Biso   1.000  C
  C16      1.0000 0.54960  0.08930  0.70880  Biso   1.000  C
  C17      1.0000 0.04940  0.23180  0.20810  Biso   1.000  C
  C18      1.0000 0.54940  0.73180  0.20810  Biso   1.000  C
  C19      1.0000 0.95060  0.23180  0.29190  Biso   1.000  C
  C20      1.0000 0.45060  0.73180  0.29190  Biso   1.000  C
  C21      1.0000 0.95060  0.76820  0.79190  Biso   1.000  C
  C22      1.0000 0.45060  0.26820  0.79190  Biso   1.000  C
  C23      1.0000 0.04940  0.76820  0.70810  Biso   1.000  C
  C24      1.0000 0.54940  0.26820  0.70810  Biso   1.000  C
  H1       1.0000 0.12000  0.32200  0.38700  Biso   1.000  H
  H2       1.0000 0.62000  0.82200  0.38700  Biso   1.000  H
  H3       1.0000 0.88000  0.32200  0.11300  Biso   1.000  H
  H4       1.0000 0.38000  0.82200  0.11300  Biso   1.000  H
  H5       1.0000 0.88000  0.67800  0.61300  Biso   1.000  H
  H6       1.0000 0.38000  0.17800  0.61300  Biso   1.000  H
  H7       1.0000 0.12000  0.67800  0.88700  Biso   1.000  H
  H8       1.0000 0.62000  0.17800  0.88700  Biso   1.000  H
  H9       1.0000 0.03300  0.41300  0.03700  Biso   1.000  H
  H10      1.0000 0.53300  0.91300  0.03700  Biso   1.000  H
  H11      1.0000 0.96700  0.41300  0.46300  Biso   1.000  H
  H12      1.0000 0.46700  0.91300  0.46300  Biso   1.000  H
  H13      1.0000 0.96700  0.58700  0.96300  Biso   1.000  H
  H14      1.0000 0.46700  0.08700  0.96300  Biso   1.000  H
  H15      1.0000 0.03300  0.58700  0.53700  Biso   1.000  H
  H16      1.0000 0.53300  0.08700  0.53700  Biso   1.000  H
  H17      1.0000 0.08800  0.46300  0.24600  Biso   1.000  H
  H18      1.0000 0.58800  0.96300  0.24600  Biso   1.000  H
  H19      1.0000 0.91200  0.46300  0.25400  Biso   1.000  H
  H20      1.0000 0.41200  0.96300  0.25400  Biso   1.000  H
  H21      1.0000 0.91200  0.53700  0.75400  Biso   1.000  H
  H22      1.0000 0.41200  0.03700  0.75400  Biso   1.000  H
  H23      1.0000 0.08800  0.53700  0.74600  Biso   1.000  H
  H24      1.0000 0.58800  0.03700  0.74600  Biso   1.000  H
  H25      1.0000 0.03600  0.23400  0.05800  Biso   1.000  H
  H26      1.0000 0.53600  0.73400  0.05800  Biso   1.000  H
  H27      1.0000 0.96400  0.23400  0.44200  Biso   1.000  H
  H28      1.0000 0.46400  0.73400  0.44200  Biso   1.000  H
  H29      1.0000 0.96400  0.76600  0.94200  Biso   1.000  H
  H30      1.0000 0.46400  0.26600  0.94200  Biso   1.000  H
  H31      1.0000 0.03600  0.76600  0.55800  Biso   1.000  H
  H32      1.0000 0.53600  0.26600  0.55800  Biso   1.000  H
  H33      1.0000 0.08400  0.18000  0.23500  Biso   1.000  H
  H34      1.0000 0.58400  0.68000  0.23500  Biso   1.000  H
  H35      1.0000 0.91600  0.18000  0.26500  Biso   1.000  H
  H36      1.0000 0.41600  0.68000  0.26500  Biso   1.000  H
  H37      1.0000 0.91600  0.82000  0.76500  Biso   1.000  H
  H38      1.0000 0.41600  0.32000  0.76500  Biso   1.000  H
  H39      1.0000 0.08400  0.82000  0.73500  Biso   1.000  H
  H40      1.0000 0.58400  0.32000  0.73500  Biso   1.000  H
