data_image0
_cell_length_a       12.15
_cell_length_b       13.704
_cell_length_c       15.398
_cell_angle_alpha    98.941
_cell_angle_beta     107.594
_cell_angle_gamma    109.176

_symmetry_space_group_name_H-M    "P 1"
_symmetry_int_tables_number       1

loop_
  _symmetry_equiv_pos_as_xyz
  'x, y, z'

loop_
  _atom_site_label
  _atom_site_occupancy
  _atom_site_fract_x
  _atom_site_fract_y
  _atom_site_fract_z
  _atom_site_thermal_displace_type
  _atom_site_B_iso_or_equiv
  _atom_site_type_symbol
  Cu1      1.0000 0.93049  0.75130  0.55151  Biso   1.000  Cu
  Cu2      1.0000 0.06951  0.24870  0.44849  Biso   1.000  Cu
  Cu3      1.0000 0.58578  0.13669  0.68288  Biso   1.000  Cu
  Cu4      1.0000 0.41422  0.86331  0.31712  Biso   1.000  Cu
  Cu5      1.0000 0.35140  0.35144  0.73721  Biso   1.000  Cu
  Cu6      1.0000 0.64860  0.64856  0.26279  Biso   1.000  Cu
  Cu7      1.0000 0.80828  0.01095  0.89773  Biso   1.000  Cu
  Cu8      1.0000 0.19172  0.98905  0.10227  Biso   1.000  Cu
  Cu9      1.0000 0.19094  0.54688  0.52519  Biso   1.000  Cu
  Cu10     1.0000 0.80906  0.45312  0.47481  Biso   1.000  Cu
  Cu11     1.0000 0.72253  0.85015  0.75735  Biso   1.000  Cu
  Cu12     1.0000 0.27747  0.14985  0.24265  Biso   1.000  Cu
  Cu13     1.0000 0.54287  0.40972  0.12483  Biso   1.000  Cu
  Cu14     1.0000 0.45713  0.59028  0.87517  Biso   1.000  Cu
  N1       1.0000 0.03840  0.67890  0.54610  Biso   1.000  N
  N2       1.0000 0.96160  0.32110  0.45390  Biso   1.000  N
  C1       1.0000 0.79960  0.81220  0.67800  Biso   1.000  C
  C2       1.0000 0.20040  0.18780  0.32200  Biso   1.000  C
  N3       1.0000 0.55800  0.69640  0.83080  Biso   1.000  N
  N4       1.0000 0.44200  0.30360  0.16920  Biso   1.000  N
  C3       1.0000 0.72290  0.00720  0.76840  Biso   1.000  C
  C4       1.0000 0.27710  0.99280  0.23160  Biso   1.000  C
  C5       1.0000 0.02370  0.83580  0.41000  Biso   1.000  C
  C6       1.0000 0.97630  0.16420  0.59000  Biso   1.000  C
  H1       1.0000 0.07270  0.79710  0.42780  Biso   1.000  H
  H2       1.0000 0.92730  0.20290  0.57220  Biso   1.000  H
  C7       1.0000 0.04360  0.89260  0.34600  Biso   1.000  C
  C8       1.0000 0.95640  0.10740  0.65400  Biso   1.000  C
  H3       1.0000 0.10550  0.89350  0.32200  Biso   1.000  H
  H4       1.0000 0.89450  0.10650  0.67800  Biso   1.000  H
  C9       1.0000 0.96890  0.94800  0.31830  Biso   1.000  C
  C10      1.0000 0.03110  0.05200  0.68170  Biso   1.000  C
  H5       1.0000 0.97850  0.98560  0.27390  Biso   1.000  H
  H6       1.0000 0.02150  0.01440  0.72610  Biso   1.000  H
  C11      1.0000 0.87980  0.94750  0.35700  Biso   1.000  C
  C12      1.0000 0.12020  0.05250  0.64300  Biso   1.000  C
  C13      1.0000 0.86800  0.88930  0.42240  Biso   1.000  C
  C14      1.0000 0.13200  0.11070  0.57760  Biso   1.000  C
  H7       1.0000 0.80900  0.88930  0.44920  Biso   1.000  H
  H8       1.0000 0.19100  0.11070  0.55080  Biso   1.000  H
  C15      1.0000 0.79920  0.00650  0.32660  Biso   1.000  C
  C16      1.0000 0.20080  0.99350  0.67340  Biso   1.000  C
  C17      1.0000 0.68110  0.09540  0.35280  Biso   1.000  C
  C18      1.0000 0.31890  0.90460  0.64720  Biso   1.000  C
  C19      1.0000 0.70820  0.07430  0.21390  Biso   1.000  C
  C20      1.0000 0.29180  0.92570  0.78610  Biso   1.000  C
  C21      1.0000 0.62570  0.14220  0.41330  Biso   1.000  C
  C22      1.0000 0.37430  0.85780  0.58670  Biso   1.000  C
  C23      1.0000 0.57230  0.21400  0.38590  Biso   1.000  C
  C24      1.0000 0.42770  0.78600  0.61410  Biso   1.000  C
  H9       1.0000 0.57180  0.23380  0.33080  Biso   1.000  H
  H10      1.0000 0.42820  0.76620  0.66920  Biso   1.000  H
  C25      1.0000 0.52100  0.25400  0.44220  Biso   1.000  C
  C26      1.0000 0.47900  0.74600  0.55780  Biso   1.000  C
  H11      1.0000 0.48490  0.30200  0.42560  Biso   1.000  H
  H12      1.0000 0.51510  0.69800  0.57440  Biso   1.000  H
  C27      1.0000 0.52190  0.22440  0.52280  Biso   1.000  C
  C28      1.0000 0.47810  0.77560  0.47720  Biso   1.000  C
  H13      1.0000 0.48410  0.25160  0.55910  Biso   1.000  H
  H14      1.0000 0.51590  0.74840  0.44090  Biso   1.000  H
  C29      1.0000 0.62630  0.11710  0.49700  Biso   1.000  C
  C30      1.0000 0.37370  0.88290  0.50300  Biso   1.000  C
  H15      1.0000 0.66360  0.07060  0.51600  Biso   1.000  H
  H16      1.0000 0.33640  0.92940  0.48400  Biso   1.000  H
  C31      1.0000 0.68350  0.09070  0.11860  Biso   1.000  C
  C32      1.0000 0.31650  0.90930  0.88140  Biso   1.000  C
  C33      1.0000 0.74340  0.06120  0.06370  Biso   1.000  C
  C34      1.0000 0.25660  0.93880  0.93630  Biso   1.000  C
  H17      1.0000 0.80370  0.03530  0.08990  Biso   1.000  H
  H18      1.0000 0.19630  0.96470  0.91010  Biso   1.000  H
  C35      1.0000 0.63510  0.10780  0.93910  Biso   1.000  C
  C36      1.0000 0.36490  0.89220  0.06090  Biso   1.000  C
  H19      1.0000 0.61670  0.11270  0.87710  Biso   1.000  H
  H20      1.0000 0.38330  0.88730  0.12290  Biso   1.000  H
  C37      1.0000 0.57320  0.14260  0.99120  Biso   1.000  C
  C38      1.0000 0.42680  0.85740  0.00880  Biso   1.000  C
  H21      1.0000 0.51680  0.17250  0.96540  Biso   1.000  H
  H22      1.0000 0.48320  0.82750  0.03460  Biso   1.000  H
  C39      1.0000 0.59690  0.13210  0.08260  Biso   1.000  C
  C40      1.0000 0.40310  0.86790  0.91740  Biso   1.000  C
  H23      1.0000 0.55480  0.15280  0.11860  Biso   1.000  H
  H24      1.0000 0.44520  0.84720  0.88140  Biso   1.000  H
  C41      1.0000 0.45110  0.27050  0.74750  Biso   1.000  C
  C42      1.0000 0.54890  0.72950  0.25250  Biso   1.000  C
  N5       1.0000 0.27810  0.48170  0.60830  Biso   1.000  N
  N6       1.0000 0.72190  0.51830  0.39170  Biso   1.000  N
  C43      1.0000 0.28260  0.24100  0.87400  Biso   1.000  C
  C44      1.0000 0.71740  0.75900  0.12600  Biso   1.000  C
  H25      1.0000 0.34560  0.21850  0.86970  Biso   1.000  H
  H26      1.0000 0.65440  0.78150  0.13030  Biso   1.000  H
  C45      1.0000 0.23040  0.21260  0.93810  Biso   1.000  C
  C46      1.0000 0.76960  0.78740  0.06190  Biso   1.000  C
  H27      1.0000 0.25840  0.17280  0.97660  Biso   1.000  H
  H28      1.0000 0.74160  0.82720  0.02340  Biso   1.000  H
  C47      1.0000 0.13660  0.24350  0.94500  Biso   1.000  C
  C48      1.0000 0.86340  0.75650  0.05500  Biso   1.000  C
  H29      1.0000 0.10130  0.22690  0.98940  Biso   1.000  H
  H30      1.0000 0.89870  0.77310  0.01060  Biso   1.000  H
  C49      1.0000 0.09500  0.29980  0.88460  Biso   1.000  C
  C50      1.0000 0.90500  0.70020  0.11540  Biso   1.000  C
  C51      1.0000 0.15490  0.32580  0.82160  Biso   1.000  C
  C52      1.0000 0.84510  0.67420  0.17840  Biso   1.000  C
  H31      1.0000 0.12740  0.36370  0.78070  Biso   1.000  H
  H32      1.0000 0.87260  0.63630  0.21930  Biso   1.000  H
  C53      1.0000 0.99270  0.33440  0.88740  Biso   1.000  C
  C54      1.0000 0.00730  0.66560  0.11260  Biso   1.000  C
  C55      1.0000 0.87760  0.36940  0.96670  Biso   1.000  C
  C56      1.0000 0.12240  0.63060  0.03330  Biso   1.000  C
  C57      1.0000 0.85170  0.40160  0.82580  Biso   1.000  C
  C58      1.0000 0.14830  0.59840  0.17420  Biso   1.000  C
  C59      1.0000 0.79120  0.44120  0.74910  Biso   1.000  C
  C60      1.0000 0.20880  0.55880  0.25090  Biso   1.000  C
  C61      1.0000 0.82040  0.43690  0.66840  Biso   1.000  C
  C62      1.0000 0.17960  0.56310  0.33160  Biso   1.000  C
  H33      1.0000 0.87640  0.40570  0.66320  Biso   1.000  H
  H34      1.0000 0.12360  0.59430  0.33680  Biso   1.000  H
  C63      1.0000 0.69080  0.51770  0.60520  Biso   1.000  C
  C64      1.0000 0.30920  0.48230  0.39480  Biso   1.000  C
  H35      1.0000 0.65710  0.54500  0.55680  Biso   1.000  H
  H36      1.0000 0.34290  0.45500  0.44320  Biso   1.000  H
  C65      1.0000 0.65300  0.52360  0.68170  Biso   1.000  C
  C66      1.0000 0.34700  0.47640  0.31830  Biso   1.000  C
  H37      1.0000 0.59400  0.55250  0.68360  Biso   1.000  H
  H38      1.0000 0.40600  0.44750  0.31640  Biso   1.000  H
  C67      1.0000 0.70530  0.48540  0.75520  Biso   1.000  C
  C68      1.0000 0.29470  0.51460  0.24480  Biso   1.000  C
  H39      1.0000 0.68290  0.48930  0.80790  Biso   1.000  H
  H40      1.0000 0.31710  0.51070  0.19210  Biso   1.000  H
  C69      1.0000 0.84730  0.37300  0.05610  Biso   1.000  C
  C70      1.0000 0.15270  0.62700  0.94390  Biso   1.000  C
  C71      1.0000 0.91680  0.34850  0.13100  Biso   1.000  C
  C72      1.0000 0.08320  0.65150  0.86900  Biso   1.000  C
  H41      1.0000 0.98210  0.32860  0.12830  Biso   1.000  H
  H42      1.0000 0.01790  0.67140  0.87170  Biso   1.000  H
  C73      1.0000 0.88660  0.35440  0.21140  Biso   1.000  C
  C74      1.0000 0.11340  0.64560  0.78860  Biso   1.000  C
  H43      1.0000 0.93320  0.34060  0.26460  Biso   1.000  H
  H44      1.0000 0.06680  0.65940  0.73540  Biso   1.000  H
  C75      1.0000 0.78770  0.38080  0.21080  Biso   1.000  C
  C76      1.0000 0.21230  0.61920  0.78920  Biso   1.000  C
  H45      1.0000 0.76740  0.38220  0.26440  Biso   1.000  H
  H46      1.0000 0.23260  0.61780  0.73560  Biso   1.000  H
  C77      1.0000 0.75070  0.40150  0.06160  Biso   1.000  C
  C78      1.0000 0.24930  0.59850  0.93840  Biso   1.000  C
  H47      1.0000 0.70590  0.41930  0.01040  Biso   1.000  H
  H48      1.0000 0.29410  0.58070  0.98960  Biso   1.000  H
  C79      1.0000 0.09790  0.62970  0.53730  Biso   1.000  C
  C80      1.0000 0.90210  0.37030  0.46270  Biso   1.000  C
  N7       1.0000 0.84670  0.78840  0.63040  Biso   1.000  N
  N8       1.0000 0.15330  0.21160  0.36960  Biso   1.000  N
  C81      1.0000 0.62440  0.75770  0.80750  Biso   1.000  C
  C82      1.0000 0.37560  0.24230  0.19250  Biso   1.000  C
  N9       1.0000 0.67770  0.05310  0.72400  Biso   1.000  N
  N10      1.0000 0.32230  0.94690  0.27600  Biso   1.000  N
  N11      1.0000 0.93760  0.83310  0.44830  Biso   1.000  N
  N12      1.0000 0.06240  0.16690  0.55170  Biso   1.000  N
  N13      1.0000 0.74930  0.04000  0.38610  Biso   1.000  N
  N14      1.0000 0.25070  0.96000  0.61390  Biso   1.000  N
  N15      1.0000 0.78230  0.02160  0.24130  Biso   1.000  N
  N16      1.0000 0.21770  0.97840  0.75870  Biso   1.000  N
  N17      1.0000 0.65760  0.11430  0.26730  Biso   1.000  N
  N18      1.0000 0.34240  0.88570  0.73270  Biso   1.000  N
  N19      1.0000 0.57500  0.15770  0.55190  Biso   1.000  N
  N20      1.0000 0.42500  0.84230  0.44810  Biso   1.000  N
  N21      1.0000 0.72040  0.06740  0.97380  Biso   1.000  N
  N22      1.0000 0.27960  0.93260  0.02620  Biso   1.000  N
  N23      1.0000 0.95490  0.00200  0.97600  Biso   1.000  N
  N24      1.0000 0.04510  0.99800  0.02400  Biso   1.000  N
  N25      1.0000 0.50010  0.21690  0.73140  Biso   1.000  N
  N26      1.0000 0.49990  0.78310  0.26860  Biso   1.000  N
  C83      1.0000 0.31310  0.43860  0.66150  Biso   1.000  C
  C84      1.0000 0.68690  0.56140  0.33850  Biso   1.000  C
  N27      1.0000 0.24910  0.29890  0.81730  Biso   1.000  N
  N28      1.0000 0.75090  0.70110  0.18270  Biso   1.000  N
  N29      1.0000 0.93770  0.36680  0.81560  Biso   1.000  N
  N30      1.0000 0.06230  0.63320  0.18440  Biso   1.000  N
  N31      1.0000 0.81750  0.40650  0.90150  Biso   1.000  N
  N32      1.0000 0.18250  0.59350  0.09850  Biso   1.000  N
  N33      1.0000 0.96560  0.33230  0.96560  Biso   1.000  N
  N34      1.0000 0.03440  0.66770  0.03440  Biso   1.000  N
  N35      1.0000 0.77240  0.47530  0.59710  Biso   1.000  N
  N36      1.0000 0.22760  0.52470  0.40290  Biso   1.000  N
  N37      1.0000 0.71770  0.40470  0.13870  Biso   1.000  N
  N38      1.0000 0.28230  0.59530  0.86130  Biso   1.000  N
  N39      1.0000 0.51090  0.48140  0.03260  Biso   1.000  N
  N40      1.0000 0.48910  0.51860  0.96740  Biso   1.000  N
