data_image0
_cell_length_a       5.9638
_cell_length_b       12.926
_cell_length_c       9.457
_cell_angle_alpha    90
_cell_angle_beta     92.71
_cell_angle_gamma    90

_symmetry_space_group_name_H-M    "P 1"
_symmetry_int_tables_number       1

loop_
  _symmetry_equiv_pos_as_xyz
  'x, y, z'

loop_
  _atom_site_label
  _atom_site_occupancy
  _atom_site_fract_x
  _atom_site_fract_y
  _atom_site_fract_z
  _atom_site_thermal_displace_type
  _atom_site_B_iso_or_equiv
  _atom_site_type_symbol
  Cu1      1.0000 0.13322  0.94209  0.72315  Biso   1.000  Cu
  Cu2      1.0000 0.36678  0.44209  0.77685  Biso   1.000  Cu
  Cu3      1.0000 0.86678  0.05791  0.27685  Biso   1.000  Cu
  Cu4      1.0000 0.63322  0.55791  0.22315  Biso   1.000  Cu
  N1       1.0000 0.44810  0.97730  0.72390  Biso   1.000  N
  N2       1.0000 0.05190  0.47730  0.77610  Biso   1.000  N
  N3       1.0000 0.55190  0.02270  0.27610  Biso   1.000  N
  N4       1.0000 0.94810  0.52270  0.22390  Biso   1.000  N
  C1       1.0000 0.63060  0.93720  0.66450  Biso   1.000  C
  C2       1.0000 0.86940  0.43720  0.83550  Biso   1.000  C
  C3       1.0000 0.36940  0.06280  0.33550  Biso   1.000  C
  C4       1.0000 0.13060  0.56280  0.16450  Biso   1.000  C
  C5       1.0000 0.81600  0.83480  0.47920  Biso   1.000  C
  C6       1.0000 0.68400  0.33480  0.02080  Biso   1.000  C
  C7       1.0000 0.18400  0.16520  0.52080  Biso   1.000  C
  C8       1.0000 0.31600  0.66520  0.97920  Biso   1.000  C
  H1       1.0000 0.94730  0.87290  0.49430  Biso   1.000  H
  H2       1.0000 0.55270  0.37290  0.00570  Biso   1.000  H
  H3       1.0000 0.05270  0.12710  0.50570  Biso   1.000  H
  H4       1.0000 0.44730  0.62710  0.99430  Biso   1.000  H
  C9       1.0000 0.53030  0.05090  0.81580  Biso   1.000  C
  C10      1.0000 0.96970  0.55090  0.68420  Biso   1.000  C
  C11      1.0000 0.46970  0.94910  0.18420  Biso   1.000  C
  C12      1.0000 0.03030  0.44910  0.31580  Biso   1.000  C
  H5       1.0000 0.44480  0.09110  0.87450  Biso   1.000  H
  H6       1.0000 0.05520  0.59110  0.62550  Biso   1.000  H
  H7       1.0000 0.55520  0.90890  0.12550  Biso   1.000  H
  H8       1.0000 0.94480  0.40890  0.37450  Biso   1.000  H
  C13      1.0000 0.62740  0.85590  0.55710  Biso   1.000  C
  C14      1.0000 0.87260  0.35590  0.94290  Biso   1.000  C
  C15      1.0000 0.37260  0.14410  0.44290  Biso   1.000  C
  C16      1.0000 0.12740  0.64410  0.05710  Biso   1.000  C
  N5       1.0000 0.82240  0.98380  0.71270  Biso   1.000  N
  N6       1.0000 0.67760  0.48380  0.78730  Biso   1.000  N
  N7       1.0000 0.17760  0.01620  0.28730  Biso   1.000  N
  N8       1.0000 0.32240  0.51620  0.21270  Biso   1.000  N
  C17      1.0000 0.75280  0.05590  0.80820  Biso   1.000  C
  C18      1.0000 0.74720  0.55590  0.69180  Biso   1.000  C
  C19      1.0000 0.24720  0.94410  0.19180  Biso   1.000  C
  C20      1.0000 0.25280  0.44410  0.30820  Biso   1.000  C
  H9       1.0000 0.84640  0.10120  0.85950  Biso   1.000  H
  H10      1.0000 0.65360  0.60120  0.64050  Biso   1.000  H
  H11      1.0000 0.15360  0.89880  0.14050  Biso   1.000  H
  H12      1.0000 0.34640  0.39880  0.35950  Biso   1.000  H
  C21      1.0000 0.44350  0.71970  0.42200  Biso   1.000  C
  C22      1.0000 0.05650  0.21970  0.07800  Biso   1.000  C
  C23      1.0000 0.55650  0.28030  0.57800  Biso   1.000  C
  C24      1.0000 0.94350  0.78030  0.92200  Biso   1.000  C
  H13      1.0000 0.31540  0.67970  0.40520  Biso   1.000  H
  H14      1.0000 0.18460  0.17970  0.09480  Biso   1.000  H
  H15      1.0000 0.68460  0.32030  0.59480  Biso   1.000  H
  H16      1.0000 0.81540  0.82030  0.90520  Biso   1.000  H
  C25      1.0000 0.80400  0.75780  0.38120  Biso   1.000  C
  C26      1.0000 0.69600  0.25780  0.11880  Biso   1.000  C
  C27      1.0000 0.19600  0.24220  0.61880  Biso   1.000  C
  C28      1.0000 0.30400  0.74220  0.88120  Biso   1.000  C
  H17      1.0000 0.93240  0.74460  0.33210  Biso   1.000  H
  H18      1.0000 0.56760  0.24460  0.16790  Biso   1.000  H
  H19      1.0000 0.06760  0.25540  0.66790  Biso   1.000  H
  H20      1.0000 0.43240  0.75540  0.83210  Biso   1.000  H
  C29      1.0000 0.43580  0.79910  0.52380  Biso   1.000  C
  C30      1.0000 0.06420  0.29910  0.97620  Biso   1.000  C
  C31      1.0000 0.56420  0.20090  0.47620  Biso   1.000  C
  C32      1.0000 0.93580  0.70090  0.02380  Biso   1.000  C
  H21      1.0000 0.30320  0.81310  0.56810  Biso   1.000  H
  H22      1.0000 0.19680  0.31310  0.93190  Biso   1.000  H
  H23      1.0000 0.69680  0.18690  0.43190  Biso   1.000  H
  H24      1.0000 0.80320  0.68690  0.06810  Biso   1.000  H
  N9       1.0000 0.62100  0.69860  0.34900  Biso   1.000  N
  N10      1.0000 0.87900  0.19860  0.15100  Biso   1.000  N
  N11      1.0000 0.37900  0.30140  0.65100  Biso   1.000  N
  N12      1.0000 0.12100  0.80140  0.84900  Biso   1.000  N
