data_image0
_cell_length_a       16.96
_cell_length_b       9.8296
_cell_length_c       9.9981
_cell_angle_alpha    90
_cell_angle_beta     101.847
_cell_angle_gamma    90

_symmetry_space_group_name_H-M    "P 1"
_symmetry_int_tables_number       1

loop_
  _symmetry_equiv_pos_as_xyz
  'x, y, z'

loop_
  _atom_site_label
  _atom_site_occupancy
  _atom_site_fract_x
  _atom_site_fract_y
  _atom_site_fract_z
  _atom_site_thermal_displace_type
  _atom_site_B_iso_or_equiv
  _atom_site_type_symbol
  I1       1.0000 0.09832  0.22629  0.68656  Biso   1.000  I
  I2       1.0000 0.90168  0.22629  0.31344  Biso   1.000  I
  I3       1.0000 0.59832  0.72629  0.68656  Biso   1.000  I
  I4       1.0000 0.40168  0.72629  0.31344  Biso   1.000  I
  I5       1.0000 0.90168  0.77371  0.31344  Biso   1.000  I
  I6       1.0000 0.09832  0.77371  0.68656  Biso   1.000  I
  I7       1.0000 0.40168  0.27371  0.31344  Biso   1.000  I
  I8       1.0000 0.59832  0.27371  0.68656  Biso   1.000  I
  I9       1.0000 0.12928  0.00000  0.31377  Biso   1.000  I
  I10      1.0000 0.87072  0.00000  0.68623  Biso   1.000  I
  I11      1.0000 0.62928  0.50000  0.31377  Biso   1.000  I
  I12      1.0000 0.37072  0.50000  0.68623  Biso   1.000  I
  Cu1      1.0000 0.05675  0.19875  0.42126  Biso   1.000  Cu
  Cu2      1.0000 0.94325  0.19875  0.57874  Biso   1.000  Cu
  Cu3      1.0000 0.55675  0.69875  0.42126  Biso   1.000  Cu
  Cu4      1.0000 0.44325  0.69875  0.57874  Biso   1.000  Cu
  Cu5      1.0000 0.94325  0.80125  0.57874  Biso   1.000  Cu
  Cu6      1.0000 0.05675  0.80125  0.42126  Biso   1.000  Cu
  Cu7      1.0000 0.44325  0.30125  0.57874  Biso   1.000  Cu
  Cu8      1.0000 0.55675  0.30125  0.42126  Biso   1.000  Cu
  Cu9      1.0000 0.14113  0.00000  0.58070  Biso   1.000  Cu
  Cu10     1.0000 0.85887  0.00000  0.41930  Biso   1.000  Cu
  Cu11     1.0000 0.64113  0.50000  0.58070  Biso   1.000  Cu
  Cu12     1.0000 0.35887  0.50000  0.41930  Biso   1.000  Cu
  P1       1.0000 0.11560  0.50000  0.09170  Biso   1.000  P
  P2       1.0000 0.88440  0.50000  0.90830  Biso   1.000  P
  P3       1.0000 0.61560  0.00000  0.09170  Biso   1.000  P
  P4       1.0000 0.38440  0.00000  0.90830  Biso   1.000  P
  O1       1.0000 0.09540  0.50000  0.94150  Biso   1.000  O
  O2       1.0000 0.90460  0.50000  0.05850  Biso   1.000  O
  O3       1.0000 0.59540  0.00000  0.94150  Biso   1.000  O
  O4       1.0000 0.40460  0.00000  0.05850  Biso   1.000  O
  N1       1.0000 0.10240  0.37550  0.32820  Biso   1.000  N
  N2       1.0000 0.89760  0.37550  0.67180  Biso   1.000  N
  N3       1.0000 0.60240  0.87550  0.32820  Biso   1.000  N
  N4       1.0000 0.39760  0.87550  0.67180  Biso   1.000  N
  N5       1.0000 0.89760  0.62450  0.67180  Biso   1.000  N
  N6       1.0000 0.10240  0.62450  0.32820  Biso   1.000  N
  N7       1.0000 0.39760  0.12450  0.67180  Biso   1.000  N
  N8       1.0000 0.60240  0.12450  0.32820  Biso   1.000  N
  N9       1.0000 0.22890  0.50000  0.32560  Biso   1.000  N
  N10      1.0000 0.77110  0.50000  0.67440  Biso   1.000  N
  N11      1.0000 0.72890  0.00000  0.32560  Biso   1.000  N
  N12      1.0000 0.27110  0.00000  0.67440  Biso   1.000  N
  C1       1.0000 0.19210  0.37780  0.37220  Biso   1.000  C
  C2       1.0000 0.80790  0.37780  0.62780  Biso   1.000  C
  C3       1.0000 0.69210  0.87780  0.37220  Biso   1.000  C
  C4       1.0000 0.30790  0.87780  0.62780  Biso   1.000  C
  C5       1.0000 0.80790  0.62220  0.62780  Biso   1.000  C
  C6       1.0000 0.19210  0.62220  0.37220  Biso   1.000  C
  C7       1.0000 0.30790  0.12220  0.62780  Biso   1.000  C
  C8       1.0000 0.69210  0.12220  0.37220  Biso   1.000  C
  H1       1.0000 0.20670  0.37340  0.47320  Biso   1.000  H
  H2       1.0000 0.79330  0.37340  0.52680  Biso   1.000  H
  H3       1.0000 0.70670  0.87340  0.47320  Biso   1.000  H
  H4       1.0000 0.29330  0.87340  0.52680  Biso   1.000  H
  H5       1.0000 0.79330  0.62660  0.52680  Biso   1.000  H
  H6       1.0000 0.20670  0.62660  0.47320  Biso   1.000  H
  H7       1.0000 0.29330  0.12660  0.52680  Biso   1.000  H
  H8       1.0000 0.70670  0.12660  0.47320  Biso   1.000  H
  H9       1.0000 0.21460  0.29610  0.33580  Biso   1.000  H
  H10      1.0000 0.78540  0.29610  0.66420  Biso   1.000  H
  H11      1.0000 0.71460  0.79610  0.33580  Biso   1.000  H
  H12      1.0000 0.28540  0.79610  0.66420  Biso   1.000  H
  H13      1.0000 0.78540  0.70390  0.66420  Biso   1.000  H
  H14      1.0000 0.21460  0.70390  0.33580  Biso   1.000  H
  H15      1.0000 0.28540  0.20390  0.66420  Biso   1.000  H
  H16      1.0000 0.71460  0.20390  0.33580  Biso   1.000  H
  C9       1.0000 0.06860  0.50000  0.37430  Biso   1.000  C
  C10      1.0000 0.93140  0.50000  0.62570  Biso   1.000  C
  C11      1.0000 0.56860  0.00000  0.37430  Biso   1.000  C
  C12      1.0000 0.43140  0.00000  0.62570  Biso   1.000  C
  H17      1.0000 0.07880  0.50000  0.47540  Biso   1.000  H
  H18      1.0000 0.92120  0.50000  0.52460  Biso   1.000  H
  H19      1.0000 0.57880  0.00000  0.47540  Biso   1.000  H
  H20      1.0000 0.42120  0.00000  0.52460  Biso   1.000  H
  H21      1.0000 0.00960  0.50000  0.34000  Biso   1.000  H
  H22      1.0000 0.99040  0.50000  0.66000  Biso   1.000  H
  H23      1.0000 0.50960  0.00000  0.34000  Biso   1.000  H
  H24      1.0000 0.49040  0.00000  0.66000  Biso   1.000  H
  C13      1.0000 0.07940  0.35930  0.17540  Biso   1.000  C
  C14      1.0000 0.92060  0.35930  0.82460  Biso   1.000  C
  C15      1.0000 0.57940  0.85930  0.17540  Biso   1.000  C
  C16      1.0000 0.42060  0.85930  0.82460  Biso   1.000  C
  C17      1.0000 0.92060  0.64070  0.82460  Biso   1.000  C
  C18      1.0000 0.07940  0.64070  0.17540  Biso   1.000  C
  C19      1.0000 0.42060  0.14070  0.82460  Biso   1.000  C
  C20      1.0000 0.57940  0.14070  0.17540  Biso   1.000  C
  H25      1.0000 0.02000  0.35370  0.14690  Biso   1.000  H
  H26      1.0000 0.98000  0.35370  0.85310  Biso   1.000  H
  H27      1.0000 0.52000  0.85370  0.14690  Biso   1.000  H
  H28      1.0000 0.48000  0.85370  0.85310  Biso   1.000  H
  H29      1.0000 0.98000  0.64630  0.85310  Biso   1.000  H
  H30      1.0000 0.02000  0.64630  0.14690  Biso   1.000  H
  H31      1.0000 0.48000  0.14630  0.85310  Biso   1.000  H
  H32      1.0000 0.52000  0.14630  0.14690  Biso   1.000  H
  H33      1.0000 0.10250  0.27370  0.14810  Biso   1.000  H
  H34      1.0000 0.89750  0.27370  0.85190  Biso   1.000  H
  H35      1.0000 0.60250  0.77370  0.14810  Biso   1.000  H
  H36      1.0000 0.39750  0.77370  0.85190  Biso   1.000  H
  H37      1.0000 0.89750  0.72630  0.85190  Biso   1.000  H
  H38      1.0000 0.10250  0.72630  0.14810  Biso   1.000  H
  H39      1.0000 0.39750  0.22630  0.85190  Biso   1.000  H
  H40      1.0000 0.60250  0.22630  0.14810  Biso   1.000  H
  C21      1.0000 0.22230  0.50000  0.17460  Biso   1.000  C
  C22      1.0000 0.77770  0.50000  0.82540  Biso   1.000  C
  C23      1.0000 0.72230  0.00000  0.17460  Biso   1.000  C
  C24      1.0000 0.27770  0.00000  0.82540  Biso   1.000  C
  H41      1.0000 0.24910  0.41830  0.14680  Biso   1.000  H
  H42      1.0000 0.75090  0.41830  0.85320  Biso   1.000  H
  H43      1.0000 0.74910  0.91830  0.14680  Biso   1.000  H
  H44      1.0000 0.25090  0.91830  0.85320  Biso   1.000  H
  H45      1.0000 0.75090  0.58170  0.85320  Biso   1.000  H
  H46      1.0000 0.24910  0.58170  0.14680  Biso   1.000  H
  H47      1.0000 0.25090  0.08170  0.85320  Biso   1.000  H
  H48      1.0000 0.74910  0.08170  0.14680  Biso   1.000  H
