data_image0
_cell_length_a       10.929
_cell_length_b       13.615
_cell_length_c       13.843
_cell_angle_alpha    109.9
_cell_angle_beta     102.97
_cell_angle_gamma    98.53

_symmetry_space_group_name_H-M    "P 1"
_symmetry_int_tables_number       1

loop_
  _symmetry_equiv_pos_as_xyz
  'x, y, z'

loop_
  _atom_site_label
  _atom_site_occupancy
  _atom_site_fract_x
  _atom_site_fract_y
  _atom_site_fract_z
  _atom_site_thermal_displace_type
  _atom_site_B_iso_or_equiv
  _atom_site_type_symbol
  Si1      1.0000 0.50000  0.00000  0.50000  Biso   1.000  Si
  W1       1.0000 0.35439  0.78600  0.24679  Biso   1.000  W
  W2       1.0000 0.64561  0.21400  0.75321  Biso   1.000  W
  W3       1.0000 0.64948  0.96816  0.29366  Biso   1.000  W
  W4       1.0000 0.35052  0.03184  0.70634  Biso   1.000  W
  W5       1.0000 0.50581  0.73463  0.47014  Biso   1.000  W
  W6       1.0000 0.49419  0.26537  0.52986  Biso   1.000  W
  W7       1.0000 0.35730  0.05334  0.27345  Biso   1.000  W
  W8       1.0000 0.64270  0.94666  0.72655  Biso   1.000  W
  W9       1.0000 0.21023  0.81371  0.45647  Biso   1.000  W
  W10      1.0000 0.78977  0.18629  0.54353  Biso   1.000  W
  W11      1.0000 0.79756  0.92323  0.52433  Biso   1.000  W
  W12      1.0000 0.20244  0.07677  0.47567  Biso   1.000  W
  Cu1      1.0000 0.44875  0.40500  0.34760  Biso   1.000  Cu
  Cu2      1.0000 0.55125  0.59500  0.65240  Biso   1.000  Cu
  O1       1.0000 0.56390  0.80580  0.62440  Biso   1.000  O
  O2       1.0000 0.43610  0.19420  0.37560  Biso   1.000  O
  O3       1.0000 0.67590  0.78420  0.47010  Biso   1.000  O
  O4       1.0000 0.32410  0.21580  0.52990  Biso   1.000  O
  O5       1.0000 0.22090  0.05440  0.33760  Biso   1.000  O
  O6       1.0000 0.77910  0.94560  0.66240  Biso   1.000  O
  C1       1.0000 0.84370  0.49840  0.37360  Biso   1.000  C
  C2       1.0000 0.15630  0.50160  0.62640  Biso   1.000  C
  H1       1.0000 0.90290  0.56350  0.39340  Biso   1.000  H
  H2       1.0000 0.09710  0.43650  0.60660  Biso   1.000  H
  C3       1.0000 0.06930  0.31400  0.34970  Biso   1.000  C
  C4       1.0000 0.93070  0.68600  0.65030  Biso   1.000  C
  H3       1.0000 0.02270  0.25820  0.36120  Biso   1.000  H
  H4       1.0000 0.97730  0.74180  0.63880  Biso   1.000  H
  C5       1.0000 0.87860  0.40150  0.34550  Biso   1.000  C
  C6       1.0000 0.12140  0.59850  0.65450  Biso   1.000  C
  N1       1.0000 0.26670  0.39220  0.32910  Biso   1.000  N
  N2       1.0000 0.73330  0.60780  0.67090  Biso   1.000  N
  O7       1.0000 0.28770  0.68360  0.12710  Biso   1.000  O
  O8       1.0000 0.71230  0.31640  0.87290  Biso   1.000  O
  O9       1.0000 0.50950  0.60700  0.46040  Biso   1.000  O
  O10      1.0000 0.49050  0.39300  0.53960  Biso   1.000  O
  O11      1.0000 0.29150  0.07970  0.16760  Biso   1.000  O
  O12      1.0000 0.70850  0.92030  0.83240  Biso   1.000  O
  O13      1.0000 0.07500  0.72380  0.43380  Biso   1.000  O
  O14      1.0000 0.92500  0.27620  0.56620  Biso   1.000  O
  O15      1.0000 0.74790  0.10970  0.39310  Biso   1.000  O
  O16      1.0000 0.25210  0.89030  0.60690  Biso   1.000  O
  O17      1.0000 0.72260  0.95560  0.19740  Biso   1.000  O
  O18      1.0000 0.27740  0.04440  0.80260  Biso   1.000  O
  O19      1.0000 0.44330  0.71300  0.32430  Biso   1.000  O
  O20      1.0000 0.55670  0.28700  0.67570  Biso   1.000  O
  C7       1.0000 0.71320  0.49270  0.37040  Biso   1.000  C
  C8       1.0000 0.28680  0.50730  0.62960  Biso   1.000  C
  H5       1.0000 0.68780  0.55720  0.38790  Biso   1.000  H
  H6       1.0000 0.31220  0.44280  0.61210  Biso   1.000  H
  O21      1.0000 0.75100  0.91300  0.37920  Biso   1.000  O
  O22      1.0000 0.24900  0.08700  0.62080  Biso   1.000  O
  O23      1.0000 0.14400  0.92650  0.43280  Biso   1.000  O
  O24      1.0000 0.85600  0.07350  0.56720  Biso   1.000  O
  O25      1.0000 0.93640  0.88650  0.53690  Biso   1.000  O
  O26      1.0000 0.06360  0.11350  0.46310  Biso   1.000  O
  O27      1.0000 0.29890  0.89760  0.22320  Biso   1.000  O
  O28      1.0000 0.70110  0.10240  0.77680  Biso   1.000  O
  N3       1.0000 0.62390  0.40440  0.34510  Biso   1.000  N
  N4       1.0000 0.37610  0.59560  0.65490  Biso   1.000  N
  C9       1.0000 0.01080  0.39690  0.33850  Biso   1.000  C
  C10      1.0000 0.98920  0.60310  0.66150  Biso   1.000  C
  C11      1.0000 0.08780  0.47760  0.31990  Biso   1.000  C
  C12      1.0000 0.91220  0.52240  0.68010  Biso   1.000  C
  H7       1.0000 0.05470  0.53360  0.30950  Biso   1.000  H
  H8       1.0000 0.94530  0.46640  0.69050  Biso   1.000  H
  C13      1.0000 0.66160  0.31460  0.31890  Biso   1.000  C
  C14      1.0000 0.33840  0.68540  0.68110  Biso   1.000  C
  H9       1.0000 0.59850  0.25130  0.29770  Biso   1.000  H
  H10      1.0000 0.40150  0.74870  0.70230  Biso   1.000  H
  C15      1.0000 0.21330  0.47280  0.31710  Biso   1.000  C
  C16      1.0000 0.78670  0.52720  0.68290  Biso   1.000  C
  H11      1.0000 0.26310  0.52760  0.30650  Biso   1.000  H
  H12      1.0000 0.73690  0.47240  0.69350  Biso   1.000  H
  C17      1.0000 0.78770  0.30380  0.31940  Biso   1.000  C
  C18      1.0000 0.21230  0.69620  0.68060  Biso   1.000  C
  H13      1.0000 0.80950  0.23790  0.30380  Biso   1.000  H
  H14      1.0000 0.19050  0.76210  0.69620  Biso   1.000  H
  C19      1.0000 0.19260  0.31400  0.34410  Biso   1.000  C
  C20      1.0000 0.80740  0.68600  0.65590  Biso   1.000  C
  H15      1.0000 0.22660  0.25670  0.35080  Biso   1.000  H
  H16      1.0000 0.77340  0.74330  0.64920  Biso   1.000  H
  O29      1.0000 0.47130  0.97240  0.37200  Biso   1.000  O
  O30      1.0000 0.52870  0.02760  0.62800  Biso   1.000  O
  O31      1.0000 0.42200  0.86500  0.44210  Biso   1.000  O
  O32      1.0000 0.57800  0.13500  0.55790  Biso   1.000  O
  O33      1.0000 0.33680  0.74500  0.48130  Biso   1.000  O
  O34      1.0000 0.66320  0.25500  0.51870  Biso   1.000  O
  O35      1.0000 0.51980  0.03750  0.25950  Biso   1.000  O
  O36      1.0000 0.48020  0.96250  0.74050  Biso   1.000  O
  O37      1.0000 0.63800  0.00400  0.47600  Biso   1.000  O
  O38      1.0000 0.36200  0.99600  0.52400  Biso   1.000  O
  O39      1.0000 0.22850  0.78000  0.31460  Biso   1.000  O
  O40      1.0000 0.77150  0.22000  0.68540  Biso   1.000  O
  O41      1.0000 0.42090  0.06730  0.46330  Biso   1.000  O
  O42      1.0000 0.57910  0.93270  0.53670  Biso   1.000  O
  O43      1.0000 0.52060  0.83610  0.23440  Biso   1.000  O
  O44      1.0000 0.47940  0.16390  0.76560  Biso   1.000  O
  Cu3      1.0000 0.22570  0.65950  0.94450  Biso   1.000  Cu
  Cu4      1.0000 0.77430  0.34050  0.05550  Biso   1.000  Cu
  N5       1.0000 0.14000  0.77510  0.95480  Biso   1.000  N
  N6       1.0000 0.86000  0.22490  0.04520  Biso   1.000  N
  N7       1.0000 0.40600  0.64900  0.92430  Biso   1.000  N
  N8       1.0000 0.59400  0.35100  0.07570  Biso   1.000  N
  N9       1.0000 0.19500  0.49900  0.88560  Biso   1.000  N
  N10      1.0000 0.80500  0.50100  0.11440  Biso   1.000  N
  C21      1.0000 0.09300  0.42600  0.86500  Biso   1.000  C
  C22      1.0000 0.90700  0.57400  0.13500  Biso   1.000  C
  H17      1.0000 0.02290  0.45250  0.87970  Biso   1.000  H
  H18      1.0000 0.97710  0.54750  0.12030  Biso   1.000  H
  C23      1.0000 0.03040  0.95500  0.99100  Biso   1.000  C
  C24      1.0000 0.96960  0.04500  0.00900  Biso   1.000  C
  C25      1.0000 0.29400  0.46200  0.86110  Biso   1.000  C
  C26      1.0000 0.70600  0.53800  0.13890  Biso   1.000  C
  C27      1.0000 0.41400  0.54600  0.88760  Biso   1.000  C
  C28      1.0000 0.58600  0.45400  0.11240  Biso   1.000  C
  C29      1.0000 0.62500  0.70700  0.93800  Biso   1.000  C
  C30      1.0000 0.37500  0.29300  0.06200  Biso   1.000  C
  H19      1.0000 0.69340  0.76470  0.95350  Biso   1.000  H
  H20      1.0000 0.30660  0.23530  0.04650  Biso   1.000  H
  C31      1.0000 0.07000  0.31100  0.82100  Biso   1.000  C
  C32      1.0000 0.93000  0.68900  0.17900  Biso   1.000  C
  H21      1.0000 0.99020  0.28020  0.76190  Biso   1.000  H
  H22      1.0000 0.00980  0.71980  0.23810  Biso   1.000  H
  H23      1.0000 0.05930  0.28410  0.87610  Biso   1.000  H
  H24      1.0000 0.94070  0.71590  0.12390  Biso   1.000  H
  C33      1.0000 0.17700  0.27800  0.78400  Biso   1.000  C
  C34      1.0000 0.82300  0.72200  0.21600  Biso   1.000  C
  H25      1.0000 0.17100  0.20660  0.74340  Biso   1.000  H
  H26      1.0000 0.82900  0.79340  0.25660  Biso   1.000  H
  C35      1.0000 0.28500  0.35400  0.80800  Biso   1.000  C
  C36      1.0000 0.71500  0.64600  0.19200  Biso   1.000  C
  H27      1.0000 0.35570  0.33350  0.78840  Biso   1.000  H
  H28      1.0000 0.64430  0.66650  0.21160  Biso   1.000  H
  C37      1.0000 0.51200  0.72900  0.95200  Biso   1.000  C
  C38      1.0000 0.48800  0.27100  0.04800  Biso   1.000  C
  H29      1.0000 0.50680  0.79990  0.98110  Biso   1.000  H
  H30      1.0000 0.49320  0.20010  0.01890  Biso   1.000  H
  C39      1.0000 0.12900  0.93800  0.94100  Biso   1.000  C
  C40      1.0000 0.87100  0.06200  0.05900  Biso   1.000  C
  H31      1.0000 0.16230  0.98950  0.91690  Biso   1.000  H
  H32      1.0000 0.83770  0.01050  0.08310  Biso   1.000  H
  C41      1.0000 0.64300  0.60900  0.90500  Biso   1.000  C
  C42      1.0000 0.35700  0.39100  0.09500  Biso   1.000  C
  H33      1.0000 0.72290  0.59650  0.89940  Biso   1.000  H
  H34      1.0000 0.27710  0.40350  0.10060  Biso   1.000  H
  C43      1.0000 0.53400  0.52400  0.87700  Biso   1.000  C
  C44      1.0000 0.46600  0.47600  0.12300  Biso   1.000  C
  H35      1.0000 0.54050  0.45250  0.85090  Biso   1.000  H
  H36      1.0000 0.45950  0.54750  0.14910  Biso   1.000  H
  C45      1.0000 0.17600  0.85200  0.92620  Biso   1.000  C
  C46      1.0000 0.82400  0.14800  0.07380  Biso   1.000  C
  H37      1.0000 0.24070  0.84710  0.89230  Biso   1.000  H
  H38      1.0000 0.75930  0.15290  0.10770  Biso   1.000  H
  C47      1.0000 0.99300  0.87000  0.02200  Biso   1.000  C
  C48      1.0000 0.00700  0.13000  0.97800  Biso   1.000  C
  H39      1.0000 0.93190  0.87070  0.05920  Biso   1.000  H
  H40      1.0000 0.06810  0.12930  0.94080  Biso   1.000  H
  C49      1.0000 0.05200  0.78200  0.99300  Biso   1.000  C
  C50      1.0000 0.94800  0.21800  0.00700  Biso   1.000  C
  H41      1.0000 0.01730  0.72220  0.00500  Biso   1.000  H
  H42      1.0000 0.98270  0.27780  0.99500  Biso   1.000  H
