data_image0
_cell_length_a       12.5357
_cell_length_b       12.5357
_cell_length_c       12.901
_cell_angle_alpha    90
_cell_angle_beta     90
_cell_angle_gamma    90

_symmetry_space_group_name_H-M    "P 1"
_symmetry_int_tables_number       1

loop_
  _symmetry_equiv_pos_as_xyz
  'x, y, z'

loop_
  _atom_site_label
  _atom_site_occupancy
  _atom_site_fract_x
  _atom_site_fract_y
  _atom_site_fract_z
  _atom_site_thermal_displace_type
  _atom_site_B_iso_or_equiv
  _atom_site_type_symbol
  Cu1      1.0000 0.33946  0.16054  0.25431  Biso   1.000  Cu
  Cu2      1.0000 0.16054  0.33946  0.25431  Biso   1.000  Cu
  Cu3      1.0000 0.33946  0.33946  0.75431  Biso   1.000  Cu
  Cu4      1.0000 0.16054  0.16054  0.75431  Biso   1.000  Cu
  Cu5      1.0000 0.66054  0.66054  0.24569  Biso   1.000  Cu
  Cu6      1.0000 0.83946  0.83946  0.24569  Biso   1.000  Cu
  Cu7      1.0000 0.66054  0.83946  0.74569  Biso   1.000  Cu
  Cu8      1.0000 0.83946  0.66054  0.74569  Biso   1.000  Cu
  S1       1.0000 0.35059  0.18494  0.08302  Biso   1.000  S
  S2       1.0000 0.14941  0.31506  0.08302  Biso   1.000  S
  S3       1.0000 0.31506  0.35059  0.58302  Biso   1.000  S
  S4       1.0000 0.18494  0.14941  0.58302  Biso   1.000  S
  S5       1.0000 0.64941  0.68494  0.41698  Biso   1.000  S
  S6       1.0000 0.85059  0.81506  0.41698  Biso   1.000  S
  S7       1.0000 0.68494  0.85059  0.91698  Biso   1.000  S
  S8       1.0000 0.81506  0.64941  0.91698  Biso   1.000  S
  S9       1.0000 0.64941  0.81506  0.91698  Biso   1.000  S
  S10      1.0000 0.85059  0.68494  0.91698  Biso   1.000  S
  S11      1.0000 0.68494  0.64941  0.41698  Biso   1.000  S
  S12      1.0000 0.81506  0.85059  0.41698  Biso   1.000  S
  S13      1.0000 0.35059  0.31506  0.58302  Biso   1.000  S
  S14      1.0000 0.14941  0.18494  0.58302  Biso   1.000  S
  S15      1.0000 0.31506  0.14941  0.08302  Biso   1.000  S
  S16      1.0000 0.18494  0.35059  0.08302  Biso   1.000  S
  S17      1.0000 0.48120  0.03060  0.24484  Biso   1.000  S
  S18      1.0000 0.01880  0.46940  0.24484  Biso   1.000  S
  S19      1.0000 0.46940  0.48120  0.74484  Biso   1.000  S
  S20      1.0000 0.03060  0.01880  0.74484  Biso   1.000  S
  S21      1.0000 0.51880  0.53060  0.25516  Biso   1.000  S
  S22      1.0000 0.98120  0.96940  0.25516  Biso   1.000  S
  S23      1.0000 0.53060  0.98120  0.75516  Biso   1.000  S
  S24      1.0000 0.96940  0.51880  0.75516  Biso   1.000  S
  S25      1.0000 0.51880  0.96940  0.75516  Biso   1.000  S
  S26      1.0000 0.98120  0.53060  0.75516  Biso   1.000  S
  S27      1.0000 0.53060  0.51880  0.25516  Biso   1.000  S
  S28      1.0000 0.96940  0.98120  0.25516  Biso   1.000  S
  S29      1.0000 0.48120  0.46940  0.74484  Biso   1.000  S
  S30      1.0000 0.01880  0.03060  0.74484  Biso   1.000  S
  S31      1.0000 0.46940  0.01880  0.24484  Biso   1.000  S
  S32      1.0000 0.03060  0.48120  0.24484  Biso   1.000  S
  O1       1.0000 0.28106  0.09242  0.83629  Biso   1.000  O
  O2       1.0000 0.21894  0.40758  0.83629  Biso   1.000  O
  O3       1.0000 0.40758  0.28106  0.33629  Biso   1.000  O
  O4       1.0000 0.09242  0.21894  0.33629  Biso   1.000  O
  O5       1.0000 0.71894  0.59242  0.66371  Biso   1.000  O
  O6       1.0000 0.78106  0.90758  0.66371  Biso   1.000  O
  O7       1.0000 0.59242  0.78106  0.16371  Biso   1.000  O
  O8       1.0000 0.90758  0.71894  0.16371  Biso   1.000  O
  O9       1.0000 0.71894  0.90758  0.16371  Biso   1.000  O
  O10      1.0000 0.78106  0.59242  0.16371  Biso   1.000  O
  O11      1.0000 0.59242  0.71894  0.66371  Biso   1.000  O
  O12      1.0000 0.90758  0.78106  0.66371  Biso   1.000  O
  O13      1.0000 0.28106  0.40758  0.33629  Biso   1.000  O
  O14      1.0000 0.21894  0.09242  0.33629  Biso   1.000  O
  O15      1.0000 0.40758  0.21894  0.83629  Biso   1.000  O
  O16      1.0000 0.09242  0.28106  0.83629  Biso   1.000  O
  C1       1.0000 0.43820  0.08330  0.03960  Biso   1.000  C
  C2       1.0000 0.06180  0.41670  0.03960  Biso   1.000  C
  C3       1.0000 0.41670  0.43820  0.53960  Biso   1.000  C
  C4       1.0000 0.08330  0.06180  0.53960  Biso   1.000  C
  C5       1.0000 0.56180  0.58330  0.46040  Biso   1.000  C
  C6       1.0000 0.93820  0.91670  0.46040  Biso   1.000  C
  C7       1.0000 0.58330  0.93820  0.96040  Biso   1.000  C
  C8       1.0000 0.91670  0.56180  0.96040  Biso   1.000  C
  C9       1.0000 0.56180  0.91670  0.96040  Biso   1.000  C
  C10      1.0000 0.93820  0.58330  0.96040  Biso   1.000  C
  C11      1.0000 0.58330  0.56180  0.46040  Biso   1.000  C
  C12      1.0000 0.91670  0.93820  0.46040  Biso   1.000  C
  C13      1.0000 0.43820  0.41670  0.53960  Biso   1.000  C
  C14      1.0000 0.06180  0.08330  0.53960  Biso   1.000  C
  C15      1.0000 0.41670  0.06180  0.03960  Biso   1.000  C
  C16      1.0000 0.08330  0.43820  0.03960  Biso   1.000  C
  C17      1.0000 0.43330  0.30330  0.06750  Biso   1.000  C
  C18      1.0000 0.06670  0.19670  0.06750  Biso   1.000  C
  C19      1.0000 0.19670  0.43330  0.56750  Biso   1.000  C
  C20      1.0000 0.30330  0.06670  0.56750  Biso   1.000  C
  C21      1.0000 0.56670  0.80330  0.43250  Biso   1.000  C
  C22      1.0000 0.93330  0.69670  0.43250  Biso   1.000  C
  C23      1.0000 0.80330  0.93330  0.93250  Biso   1.000  C
  C24      1.0000 0.69670  0.56670  0.93250  Biso   1.000  C
  C25      1.0000 0.56670  0.69670  0.93250  Biso   1.000  C
  C26      1.0000 0.93330  0.80330  0.93250  Biso   1.000  C
  C27      1.0000 0.80330  0.56670  0.43250  Biso   1.000  C
  C28      1.0000 0.69670  0.93330  0.43250  Biso   1.000  C
  C29      1.0000 0.43330  0.19670  0.56750  Biso   1.000  C
  C30      1.0000 0.06670  0.30330  0.56750  Biso   1.000  C
  C31      1.0000 0.19670  0.06670  0.06750  Biso   1.000  C
  C32      1.0000 0.30330  0.43330  0.06750  Biso   1.000  C
  C33      1.0000 0.49640  0.01950  0.10810  Biso   1.000  C
  C34      1.0000 0.00360  0.48050  0.10810  Biso   1.000  C
  C35      1.0000 0.48050  0.49640  0.60810  Biso   1.000  C
  C36      1.0000 0.01950  0.00360  0.60810  Biso   1.000  C
  C37      1.0000 0.50360  0.51950  0.39190  Biso   1.000  C
  C38      1.0000 0.99640  0.98050  0.39190  Biso   1.000  C
  C39      1.0000 0.51950  0.99640  0.89190  Biso   1.000  C
  C40      1.0000 0.98050  0.50360  0.89190  Biso   1.000  C
  C41      1.0000 0.50360  0.98050  0.89190  Biso   1.000  C
  C42      1.0000 0.99640  0.51950  0.89190  Biso   1.000  C
  C43      1.0000 0.51950  0.50360  0.39190  Biso   1.000  C
  C44      1.0000 0.98050  0.99640  0.39190  Biso   1.000  C
  C45      1.0000 0.49640  0.48050  0.60810  Biso   1.000  C
  C46      1.0000 0.00360  0.01950  0.60810  Biso   1.000  C
  C47      1.0000 0.48050  0.00360  0.10810  Biso   1.000  C
  C48      1.0000 0.01950  0.49640  0.10810  Biso   1.000  C
  C49      1.0000 0.60060  0.11280  0.26570  Biso   1.000  C
  C50      1.0000 0.89940  0.38720  0.26570  Biso   1.000  C
  C51      1.0000 0.38720  0.60060  0.76570  Biso   1.000  C
  C52      1.0000 0.11280  0.89940  0.76570  Biso   1.000  C
  C53      1.0000 0.39940  0.61280  0.23430  Biso   1.000  C
  C54      1.0000 0.10060  0.88720  0.23430  Biso   1.000  C
  C55      1.0000 0.61280  0.10060  0.73430  Biso   1.000  C
  C56      1.0000 0.88720  0.39940  0.73430  Biso   1.000  C
  C57      1.0000 0.39940  0.88720  0.73430  Biso   1.000  C
  C58      1.0000 0.10060  0.61280  0.73430  Biso   1.000  C
  C59      1.0000 0.61280  0.39940  0.23430  Biso   1.000  C
  C60      1.0000 0.88720  0.10060  0.23430  Biso   1.000  C
  C61      1.0000 0.60060  0.38720  0.76570  Biso   1.000  C
  C62      1.0000 0.89940  0.11280  0.76570  Biso   1.000  C
  C63      1.0000 0.38720  0.89940  0.26570  Biso   1.000  C
  C64      1.0000 0.11280  0.60060  0.26570  Biso   1.000  C
  C65      1.0000 0.43830  0.06170  0.93210  Biso   1.000  C
  C66      1.0000 0.06170  0.43830  0.93210  Biso   1.000  C
  C67      1.0000 0.43830  0.43830  0.43210  Biso   1.000  C
  C68      1.0000 0.06170  0.06170  0.43210  Biso   1.000  C
  C69      1.0000 0.56170  0.56170  0.56790  Biso   1.000  C
  C70      1.0000 0.93830  0.93830  0.56790  Biso   1.000  C
  C71      1.0000 0.56170  0.93830  0.06790  Biso   1.000  C
  C72      1.0000 0.93830  0.56170  0.06790  Biso   1.000  C
  H1       1.0000 0.49545  0.29820  0.11329  Biso   1.000  H
  H2       1.0000 0.00455  0.20180  0.11329  Biso   1.000  H
  H3       1.0000 0.20180  0.49545  0.61329  Biso   1.000  H
  H4       1.0000 0.29820  0.00455  0.61329  Biso   1.000  H
  H5       1.0000 0.50455  0.79820  0.38671  Biso   1.000  H
  H6       1.0000 0.99545  0.70180  0.38671  Biso   1.000  H
  H7       1.0000 0.79820  0.99545  0.88671  Biso   1.000  H
  H8       1.0000 0.70180  0.50455  0.88671  Biso   1.000  H
  H9       1.0000 0.50455  0.70180  0.88671  Biso   1.000  H
  H10      1.0000 0.99545  0.79820  0.88671  Biso   1.000  H
  H11      1.0000 0.79820  0.50455  0.38671  Biso   1.000  H
  H12      1.0000 0.70180  0.99545  0.38671  Biso   1.000  H
  H13      1.0000 0.49545  0.20180  0.61329  Biso   1.000  H
  H14      1.0000 0.00455  0.29820  0.61329  Biso   1.000  H
  H15      1.0000 0.20180  0.00455  0.11329  Biso   1.000  H
  H16      1.0000 0.29820  0.49545  0.11329  Biso   1.000  H
  H17      1.0000 0.39171  0.36683  0.08539  Biso   1.000  H
  H18      1.0000 0.10829  0.13317  0.08539  Biso   1.000  H
  H19      1.0000 0.13317  0.39171  0.58539  Biso   1.000  H
  H20      1.0000 0.36683  0.10829  0.58539  Biso   1.000  H
  H21      1.0000 0.60829  0.86683  0.41461  Biso   1.000  H
  H22      1.0000 0.89171  0.63317  0.41461  Biso   1.000  H
  H23      1.0000 0.86683  0.89171  0.91461  Biso   1.000  H
  H24      1.0000 0.63317  0.60829  0.91461  Biso   1.000  H
  H25      1.0000 0.60829  0.63317  0.91461  Biso   1.000  H
  H26      1.0000 0.89171  0.86683  0.91461  Biso   1.000  H
  H27      1.0000 0.86683  0.60829  0.41461  Biso   1.000  H
  H28      1.0000 0.63317  0.89171  0.41461  Biso   1.000  H
  H29      1.0000 0.39171  0.13317  0.58539  Biso   1.000  H
  H30      1.0000 0.10829  0.36683  0.58539  Biso   1.000  H
  H31      1.0000 0.13317  0.10829  0.08539  Biso   1.000  H
  H32      1.0000 0.36683  0.39171  0.08539  Biso   1.000  H
  H33      1.0000 0.45729  0.30846  0.99534  Biso   1.000  H
  H34      1.0000 0.04271  0.19154  0.99534  Biso   1.000  H
  H35      1.0000 0.19154  0.45729  0.49534  Biso   1.000  H
  H36      1.0000 0.30846  0.04271  0.49534  Biso   1.000  H
  H37      1.0000 0.54271  0.80846  0.50466  Biso   1.000  H
  H38      1.0000 0.95729  0.69154  0.50466  Biso   1.000  H
  H39      1.0000 0.80846  0.95729  0.00466  Biso   1.000  H
  H40      1.0000 0.69154  0.54271  0.00466  Biso   1.000  H
  H41      1.0000 0.54271  0.69154  0.00466  Biso   1.000  H
  H42      1.0000 0.95729  0.80846  0.00466  Biso   1.000  H
  H43      1.0000 0.80846  0.54271  0.50466  Biso   1.000  H
  H44      1.0000 0.69154  0.95729  0.50466  Biso   1.000  H
  H45      1.0000 0.45729  0.19154  0.49534  Biso   1.000  H
  H46      1.0000 0.04271  0.30846  0.49534  Biso   1.000  H
  H47      1.0000 0.19154  0.04271  0.99534  Biso   1.000  H
  H48      1.0000 0.30846  0.45729  0.99534  Biso   1.000  H
  H49      1.0000 0.66456  0.06890  0.25598  Biso   1.000  H
  H50      1.0000 0.83544  0.43110  0.25598  Biso   1.000  H
  H51      1.0000 0.43110  0.66456  0.75598  Biso   1.000  H
  H52      1.0000 0.06890  0.83544  0.75598  Biso   1.000  H
  H53      1.0000 0.33544  0.56890  0.24402  Biso   1.000  H
  H54      1.0000 0.16456  0.93110  0.24402  Biso   1.000  H
  H55      1.0000 0.56890  0.16456  0.74402  Biso   1.000  H
  H56      1.0000 0.93110  0.33544  0.74402  Biso   1.000  H
  H57      1.0000 0.33544  0.93110  0.74402  Biso   1.000  H
  H58      1.0000 0.16456  0.56890  0.74402  Biso   1.000  H
  H59      1.0000 0.56890  0.33544  0.24402  Biso   1.000  H
  H60      1.0000 0.93110  0.16456  0.24402  Biso   1.000  H
  H61      1.0000 0.66456  0.43110  0.75598  Biso   1.000  H
  H62      1.0000 0.83544  0.06890  0.75598  Biso   1.000  H
  H63      1.0000 0.43110  0.83544  0.25598  Biso   1.000  H
  H64      1.0000 0.06890  0.66456  0.25598  Biso   1.000  H
  H65      1.0000 0.59979  0.14149  0.33630  Biso   1.000  H
  H66      1.0000 0.90021  0.35851  0.33630  Biso   1.000  H
  H67      1.0000 0.35851  0.59979  0.83630  Biso   1.000  H
  H68      1.0000 0.14149  0.90021  0.83630  Biso   1.000  H
  H69      1.0000 0.40021  0.64149  0.16370  Biso   1.000  H
  H70      1.0000 0.09979  0.85851  0.16370  Biso   1.000  H
  H71      1.0000 0.64149  0.09979  0.66370  Biso   1.000  H
  H72      1.0000 0.85851  0.40021  0.66370  Biso   1.000  H
  H73      1.0000 0.40021  0.85851  0.66370  Biso   1.000  H
  H74      1.0000 0.09979  0.64149  0.66370  Biso   1.000  H
  H75      1.0000 0.64149  0.40021  0.16370  Biso   1.000  H
  H76      1.0000 0.85851  0.09979  0.16370  Biso   1.000  H
  H77      1.0000 0.59979  0.35851  0.83630  Biso   1.000  H
  H78      1.0000 0.90021  0.14149  0.83630  Biso   1.000  H
  H79      1.0000 0.35851  0.90021  0.33630  Biso   1.000  H
  H80      1.0000 0.14149  0.59979  0.33630  Biso   1.000  H
  H81      1.0000 0.60123  0.17175  0.21580  Biso   1.000  H
  H82      1.0000 0.89877  0.32825  0.21580  Biso   1.000  H
  H83      1.0000 0.32825  0.60123  0.71580  Biso   1.000  H
  H84      1.0000 0.17175  0.89877  0.71580  Biso   1.000  H
  H85      1.0000 0.39877  0.67175  0.28420  Biso   1.000  H
  H86      1.0000 0.10123  0.82825  0.28420  Biso   1.000  H
  H87      1.0000 0.67175  0.10123  0.78420  Biso   1.000  H
  H88      1.0000 0.82825  0.39877  0.78420  Biso   1.000  H
  H89      1.0000 0.39877  0.82825  0.78420  Biso   1.000  H
  H90      1.0000 0.10123  0.67175  0.78420  Biso   1.000  H
  H91      1.0000 0.67175  0.39877  0.28420  Biso   1.000  H
  H92      1.0000 0.82825  0.10123  0.28420  Biso   1.000  H
  H93      1.0000 0.60123  0.32825  0.71580  Biso   1.000  H
  H94      1.0000 0.89877  0.17175  0.71580  Biso   1.000  H
  H95      1.0000 0.32825  0.89877  0.21580  Biso   1.000  H
  H96      1.0000 0.17175  0.60123  0.21580  Biso   1.000  H
  C73      1.0000 0.36936  0.13064  0.86180  Biso   1.000  C
  C74      1.0000 0.13064  0.36936  0.86180  Biso   1.000  C
  C75      1.0000 0.36936  0.36936  0.36180  Biso   1.000  C
  C76      1.0000 0.13064  0.13064  0.36180  Biso   1.000  C
  C77      1.0000 0.63064  0.63064  0.63820  Biso   1.000  C
  C78      1.0000 0.86936  0.86936  0.63820  Biso   1.000  C
  C79      1.0000 0.63064  0.86936  0.13820  Biso   1.000  C
  C80      1.0000 0.86936  0.63064  0.13820  Biso   1.000  C
  O17      1.0000 0.42350  0.73510  0.00000  Biso   1.000  O
  O18      1.0000 0.07650  0.76490  0.00000  Biso   1.000  O
  O19      1.0000 0.76490  0.42350  0.50000  Biso   1.000  O
  O20      1.0000 0.73510  0.07650  0.50000  Biso   1.000  O
  O21      1.0000 0.57650  0.23510  0.50000  Biso   1.000  O
  O22      1.0000 0.92350  0.26490  0.50000  Biso   1.000  O
  O23      1.0000 0.23510  0.92350  0.00000  Biso   1.000  O
  O24      1.0000 0.26490  0.57650  0.00000  Biso   1.000  O
  O25      1.0000 0.57650  0.26490  0.00000  Biso   1.000  O
  O26      1.0000 0.92350  0.23510  0.00000  Biso   1.000  O
  O27      1.0000 0.23510  0.57650  0.50000  Biso   1.000  O
  O28      1.0000 0.26490  0.92350  0.50000  Biso   1.000  O
  O29      1.0000 0.42350  0.76490  0.50000  Biso   1.000  O
  O30      1.0000 0.07650  0.73510  0.50000  Biso   1.000  O
  O31      1.0000 0.76490  0.07650  0.00000  Biso   1.000  O
  O32      1.0000 0.73510  0.42350  0.00000  Biso   1.000  O
  O33      1.0000 0.25660  0.86590  0.82370  Biso   1.000  O
  O34      1.0000 0.24340  0.63410  0.82370  Biso   1.000  O
  O35      1.0000 0.63410  0.25660  0.32370  Biso   1.000  O
  O36      1.0000 0.86590  0.24340  0.32370  Biso   1.000  O
  O37      1.0000 0.74340  0.36590  0.67630  Biso   1.000  O
  O38      1.0000 0.75660  0.13410  0.67630  Biso   1.000  O
  O39      1.0000 0.36590  0.75660  0.17630  Biso   1.000  O
  O40      1.0000 0.13410  0.74340  0.17630  Biso   1.000  O
  O41      1.0000 0.74340  0.13410  0.17630  Biso   1.000  O
  O42      1.0000 0.75660  0.36590  0.17630  Biso   1.000  O
  O43      1.0000 0.36590  0.74340  0.67630  Biso   1.000  O
  O44      1.0000 0.13410  0.75660  0.67630  Biso   1.000  O
  O45      1.0000 0.25660  0.63410  0.32370  Biso   1.000  O
  O46      1.0000 0.24340  0.86590  0.32370  Biso   1.000  O
  O47      1.0000 0.63410  0.24340  0.82370  Biso   1.000  O
  O48      1.0000 0.86590  0.25660  0.82370  Biso   1.000  O
  O49      1.0000 0.25000  0.75000  0.02000  Biso   1.000  O
  O50      1.0000 0.75000  0.25000  0.52000  Biso   1.000  O
  O51      1.0000 0.75000  0.25000  0.48000  Biso   1.000  O
  O52      1.0000 0.25000  0.75000  0.98000  Biso   1.000  O
  O53      1.0000 0.75000  0.25000  0.98000  Biso   1.000  O
  O54      1.0000 0.25000  0.75000  0.48000  Biso   1.000  O
  O55      1.0000 0.25000  0.75000  0.52000  Biso   1.000  O
  O56      1.0000 0.75000  0.25000  0.02000  Biso   1.000  O
