data_image0
_cell_length_a       16.5658
_cell_length_b       20.25
_cell_length_c       15.4873
_cell_angle_alpha    90
_cell_angle_beta     107.879
_cell_angle_gamma    90

_symmetry_space_group_name_H-M    "P 1"
_symmetry_int_tables_number       1

loop_
  _symmetry_equiv_pos_as_xyz
  'x, y, z'

loop_
  _atom_site_label
  _atom_site_occupancy
  _atom_site_fract_x
  _atom_site_fract_y
  _atom_site_fract_z
  _atom_site_thermal_displace_type
  _atom_site_B_iso_or_equiv
  _atom_site_type_symbol
  Cu1      1.0000 0.24480  0.24544  0.59809  Biso   1.000  Cu
  Cu2      1.0000 0.74480  0.74544  0.59809  Biso   1.000  Cu
  Cu3      1.0000 0.75520  0.24544  0.90191  Biso   1.000  Cu
  Cu4      1.0000 0.25520  0.74544  0.90191  Biso   1.000  Cu
  Cu5      1.0000 0.75520  0.75456  0.40191  Biso   1.000  Cu
  Cu6      1.0000 0.25520  0.25456  0.40191  Biso   1.000  Cu
  Cu7      1.0000 0.24480  0.75456  0.09809  Biso   1.000  Cu
  Cu8      1.0000 0.74480  0.25456  0.09809  Biso   1.000  Cu
  Cl1      1.0000 0.13399  0.23224  0.45849  Biso   1.000  Cl
  Cl2      1.0000 0.63399  0.73224  0.45849  Biso   1.000  Cl
  Cl3      1.0000 0.86601  0.23224  0.04151  Biso   1.000  Cl
  Cl4      1.0000 0.36601  0.73224  0.04151  Biso   1.000  Cl
  Cl5      1.0000 0.86601  0.76776  0.54151  Biso   1.000  Cl
  Cl6      1.0000 0.36601  0.26776  0.54151  Biso   1.000  Cl
  Cl7      1.0000 0.13399  0.76776  0.95849  Biso   1.000  Cl
  Cl8      1.0000 0.63399  0.26776  0.95849  Biso   1.000  Cl
  N1       1.0000 0.25510  0.15696  0.66030  Biso   1.000  N
  N2       1.0000 0.75510  0.65696  0.66030  Biso   1.000  N
  N3       1.0000 0.74490  0.15696  0.83970  Biso   1.000  N
  N4       1.0000 0.24490  0.65696  0.83970  Biso   1.000  N
  N5       1.0000 0.74490  0.84304  0.33970  Biso   1.000  N
  N6       1.0000 0.24490  0.34304  0.33970  Biso   1.000  N
  N7       1.0000 0.25510  0.84304  0.16030  Biso   1.000  N
  N8       1.0000 0.75510  0.34304  0.16030  Biso   1.000  N
  C1       1.0000 0.26360  0.02969  0.73580  Biso   1.000  C
  C2       1.0000 0.76360  0.52969  0.73580  Biso   1.000  C
  C3       1.0000 0.73640  0.02969  0.76420  Biso   1.000  C
  C4       1.0000 0.23640  0.52969  0.76420  Biso   1.000  C
  C5       1.0000 0.73640  0.97031  0.26420  Biso   1.000  C
  C6       1.0000 0.23640  0.47031  0.26420  Biso   1.000  C
  C7       1.0000 0.26360  0.97031  0.23580  Biso   1.000  C
  C8       1.0000 0.76360  0.47031  0.23580  Biso   1.000  C
  C9       1.0000 0.26800  0.96291  0.77910  Biso   1.000  C
  C10      1.0000 0.76800  0.46291  0.77910  Biso   1.000  C
  C11      1.0000 0.73200  0.96291  0.72090  Biso   1.000  C
  C12      1.0000 0.23200  0.46291  0.72090  Biso   1.000  C
  C13      1.0000 0.73200  0.03709  0.22090  Biso   1.000  C
  C14      1.0000 0.23200  0.53709  0.22090  Biso   1.000  C
  C15      1.0000 0.26800  0.03709  0.27910  Biso   1.000  C
  C16      1.0000 0.76800  0.53709  0.27910  Biso   1.000  C
  C17      1.0000 0.40780  0.05800  0.83840  Biso   1.000  C
  C18      1.0000 0.90780  0.55800  0.83840  Biso   1.000  C
  C19      1.0000 0.59220  0.05800  0.66160  Biso   1.000  C
  C20      1.0000 0.09220  0.55800  0.66160  Biso   1.000  C
  C21      1.0000 0.59220  0.94200  0.16160  Biso   1.000  C
  C22      1.0000 0.09220  0.44200  0.16160  Biso   1.000  C
  C23      1.0000 0.40780  0.94200  0.33840  Biso   1.000  C
  C24      1.0000 0.90780  0.44200  0.33840  Biso   1.000  C
  H1       1.0000 0.41430  0.01560  0.86280  Biso   1.000  H
  H2       1.0000 0.91430  0.51560  0.86280  Biso   1.000  H
  H3       1.0000 0.58570  0.01560  0.63720  Biso   1.000  H
  H4       1.0000 0.08570  0.51560  0.63720  Biso   1.000  H
  H5       1.0000 0.58570  0.98440  0.13720  Biso   1.000  H
  H6       1.0000 0.08570  0.48440  0.13720  Biso   1.000  H
  H7       1.0000 0.41430  0.98440  0.36280  Biso   1.000  H
  H8       1.0000 0.91430  0.48440  0.36280  Biso   1.000  H
  C25      1.0000 0.32390  0.13870  0.73120  Biso   1.000  C
  C26      1.0000 0.82390  0.63870  0.73120  Biso   1.000  C
  C27      1.0000 0.67610  0.13870  0.76880  Biso   1.000  C
  C28      1.0000 0.17610  0.63870  0.76880  Biso   1.000  C
  C29      1.0000 0.67610  0.86130  0.26880  Biso   1.000  C
  C30      1.0000 0.17610  0.36130  0.26880  Biso   1.000  C
  C31      1.0000 0.32390  0.86130  0.23120  Biso   1.000  C
  C32      1.0000 0.82390  0.36130  0.23120  Biso   1.000  C
  C33      1.0000 0.33170  0.07409  0.76870  Biso   1.000  C
  C34      1.0000 0.83170  0.57409  0.76870  Biso   1.000  C
  C35      1.0000 0.66830  0.07409  0.73130  Biso   1.000  C
  C36      1.0000 0.16830  0.57409  0.73130  Biso   1.000  C
  C37      1.0000 0.66830  0.92591  0.23130  Biso   1.000  C
  C38      1.0000 0.16830  0.42591  0.23130  Biso   1.000  C
  C39      1.0000 0.33170  0.92591  0.26870  Biso   1.000  C
  C40      1.0000 0.83170  0.42591  0.26870  Biso   1.000  C
  C41      1.0000 0.23930  0.95176  0.85150  Biso   1.000  C
  C42      1.0000 0.73930  0.45176  0.85150  Biso   1.000  C
  C43      1.0000 0.76070  0.95176  0.64850  Biso   1.000  C
  C44      1.0000 0.26070  0.45176  0.64850  Biso   1.000  C
  C45      1.0000 0.76070  0.04824  0.14850  Biso   1.000  C
  C46      1.0000 0.26070  0.54824  0.14850  Biso   1.000  C
  C47      1.0000 0.23930  0.04824  0.35150  Biso   1.000  C
  C48      1.0000 0.73930  0.54824  0.35150  Biso   1.000  C
  C49      1.0000 0.19460  0.04940  0.66580  Biso   1.000  C
  C50      1.0000 0.69460  0.54940  0.66580  Biso   1.000  C
  C51      1.0000 0.80540  0.04940  0.83420  Biso   1.000  C
  C52      1.0000 0.30540  0.54940  0.83420  Biso   1.000  C
  C53      1.0000 0.80540  0.95060  0.33420  Biso   1.000  C
  C54      1.0000 0.30540  0.45060  0.33420  Biso   1.000  C
  C55      1.0000 0.19460  0.95060  0.16580  Biso   1.000  C
  C56      1.0000 0.69460  0.45060  0.16580  Biso   1.000  C
  C57      1.0000 0.19440  0.11300  0.62960  Biso   1.000  C
  C58      1.0000 0.69440  0.61300  0.62960  Biso   1.000  C
  C59      1.0000 0.80560  0.11300  0.87040  Biso   1.000  C
  C60      1.0000 0.30560  0.61300  0.87040  Biso   1.000  C
  C61      1.0000 0.80560  0.88700  0.37040  Biso   1.000  C
  C62      1.0000 0.30560  0.38700  0.37040  Biso   1.000  C
  C63      1.0000 0.19440  0.88700  0.12960  Biso   1.000  C
  C64      1.0000 0.69440  0.38700  0.12960  Biso   1.000  C
  H9       1.0000 0.14820  0.12490  0.58050  Biso   1.000  H
  H10      1.0000 0.64820  0.62490  0.58050  Biso   1.000  H
  H11      1.0000 0.85180  0.12490  0.91950  Biso   1.000  H
  H12      1.0000 0.35180  0.62490  0.91950  Biso   1.000  H
  H13      1.0000 0.85180  0.87510  0.41950  Biso   1.000  H
  H14      1.0000 0.35180  0.37510  0.41950  Biso   1.000  H
  H15      1.0000 0.14820  0.87510  0.08050  Biso   1.000  H
  H16      1.0000 0.64820  0.37510  0.08050  Biso   1.000  H
  C65      1.0000 0.38790  0.18440  0.76800  Biso   1.000  C
  C66      1.0000 0.88790  0.68440  0.76800  Biso   1.000  C
  C67      1.0000 0.61210  0.18440  0.73200  Biso   1.000  C
  C68      1.0000 0.11210  0.68440  0.73200  Biso   1.000  C
  C69      1.0000 0.61210  0.81560  0.23200  Biso   1.000  C
  C70      1.0000 0.11210  0.31560  0.23200  Biso   1.000  C
  C71      1.0000 0.38790  0.81560  0.26800  Biso   1.000  C
  C72      1.0000 0.88790  0.31560  0.26800  Biso   1.000  C
  H17      1.0000 0.38220  0.22730  0.74570  Biso   1.000  H
  H18      1.0000 0.88220  0.72730  0.74570  Biso   1.000  H
  H19      1.0000 0.61780  0.22730  0.75430  Biso   1.000  H
  H20      1.0000 0.11780  0.72730  0.75430  Biso   1.000  H
  H21      1.0000 0.61780  0.77270  0.25430  Biso   1.000  H
  H22      1.0000 0.11780  0.27270  0.25430  Biso   1.000  H
  H23      1.0000 0.38220  0.77270  0.24570  Biso   1.000  H
  H24      1.0000 0.88220  0.27270  0.24570  Biso   1.000  H
  C73      1.0000 0.47090  0.10220  0.87010  Biso   1.000  C
  C74      1.0000 0.97090  0.60220  0.87010  Biso   1.000  C
  C75      1.0000 0.52910  0.10220  0.62990  Biso   1.000  C
  C76      1.0000 0.02910  0.60220  0.62990  Biso   1.000  C
  C77      1.0000 0.52910  0.89780  0.12990  Biso   1.000  C
  C78      1.0000 0.02910  0.39780  0.12990  Biso   1.000  C
  C79      1.0000 0.47090  0.89780  0.37010  Biso   1.000  C
  C80      1.0000 0.97090  0.39780  0.37010  Biso   1.000  C
  C81      1.0000 0.45860  0.16730  0.83630  Biso   1.000  C
  C82      1.0000 0.95860  0.66730  0.83630  Biso   1.000  C
  C83      1.0000 0.54140  0.16730  0.66370  Biso   1.000  C
  C84      1.0000 0.04140  0.66730  0.66370  Biso   1.000  C
  C85      1.0000 0.54140  0.83270  0.16370  Biso   1.000  C
  C86      1.0000 0.04140  0.33270  0.16370  Biso   1.000  C
  C87      1.0000 0.45860  0.83270  0.33630  Biso   1.000  C
  C88      1.0000 0.95860  0.33270  0.33630  Biso   1.000  C
  H25      1.0000 0.49970  0.19910  0.86100  Biso   1.000  H
  H26      1.0000 0.99970  0.69910  0.86100  Biso   1.000  H
  H27      1.0000 0.50030  0.19910  0.63900  Biso   1.000  H
  H28      1.0000 0.00030  0.69910  0.63900  Biso   1.000  H
  H29      1.0000 0.50030  0.80090  0.13900  Biso   1.000  H
  H30      1.0000 0.00030  0.30090  0.13900  Biso   1.000  H
  H31      1.0000 0.49970  0.80090  0.36100  Biso   1.000  H
  H32      1.0000 0.99970  0.30090  0.36100  Biso   1.000  H
  C89      1.0000 0.30640  0.91020  0.74740  Biso   1.000  C
  C90      1.0000 0.80640  0.41020  0.74740  Biso   1.000  C
  C91      1.0000 0.69360  0.91020  0.75260  Biso   1.000  C
  C92      1.0000 0.19360  0.41020  0.75260  Biso   1.000  C
  C93      1.0000 0.69360  0.08980  0.25260  Biso   1.000  C
  C94      1.0000 0.19360  0.58980  0.25260  Biso   1.000  C
  C95      1.0000 0.30640  0.08980  0.24740  Biso   1.000  C
  C96      1.0000 0.80640  0.58980  0.24740  Biso   1.000  C
  C97      1.0000 0.55400  0.08450  0.94000  Biso   1.000  C
  C98      1.0000 0.05400  0.58450  0.94000  Biso   1.000  C
  C99      1.0000 0.44600  0.08450  0.56000  Biso   1.000  C
  C100     1.0000 0.94600  0.58450  0.56000  Biso   1.000  C
  C101     1.0000 0.44600  0.91550  0.06000  Biso   1.000  C
  C102     1.0000 0.94600  0.41550  0.06000  Biso   1.000  C
  C103     1.0000 0.55400  0.91550  0.44000  Biso   1.000  C
  C104     1.0000 0.05400  0.41550  0.44000  Biso   1.000  C
  H33      1.0000 0.55300  0.03890  0.95680  Biso   1.000  H
  H34      1.0000 0.05300  0.53890  0.95680  Biso   1.000  H
  H35      1.0000 0.44700  0.03890  0.54320  Biso   1.000  H
  H36      1.0000 0.94700  0.53890  0.54320  Biso   1.000  H
  H37      1.0000 0.44700  0.96110  0.04320  Biso   1.000  H
  H38      1.0000 0.94700  0.46110  0.04320  Biso   1.000  H
  H39      1.0000 0.55300  0.96110  0.45680  Biso   1.000  H
  H40      1.0000 0.05300  0.46110  0.45680  Biso   1.000  H
  H41      1.0000 0.56230  0.11180  0.99270  Biso   1.000  H
  H42      1.0000 0.06230  0.61180  0.99270  Biso   1.000  H
  H43      1.0000 0.43770  0.11180  0.50730  Biso   1.000  H
  H44      1.0000 0.93770  0.61180  0.50730  Biso   1.000  H
  H45      1.0000 0.43770  0.88820  0.00730  Biso   1.000  H
  H46      1.0000 0.93770  0.38820  0.00730  Biso   1.000  H
  H47      1.0000 0.56230  0.88820  0.49270  Biso   1.000  H
  H48      1.0000 0.06230  0.38820  0.49270  Biso   1.000  H
  H49      1.0000 0.59970  0.09150  0.91500  Biso   1.000  H
  H50      1.0000 0.09970  0.59150  0.91500  Biso   1.000  H
  H51      1.0000 0.40030  0.09150  0.58500  Biso   1.000  H
  H52      1.0000 0.90030  0.59150  0.58500  Biso   1.000  H
  H53      1.0000 0.40030  0.90850  0.08500  Biso   1.000  H
  H54      1.0000 0.90030  0.40850  0.08500  Biso   1.000  H
  H55      1.0000 0.59970  0.90850  0.41500  Biso   1.000  H
  H56      1.0000 0.09970  0.40850  0.41500  Biso   1.000  H
  O1       1.0000 0.11940  0.95080  0.64630  Biso   1.000  O
  O2       1.0000 0.61940  0.45080  0.64630  Biso   1.000  O
  O3       1.0000 0.88060  0.95080  0.85370  Biso   1.000  O
  O4       1.0000 0.38060  0.45080  0.85370  Biso   1.000  O
  O5       1.0000 0.88060  0.04920  0.35370  Biso   1.000  O
  O6       1.0000 0.38060  0.54920  0.35370  Biso   1.000  O
  O7       1.0000 0.11940  0.04920  0.14630  Biso   1.000  O
  O8       1.0000 0.61940  0.54920  0.14630  Biso   1.000  O
  C105     1.0000 0.20440  0.00290  0.89880  Biso   1.000  C
  C106     1.0000 0.70440  0.50290  0.89880  Biso   1.000  C
  C107     1.0000 0.79560  0.00290  0.60120  Biso   1.000  C
  C108     1.0000 0.29560  0.50290  0.60120  Biso   1.000  C
  C109     1.0000 0.79560  0.99710  0.10120  Biso   1.000  C
  C110     1.0000 0.29560  0.49710  0.10120  Biso   1.000  C
  C111     1.0000 0.20440  0.99710  0.39880  Biso   1.000  C
  C112     1.0000 0.70440  0.49710  0.39880  Biso   1.000  C
  C113     1.0000 0.34500  0.91760  0.67890  Biso   1.000  C
  C114     1.0000 0.84500  0.41760  0.67890  Biso   1.000  C
  C115     1.0000 0.65500  0.91760  0.82110  Biso   1.000  C
  C116     1.0000 0.15500  0.41760  0.82110  Biso   1.000  C
  C117     1.0000 0.65500  0.08240  0.32110  Biso   1.000  C
  C118     1.0000 0.15500  0.58240  0.32110  Biso   1.000  C
  C119     1.0000 0.34500  0.08240  0.17890  Biso   1.000  C
  C120     1.0000 0.84500  0.58240  0.17890  Biso   1.000  C
  H57      1.0000 0.34190  0.95830  0.65020  Biso   1.000  H
  H58      1.0000 0.84190  0.45830  0.65020  Biso   1.000  H
  H59      1.0000 0.65810  0.95830  0.84980  Biso   1.000  H
  H60      1.0000 0.15810  0.45830  0.84980  Biso   1.000  H
  H61      1.0000 0.65810  0.04170  0.34980  Biso   1.000  H
  H62      1.0000 0.15810  0.54170  0.34980  Biso   1.000  H
  H63      1.0000 0.34190  0.04170  0.15020  Biso   1.000  H
  H64      1.0000 0.84190  0.54170  0.15020  Biso   1.000  H
  O9       1.0000 0.17940  0.05450  0.85920  Biso   1.000  O
  O10      1.0000 0.67940  0.55450  0.85920  Biso   1.000  O
  O11      1.0000 0.82060  0.05450  0.64080  Biso   1.000  O
  O12      1.0000 0.32060  0.55450  0.64080  Biso   1.000  O
  O13      1.0000 0.82060  0.94550  0.14080  Biso   1.000  O
  O14      1.0000 0.32060  0.44550  0.14080  Biso   1.000  O
  O15      1.0000 0.17940  0.94550  0.35920  Biso   1.000  O
  O16      1.0000 0.67940  0.44550  0.35920  Biso   1.000  O
  C121     1.0000 0.11620  0.01020  0.62820  Biso   1.000  C
  C122     1.0000 0.61620  0.51020  0.62820  Biso   1.000  C
  C123     1.0000 0.88380  0.01020  0.87180  Biso   1.000  C
  C124     1.0000 0.38380  0.51020  0.87180  Biso   1.000  C
  C125     1.0000 0.88380  0.98980  0.37180  Biso   1.000  C
  C126     1.0000 0.38380  0.48980  0.37180  Biso   1.000  C
  C127     1.0000 0.11620  0.98980  0.12820  Biso   1.000  C
  C128     1.0000 0.61620  0.48980  0.12820  Biso   1.000  C
  O17      1.0000 0.05180  0.03640  0.57980  Biso   1.000  O
  O18      1.0000 0.55180  0.53640  0.57980  Biso   1.000  O
  O19      1.0000 0.94820  0.03640  0.92020  Biso   1.000  O
  O20      1.0000 0.44820  0.53640  0.92020  Biso   1.000  O
  O21      1.0000 0.94820  0.96360  0.42020  Biso   1.000  O
  O22      1.0000 0.44820  0.46360  0.42020  Biso   1.000  O
  O23      1.0000 0.05180  0.96360  0.07980  Biso   1.000  O
  O24      1.0000 0.55180  0.46360  0.07980  Biso   1.000  O
  O25      1.0000 0.20340  0.99510  0.97230  Biso   1.000  O
  O26      1.0000 0.70340  0.49510  0.97230  Biso   1.000  O
  O27      1.0000 0.79660  0.99510  0.52770  Biso   1.000  O
  O28      1.0000 0.29660  0.49510  0.52770  Biso   1.000  O
  O29      1.0000 0.79660  0.00490  0.02770  Biso   1.000  O
  O30      1.0000 0.29660  0.50490  0.02770  Biso   1.000  O
  O31      1.0000 0.20340  0.00490  0.47230  Biso   1.000  O
  O32      1.0000 0.70340  0.50490  0.47230  Biso   1.000  O
  C129     1.0000 0.30710  0.84690  0.78660  Biso   1.000  C
  C130     1.0000 0.80710  0.34690  0.78660  Biso   1.000  C
  C131     1.0000 0.69290  0.84690  0.71340  Biso   1.000  C
  C132     1.0000 0.19290  0.34690  0.71340  Biso   1.000  C
  C133     1.0000 0.69290  0.15310  0.21340  Biso   1.000  C
  C134     1.0000 0.19290  0.65310  0.21340  Biso   1.000  C
  C135     1.0000 0.30710  0.15310  0.28660  Biso   1.000  C
  C136     1.0000 0.80710  0.65310  0.28660  Biso   1.000  C
  N9       1.0000 0.27050  0.83572  0.85360  Biso   1.000  N
  N10      1.0000 0.77050  0.33572  0.85360  Biso   1.000  N
  N11      1.0000 0.72950  0.83572  0.64640  Biso   1.000  N
  N12      1.0000 0.22950  0.33572  0.64640  Biso   1.000  N
  N13      1.0000 0.72950  0.16428  0.14640  Biso   1.000  N
  N14      1.0000 0.22950  0.66428  0.14640  Biso   1.000  N
  N15      1.0000 0.27050  0.16428  0.35360  Biso   1.000  N
  N16      1.0000 0.77050  0.66428  0.35360  Biso   1.000  N
  C137     1.0000 0.34670  0.79490  0.75820  Biso   1.000  C
  C138     1.0000 0.84670  0.29490  0.75820  Biso   1.000  C
  C139     1.0000 0.65330  0.79490  0.74180  Biso   1.000  C
  C140     1.0000 0.15330  0.29490  0.74180  Biso   1.000  C
  C141     1.0000 0.65330  0.20510  0.24180  Biso   1.000  C
  C142     1.0000 0.15330  0.70510  0.24180  Biso   1.000  C
  C143     1.0000 0.34670  0.20510  0.25820  Biso   1.000  C
  C144     1.0000 0.84670  0.70510  0.25820  Biso   1.000  C
  H65      1.0000 0.34700  0.75320  0.78340  Biso   1.000  H
  H66      1.0000 0.84700  0.25320  0.78340  Biso   1.000  H
  H67      1.0000 0.65300  0.75320  0.71660  Biso   1.000  H
  H68      1.0000 0.15300  0.25320  0.71660  Biso   1.000  H
  H69      1.0000 0.65300  0.24680  0.21660  Biso   1.000  H
  H70      1.0000 0.15300  0.74680  0.21660  Biso   1.000  H
  H71      1.0000 0.34700  0.24680  0.28340  Biso   1.000  H
  H72      1.0000 0.84700  0.74680  0.28340  Biso   1.000  H
  C145     1.0000 0.24170  0.88670  0.88590  Biso   1.000  C
  C146     1.0000 0.74170  0.38670  0.88590  Biso   1.000  C
  C147     1.0000 0.75830  0.88670  0.61410  Biso   1.000  C
  C148     1.0000 0.25830  0.38670  0.61410  Biso   1.000  C
  C149     1.0000 0.75830  0.11330  0.11410  Biso   1.000  C
  C150     1.0000 0.25830  0.61330  0.11410  Biso   1.000  C
  C151     1.0000 0.24170  0.11330  0.38590  Biso   1.000  C
  C152     1.0000 0.74170  0.61330  0.38590  Biso   1.000  C
  H73      1.0000 0.22120  0.88000  0.93480  Biso   1.000  H
  H74      1.0000 0.72120  0.38000  0.93480  Biso   1.000  H
  H75      1.0000 0.77880  0.88000  0.56520  Biso   1.000  H
  H76      1.0000 0.27880  0.38000  0.56520  Biso   1.000  H
  H77      1.0000 0.77880  0.12000  0.06520  Biso   1.000  H
  H78      1.0000 0.27880  0.62000  0.06520  Biso   1.000  H
  H79      1.0000 0.22120  0.12000  0.43480  Biso   1.000  H
  H80      1.0000 0.72120  0.62000  0.43480  Biso   1.000  H
  C153     1.0000 0.38550  0.80450  0.69300  Biso   1.000  C
  C154     1.0000 0.88550  0.30450  0.69300  Biso   1.000  C
  C155     1.0000 0.61450  0.80450  0.80700  Biso   1.000  C
  C156     1.0000 0.11450  0.30450  0.80700  Biso   1.000  C
  C157     1.0000 0.61450  0.19550  0.30700  Biso   1.000  C
  C158     1.0000 0.11450  0.69550  0.30700  Biso   1.000  C
  C159     1.0000 0.38550  0.19550  0.19300  Biso   1.000  C
  C160     1.0000 0.88550  0.69550  0.19300  Biso   1.000  C
  H81      1.0000 0.41190  0.76910  0.67420  Biso   1.000  H
  H82      1.0000 0.91190  0.26910  0.67420  Biso   1.000  H
  H83      1.0000 0.58810  0.76910  0.82580  Biso   1.000  H
  H84      1.0000 0.08810  0.26910  0.82580  Biso   1.000  H
  H85      1.0000 0.58810  0.23090  0.32580  Biso   1.000  H
  H86      1.0000 0.08810  0.73090  0.32580  Biso   1.000  H
  H87      1.0000 0.41190  0.23090  0.17420  Biso   1.000  H
  H88      1.0000 0.91190  0.73090  0.17420  Biso   1.000  H
  C161     1.0000 0.43150  0.87630  0.58160  Biso   1.000  C
  C162     1.0000 0.93150  0.37630  0.58160  Biso   1.000  C
  C163     1.0000 0.56850  0.87630  0.91840  Biso   1.000  C
  C164     1.0000 0.06850  0.37630  0.91840  Biso   1.000  C
  C165     1.0000 0.56850  0.12370  0.41840  Biso   1.000  C
  C166     1.0000 0.06850  0.62370  0.41840  Biso   1.000  C
  C167     1.0000 0.43150  0.12370  0.08160  Biso   1.000  C
  C168     1.0000 0.93150  0.62370  0.08160  Biso   1.000  C
  H89      1.0000 0.42970  0.92190  0.56410  Biso   1.000  H
  H90      1.0000 0.92970  0.42190  0.56410  Biso   1.000  H
  H91      1.0000 0.57030  0.92190  0.93590  Biso   1.000  H
  H92      1.0000 0.07030  0.42190  0.93590  Biso   1.000  H
  H93      1.0000 0.57030  0.07810  0.43590  Biso   1.000  H
  H94      1.0000 0.07030  0.57810  0.43590  Biso   1.000  H
  H95      1.0000 0.42970  0.07810  0.06410  Biso   1.000  H
  H96      1.0000 0.92970  0.57810  0.06410  Biso   1.000  H
  H97      1.0000 0.40370  0.84990  0.52940  Biso   1.000  H
  H98      1.0000 0.90370  0.34990  0.52940  Biso   1.000  H
  H99      1.0000 0.59630  0.84990  0.97060  Biso   1.000  H
  H100     1.0000 0.09630  0.34990  0.97060  Biso   1.000  H
  H101     1.0000 0.59630  0.15010  0.47060  Biso   1.000  H
  H102     1.0000 0.09630  0.65010  0.47060  Biso   1.000  H
  H103     1.0000 0.40370  0.15010  0.02940  Biso   1.000  H
  H104     1.0000 0.90370  0.65010  0.02940  Biso   1.000  H
  H105     1.0000 0.48940  0.86250  0.60610  Biso   1.000  H
  H106     1.0000 0.98940  0.36250  0.60610  Biso   1.000  H
  H107     1.0000 0.51060  0.86250  0.89390  Biso   1.000  H
  H108     1.0000 0.01060  0.36250  0.89390  Biso   1.000  H
  H109     1.0000 0.51060  0.13750  0.39390  Biso   1.000  H
  H110     1.0000 0.01060  0.63750  0.39390  Biso   1.000  H
  H111     1.0000 0.48940  0.13750  0.10610  Biso   1.000  H
  H112     1.0000 0.98940  0.63750  0.10610  Biso   1.000  H
  C169     1.0000 0.04300  0.90000  0.60300  Biso   1.000  C
  C170     1.0000 0.54300  0.40000  0.60300  Biso   1.000  C
  C171     1.0000 0.95700  0.90000  0.89700  Biso   1.000  C
  C172     1.0000 0.45700  0.40000  0.89700  Biso   1.000  C
  C173     1.0000 0.95700  0.10000  0.39700  Biso   1.000  C
  C174     1.0000 0.45700  0.60000  0.39700  Biso   1.000  C
  C175     1.0000 0.04300  0.10000  0.10300  Biso   1.000  C
  C176     1.0000 0.54300  0.60000  0.10300  Biso   1.000  C
  H113     1.0000 0.00210  0.92070  0.55110  Biso   1.000  H
  H114     1.0000 0.50210  0.42070  0.55110  Biso   1.000  H
  H115     1.0000 0.99790  0.92070  0.94890  Biso   1.000  H
  H116     1.0000 0.49790  0.42070  0.94890  Biso   1.000  H
  H117     1.0000 0.99790  0.07930  0.44890  Biso   1.000  H
  H118     1.0000 0.49790  0.57930  0.44890  Biso   1.000  H
  H119     1.0000 0.00210  0.07930  0.05110  Biso   1.000  H
  H120     1.0000 0.50210  0.57930  0.05110  Biso   1.000  H
  H121     1.0000 0.06520  0.86100  0.58160  Biso   1.000  H
  H122     1.0000 0.56520  0.36100  0.58160  Biso   1.000  H
  H123     1.0000 0.93480  0.86100  0.91840  Biso   1.000  H
  H124     1.0000 0.43480  0.36100  0.91840  Biso   1.000  H
  H125     1.0000 0.93480  0.13900  0.41840  Biso   1.000  H
  H126     1.0000 0.43480  0.63900  0.41840  Biso   1.000  H
  H127     1.0000 0.06520  0.13900  0.08160  Biso   1.000  H
  H128     1.0000 0.56520  0.63900  0.08160  Biso   1.000  H
  C177     1.0000 0.00260  0.88220  0.67230  Biso   1.000  C
  C178     1.0000 0.50260  0.38220  0.67230  Biso   1.000  C
  C179     1.0000 0.99740  0.88220  0.82770  Biso   1.000  C
  C180     1.0000 0.49740  0.38220  0.82770  Biso   1.000  C
  C181     1.0000 0.99740  0.11780  0.32770  Biso   1.000  C
  C182     1.0000 0.49740  0.61780  0.32770  Biso   1.000  C
  C183     1.0000 0.00260  0.11780  0.17230  Biso   1.000  C
  C184     1.0000 0.50260  0.61780  0.17230  Biso   1.000  C
  H129     1.0000 0.94980  0.86010  0.64370  Biso   1.000  H
  H130     1.0000 0.44980  0.36010  0.64370  Biso   1.000  H
  H131     1.0000 0.05020  0.86010  0.85630  Biso   1.000  H
  H132     1.0000 0.55020  0.36010  0.85630  Biso   1.000  H
  H133     1.0000 0.05020  0.13990  0.35630  Biso   1.000  H
  H134     1.0000 0.55020  0.63990  0.35630  Biso   1.000  H
  H135     1.0000 0.94980  0.13990  0.14370  Biso   1.000  H
  H136     1.0000 0.44980  0.63990  0.14370  Biso   1.000  H
  H137     1.0000 0.99230  0.92140  0.70210  Biso   1.000  H
  H138     1.0000 0.49230  0.42140  0.70210  Biso   1.000  H
  H139     1.0000 0.00770  0.92140  0.79790  Biso   1.000  H
  H140     1.0000 0.50770  0.42140  0.79790  Biso   1.000  H
  H141     1.0000 0.00770  0.07860  0.29790  Biso   1.000  H
  H142     1.0000 0.50770  0.57860  0.29790  Biso   1.000  H
  H143     1.0000 0.99230  0.07860  0.20210  Biso   1.000  H
  H144     1.0000 0.49230  0.57860  0.20210  Biso   1.000  H
  H145     1.0000 0.03940  0.85320  0.71610  Biso   1.000  H
  H146     1.0000 0.53940  0.35320  0.71610  Biso   1.000  H
  H147     1.0000 0.96060  0.85320  0.78390  Biso   1.000  H
  H148     1.0000 0.46060  0.35320  0.78390  Biso   1.000  H
  H149     1.0000 0.96060  0.14680  0.28390  Biso   1.000  H
  H150     1.0000 0.46060  0.64680  0.28390  Biso   1.000  H
  H151     1.0000 0.03940  0.14680  0.21610  Biso   1.000  H
  H152     1.0000 0.53940  0.64680  0.21610  Biso   1.000  H
  C185     1.0000 0.14000  0.10720  0.92200  Biso   1.000  C
  C186     1.0000 0.64000  0.60720  0.92200  Biso   1.000  C
  C187     1.0000 0.86000  0.10720  0.57800  Biso   1.000  C
  C188     1.0000 0.36000  0.60720  0.57800  Biso   1.000  C
  C189     1.0000 0.86000  0.89280  0.07800  Biso   1.000  C
  C190     1.0000 0.36000  0.39280  0.07800  Biso   1.000  C
  C191     1.0000 0.14000  0.89280  0.42200  Biso   1.000  C
  C192     1.0000 0.64000  0.39280  0.42200  Biso   1.000  C
  H153     1.0000 0.12880  0.07930  0.96780  Biso   1.000  H
  H154     1.0000 0.62880  0.57930  0.96780  Biso   1.000  H
  H155     1.0000 0.87120  0.07930  0.53220  Biso   1.000  H
  H156     1.0000 0.37120  0.57930  0.53220  Biso   1.000  H
  H157     1.0000 0.87120  0.92070  0.03220  Biso   1.000  H
  H158     1.0000 0.37120  0.42070  0.03220  Biso   1.000  H
  H159     1.0000 0.12880  0.92070  0.46780  Biso   1.000  H
  H160     1.0000 0.62880  0.42070  0.46780  Biso   1.000  H
  H161     1.0000 0.18860  0.13420  0.95410  Biso   1.000  H
  H162     1.0000 0.68860  0.63420  0.95410  Biso   1.000  H
  H163     1.0000 0.81140  0.13420  0.54590  Biso   1.000  H
  H164     1.0000 0.31140  0.63420  0.54590  Biso   1.000  H
  H165     1.0000 0.81140  0.86580  0.04590  Biso   1.000  H
  H166     1.0000 0.31140  0.36580  0.04590  Biso   1.000  H
  H167     1.0000 0.18860  0.86580  0.45410  Biso   1.000  H
  H168     1.0000 0.68860  0.36580  0.45410  Biso   1.000  H
  C193     1.0000 0.38610  0.86780  0.65360  Biso   1.000  C
  C194     1.0000 0.88610  0.36780  0.65360  Biso   1.000  C
  C195     1.0000 0.61390  0.86780  0.84640  Biso   1.000  C
  C196     1.0000 0.11390  0.36780  0.84640  Biso   1.000  C
  C197     1.0000 0.61390  0.13220  0.34640  Biso   1.000  C
  C198     1.0000 0.11390  0.63220  0.34640  Biso   1.000  C
  C199     1.0000 0.38610  0.13220  0.15360  Biso   1.000  C
  C200     1.0000 0.88610  0.63220  0.15360  Biso   1.000  C
  C201     1.0000 0.07800  0.14760  0.89900  Biso   1.000  C
  C202     1.0000 0.57800  0.64760  0.89900  Biso   1.000  C
  C203     1.0000 0.92200  0.14760  0.60100  Biso   1.000  C
  C204     1.0000 0.42200  0.64760  0.60100  Biso   1.000  C
  C205     1.0000 0.92200  0.85240  0.10100  Biso   1.000  C
  C206     1.0000 0.42200  0.35240  0.10100  Biso   1.000  C
  C207     1.0000 0.07800  0.85240  0.39900  Biso   1.000  C
  C208     1.0000 0.57800  0.35240  0.39900  Biso   1.000  C
  H169     1.0000 0.08470  0.18000  0.94640  Biso   1.000  H
  H170     1.0000 0.58470  0.68000  0.94640  Biso   1.000  H
  H171     1.0000 0.91530  0.18000  0.55360  Biso   1.000  H
  H172     1.0000 0.41530  0.68000  0.55360  Biso   1.000  H
  H173     1.0000 0.91530  0.82000  0.05360  Biso   1.000  H
  H174     1.0000 0.41530  0.32000  0.05360  Biso   1.000  H
  H175     1.0000 0.08470  0.82000  0.44640  Biso   1.000  H
  H176     1.0000 0.58470  0.32000  0.44640  Biso   1.000  H
  H177     1.0000 0.02590  0.12400  0.89120  Biso   1.000  H
  H178     1.0000 0.52590  0.62400  0.89120  Biso   1.000  H
  H179     1.0000 0.97410  0.12400  0.60880  Biso   1.000  H
  H180     1.0000 0.47410  0.62400  0.60880  Biso   1.000  H
  H181     1.0000 0.97410  0.87600  0.10880  Biso   1.000  H
  H182     1.0000 0.47410  0.37600  0.10880  Biso   1.000  H
  H183     1.0000 0.02590  0.87600  0.39120  Biso   1.000  H
  H184     1.0000 0.52590  0.37600  0.39120  Biso   1.000  H
  H185     1.0000 0.07640  0.16920  0.84380  Biso   1.000  H
  H186     1.0000 0.57640  0.66920  0.84380  Biso   1.000  H
  H187     1.0000 0.92360  0.16920  0.65620  Biso   1.000  H
  H188     1.0000 0.42360  0.66920  0.65620  Biso   1.000  H
  H189     1.0000 0.92360  0.83080  0.15620  Biso   1.000  H
  H190     1.0000 0.42360  0.33080  0.15620  Biso   1.000  H
  H191     1.0000 0.07640  0.83080  0.34380  Biso   1.000  H
  H192     1.0000 0.57640  0.33080  0.34380  Biso   1.000  H
