data_image0
_cell_length_a       16.6274
_cell_length_b       10.6924
_cell_length_c       13.1711
_cell_angle_alpha    90
_cell_angle_beta     110.243
_cell_angle_gamma    90

_symmetry_space_group_name_H-M    "P 1"
_symmetry_int_tables_number       1

loop_
  _symmetry_equiv_pos_as_xyz
  'x, y, z'

loop_
  _atom_site_label
  _atom_site_occupancy
  _atom_site_fract_x
  _atom_site_fract_y
  _atom_site_fract_z
  _atom_site_thermal_displace_type
  _atom_site_B_iso_or_equiv
  _atom_site_type_symbol
  Cu1      1.0000 0.32825  0.25582  0.16869  Biso   1.000  Cu
  Cu2      1.0000 0.67175  0.75582  0.33131  Biso   1.000  Cu
  Cu3      1.0000 0.67175  0.74418  0.83131  Biso   1.000  Cu
  Cu4      1.0000 0.32825  0.24418  0.66869  Biso   1.000  Cu
  Cu5      1.0000 0.43269  0.44061  0.50551  Biso   1.000  Cu
  Cu6      1.0000 0.56731  0.94061  0.99449  Biso   1.000  Cu
  Cu7      1.0000 0.56731  0.55939  0.49449  Biso   1.000  Cu
  Cu8      1.0000 0.43269  0.05939  0.00551  Biso   1.000  Cu
  I1       1.0000 0.33486  0.27547  0.37036  Biso   1.000  I
  I2       1.0000 0.66514  0.77547  0.12964  Biso   1.000  I
  I3       1.0000 0.66514  0.72453  0.62964  Biso   1.000  I
  I4       1.0000 0.33486  0.22453  0.87036  Biso   1.000  I
  I5       1.0000 0.41431  0.66834  0.42399  Biso   1.000  I
  I6       1.0000 0.58569  0.16834  0.07601  Biso   1.000  I
  I7       1.0000 0.58569  0.33166  0.57601  Biso   1.000  I
  I8       1.0000 0.41431  0.83166  0.92399  Biso   1.000  I
  S1       1.0000 0.20592  0.34170  0.04790  Biso   1.000  S
  S2       1.0000 0.79408  0.84170  0.45210  Biso   1.000  S
  S3       1.0000 0.79408  0.65830  0.95210  Biso   1.000  S
  S4       1.0000 0.20592  0.15830  0.54790  Biso   1.000  S
  S5       1.0000 0.62011  0.56653  0.35131  Biso   1.000  S
  S6       1.0000 0.37989  0.06653  0.14869  Biso   1.000  S
  S7       1.0000 0.37989  0.43347  0.64869  Biso   1.000  S
  S8       1.0000 0.62011  0.93347  0.85131  Biso   1.000  S
  N1       1.0000 0.40250  0.40180  0.13800  Biso   1.000  N
  N2       1.0000 0.59750  0.90180  0.36200  Biso   1.000  N
  N3       1.0000 0.59750  0.59820  0.86200  Biso   1.000  N
  N4       1.0000 0.40250  0.09820  0.63800  Biso   1.000  N
  H1       1.0000 0.42000  0.38500  0.08600  Biso   1.000  H
  H2       1.0000 0.58000  0.88500  0.41400  Biso   1.000  H
  H3       1.0000 0.58000  0.61500  0.91400  Biso   1.000  H
  H4       1.0000 0.42000  0.11500  0.58600  Biso   1.000  H
  C1       1.0000 0.34410  0.50980  0.10850  Biso   1.000  C
  C2       1.0000 0.65590  0.00980  0.39150  Biso   1.000  C
  C3       1.0000 0.65590  0.49020  0.89150  Biso   1.000  C
  C4       1.0000 0.34410  0.99020  0.60850  Biso   1.000  C
  H5       1.0000 0.37230  0.57930  0.08410  Biso   1.000  H
  H6       1.0000 0.62770  0.07930  0.41590  Biso   1.000  H
  H7       1.0000 0.62770  0.42070  0.91590  Biso   1.000  H
  H8       1.0000 0.37230  0.92070  0.58410  Biso   1.000  H
  H9       1.0000 0.33160  0.53850  0.17290  Biso   1.000  H
  H10      1.0000 0.66840  0.03850  0.32710  Biso   1.000  H
  H11      1.0000 0.66840  0.46150  0.82710  Biso   1.000  H
  H12      1.0000 0.33160  0.96150  0.67290  Biso   1.000  H
  C5       1.0000 0.26070  0.47670  0.01900  Biso   1.000  C
  C6       1.0000 0.73930  0.97670  0.48100  Biso   1.000  C
  C7       1.0000 0.73930  0.52330  0.98100  Biso   1.000  C
  C8       1.0000 0.26070  0.02330  0.51900  Biso   1.000  C
  H13      1.0000 0.27300  0.46040  0.95180  Biso   1.000  H
  H14      1.0000 0.72700  0.96040  0.54820  Biso   1.000  H
  H15      1.0000 0.72700  0.53960  0.04820  Biso   1.000  H
  H16      1.0000 0.27300  0.03960  0.45180  Biso   1.000  H
  H17      1.0000 0.22180  0.54970  0.00560  Biso   1.000  H
  H18      1.0000 0.77820  0.04970  0.49440  Biso   1.000  H
  H19      1.0000 0.77820  0.45030  0.99440  Biso   1.000  H
  H20      1.0000 0.22180  0.95030  0.50560  Biso   1.000  H
  C9       1.0000 0.48100  0.42190  0.23280  Biso   1.000  C
  C10      1.0000 0.51900  0.92190  0.26720  Biso   1.000  C
  C11      1.0000 0.51900  0.57810  0.76720  Biso   1.000  C
  C12      1.0000 0.48100  0.07810  0.73280  Biso   1.000  C
  H21      1.0000 0.51760  0.34660  0.24320  Biso   1.000  H
  H22      1.0000 0.48240  0.84660  0.25680  Biso   1.000  H
  H23      1.0000 0.48240  0.65340  0.75680  Biso   1.000  H
  H24      1.0000 0.51760  0.15340  0.74320  Biso   1.000  H
  H25      1.0000 0.46460  0.43120  0.29790  Biso   1.000  H
  H26      1.0000 0.53540  0.93120  0.20210  Biso   1.000  H
  H27      1.0000 0.53540  0.56880  0.70210  Biso   1.000  H
  H28      1.0000 0.46460  0.06880  0.79790  Biso   1.000  H
  C13      1.0000 0.53320  0.53520  0.22430  Biso   1.000  C
  C14      1.0000 0.46680  0.03520  0.27570  Biso   1.000  C
  C15      1.0000 0.46680  0.46480  0.77570  Biso   1.000  C
  C16      1.0000 0.53320  0.96480  0.72430  Biso   1.000  C
  H29      1.0000 0.49520  0.60920  0.20400  Biso   1.000  H
  H30      1.0000 0.50480  0.10920  0.29600  Biso   1.000  H
  H31      1.0000 0.50480  0.39080  0.79600  Biso   1.000  H
  H32      1.0000 0.49520  0.89080  0.70400  Biso   1.000  H
  H33      1.0000 0.55750  0.52090  0.16640  Biso   1.000  H
  H34      1.0000 0.44250  0.02090  0.33360  Biso   1.000  H
  H35      1.0000 0.44250  0.47910  0.83360  Biso   1.000  H
  H36      1.0000 0.55750  0.97910  0.66640  Biso   1.000  H
  C17      1.0000 0.69800  0.44210  0.36310  Biso   1.000  C
  C18      1.0000 0.30200  0.94210  0.13690  Biso   1.000  C
  C19      1.0000 0.30200  0.55790  0.63690  Biso   1.000  C
  C20      1.0000 0.69800  0.05790  0.86310  Biso   1.000  C
  H37      1.0000 0.67030  0.35960  0.36530  Biso   1.000  H
  H38      1.0000 0.32970  0.85960  0.13470  Biso   1.000  H
  H39      1.0000 0.32970  0.64040  0.63470  Biso   1.000  H
  H40      1.0000 0.67030  0.14040  0.86530  Biso   1.000  H
  C21      1.0000 0.77040  0.46310  0.47090  Biso   1.000  C
  C22      1.0000 0.22960  0.96310  0.02910  Biso   1.000  C
  C23      1.0000 0.22960  0.53690  0.52910  Biso   1.000  C
  C24      1.0000 0.77040  0.03690  0.97090  Biso   1.000  C
  H41      1.0000 0.74790  0.45620  0.53110  Biso   1.000  H
  H42      1.0000 0.25210  0.95620  0.96890  Biso   1.000  H
  H43      1.0000 0.25210  0.54380  0.46890  Biso   1.000  H
  H44      1.0000 0.74790  0.04380  0.03110  Biso   1.000  H
  H45      1.0000 0.79440  0.54820  0.47260  Biso   1.000  H
  H46      1.0000 0.20560  0.04820  0.02740  Biso   1.000  H
  H47      1.0000 0.20560  0.45180  0.52740  Biso   1.000  H
  H48      1.0000 0.79440  0.95180  0.97260  Biso   1.000  H
  C25      1.0000 0.84110  0.36550  0.48520  Biso   1.000  C
  C26      1.0000 0.15890  0.86550  0.01480  Biso   1.000  C
  C27      1.0000 0.15890  0.63450  0.51480  Biso   1.000  C
  C28      1.0000 0.84110  0.13450  0.98520  Biso   1.000  C
  H49      1.0000 0.88920  0.38300  0.55310  Biso   1.000  H
  H50      1.0000 0.11080  0.88300  0.94690  Biso   1.000  H
  H51      1.0000 0.11080  0.61700  0.44690  Biso   1.000  H
  H52      1.0000 0.88920  0.11700  0.05310  Biso   1.000  H
  H53      1.0000 0.81830  0.28150  0.49180  Biso   1.000  H
  H54      1.0000 0.18170  0.78150  0.00820  Biso   1.000  H
  H55      1.0000 0.18170  0.71850  0.50820  Biso   1.000  H
  H56      1.0000 0.81830  0.21850  0.99180  Biso   1.000  H
  C29      1.0000 0.87420  0.36540  0.39130  Biso   1.000  C
  C30      1.0000 0.12580  0.86540  0.10870  Biso   1.000  C
  C31      1.0000 0.12580  0.63460  0.60870  Biso   1.000  C
  C32      1.0000 0.87420  0.13460  0.89130  Biso   1.000  C
  H57      1.0000 0.90200  0.44660  0.38880  Biso   1.000  H
  H58      1.0000 0.09800  0.94660  0.11120  Biso   1.000  H
  H59      1.0000 0.09800  0.55340  0.61120  Biso   1.000  H
  H60      1.0000 0.90200  0.05340  0.88880  Biso   1.000  H
  H61      1.0000 0.91780  0.29890  0.40260  Biso   1.000  H
  H62      1.0000 0.08220  0.79890  0.09740  Biso   1.000  H
  H63      1.0000 0.08220  0.70110  0.59740  Biso   1.000  H
  H64      1.0000 0.91780  0.20110  0.90260  Biso   1.000  H
  C33      1.0000 0.80290  0.34390  0.28550  Biso   1.000  C
  C34      1.0000 0.19710  0.84390  0.21450  Biso   1.000  C
  C35      1.0000 0.19710  0.65610  0.71450  Biso   1.000  C
  C36      1.0000 0.80290  0.15610  0.78550  Biso   1.000  C
  H65      1.0000 0.77880  0.25900  0.28490  Biso   1.000  H
  H66      1.0000 0.22120  0.75900  0.21510  Biso   1.000  H
  H67      1.0000 0.22120  0.74100  0.71510  Biso   1.000  H
  H68      1.0000 0.77880  0.24100  0.78490  Biso   1.000  H
  H69      1.0000 0.82570  0.34900  0.22550  Biso   1.000  H
  H70      1.0000 0.17430  0.84900  0.27450  Biso   1.000  H
  H71      1.0000 0.17430  0.65100  0.77450  Biso   1.000  H
  H72      1.0000 0.82570  0.15100  0.72550  Biso   1.000  H
  C37      1.0000 0.73100  0.44270  0.26830  Biso   1.000  C
  C38      1.0000 0.26900  0.94270  0.23170  Biso   1.000  C
  C39      1.0000 0.26900  0.55730  0.73170  Biso   1.000  C
  C40      1.0000 0.73100  0.05730  0.76830  Biso   1.000  C
  H73      1.0000 0.75360  0.52670  0.26140  Biso   1.000  H
  H74      1.0000 0.24640  0.02670  0.23860  Biso   1.000  H
  H75      1.0000 0.24640  0.47330  0.73860  Biso   1.000  H
  H76      1.0000 0.75360  0.97330  0.76140  Biso   1.000  H
  H77      1.0000 0.68310  0.42420  0.20030  Biso   1.000  H
  H78      1.0000 0.31690  0.92420  0.29970  Biso   1.000  H
  H79      1.0000 0.31690  0.57580  0.79970  Biso   1.000  H
  H80      1.0000 0.68310  0.07580  0.70030  Biso   1.000  H
  C41      1.0000 0.15660  0.40720  0.14630  Biso   1.000  C
  C42      1.0000 0.84340  0.90720  0.35370  Biso   1.000  C
  C43      1.0000 0.84340  0.59280  0.85370  Biso   1.000  C
  C44      1.0000 0.15660  0.09280  0.64630  Biso   1.000  C
  H81      1.0000 0.20300  0.43760  0.21270  Biso   1.000  H
  H82      1.0000 0.79700  0.93760  0.28730  Biso   1.000  H
  H83      1.0000 0.79700  0.56240  0.78730  Biso   1.000  H
  H84      1.0000 0.20300  0.06240  0.71270  Biso   1.000  H
  C45      1.0000 0.09410  0.51590  0.09560  Biso   1.000  C
  C46      1.0000 0.90590  0.01590  0.40440  Biso   1.000  C
  C47      1.0000 0.90590  0.48410  0.90440  Biso   1.000  C
  C48      1.0000 0.09410  0.98410  0.59560  Biso   1.000  C
  H85      1.0000 0.12630  0.58650  0.07940  Biso   1.000  H
  H86      1.0000 0.87370  0.08650  0.42060  Biso   1.000  H
  H87      1.0000 0.87370  0.41350  0.92060  Biso   1.000  H
  H88      1.0000 0.12630  0.91350  0.57940  Biso   1.000  H
  H89      1.0000 0.05080  0.48780  0.02680  Biso   1.000  H
  H90      1.0000 0.94920  0.98780  0.47320  Biso   1.000  H
  H91      1.0000 0.94920  0.51220  0.97320  Biso   1.000  H
  H92      1.0000 0.05080  0.01220  0.52680  Biso   1.000  H
  C49      1.0000 0.04870  0.56030  0.17370  Biso   1.000  C
  C50      1.0000 0.95130  0.06030  0.32630  Biso   1.000  C
  C51      1.0000 0.95130  0.43970  0.82630  Biso   1.000  C
  C52      1.0000 0.04870  0.93970  0.67370  Biso   1.000  C
  H93      1.0000 0.00730  0.62740  0.13870  Biso   1.000  H
  H94      1.0000 0.99270  0.12740  0.36130  Biso   1.000  H
  H95      1.0000 0.99270  0.37260  0.86130  Biso   1.000  H
  H96      1.0000 0.00730  0.87260  0.63870  Biso   1.000  H
  H97      1.0000 0.09150  0.59510  0.24010  Biso   1.000  H
  H98      1.0000 0.90850  0.09510  0.25990  Biso   1.000  H
  H99      1.0000 0.90850  0.40490  0.75990  Biso   1.000  H
  H100     1.0000 0.09150  0.90490  0.74010  Biso   1.000  H
  C53      1.0000 0.00080  0.45040  0.20410  Biso   1.000  C
  C54      1.0000 0.99920  0.95040  0.29590  Biso   1.000  C
  C55      1.0000 0.99920  0.54960  0.79590  Biso   1.000  C
  C56      1.0000 0.00080  0.04960  0.70410  Biso   1.000  C
  H101     1.0000 0.95490  0.41970  0.13850  Biso   1.000  H
  H102     1.0000 0.04510  0.91970  0.36150  Biso   1.000  H
  H103     1.0000 0.04510  0.58030  0.86150  Biso   1.000  H
  H104     1.0000 0.95490  0.08030  0.63850  Biso   1.000  H
  H105     1.0000 0.97370  0.47980  0.25600  Biso   1.000  H
  H106     1.0000 0.02630  0.97980  0.24400  Biso   1.000  H
  H107     1.0000 0.02630  0.52020  0.74400  Biso   1.000  H
  H108     1.0000 0.97370  0.02020  0.75600  Biso   1.000  H
  C57      1.0000 0.06380  0.34240  0.25560  Biso   1.000  C
  C58      1.0000 0.93620  0.84240  0.24440  Biso   1.000  C
  C59      1.0000 0.93620  0.65760  0.74440  Biso   1.000  C
  C60      1.0000 0.06380  0.15760  0.75560  Biso   1.000  C
  H109     1.0000 0.03220  0.27190  0.27310  Biso   1.000  H
  H110     1.0000 0.96780  0.77190  0.22690  Biso   1.000  H
  H111     1.0000 0.96780  0.72810  0.72690  Biso   1.000  H
  H112     1.0000 0.03220  0.22810  0.77310  Biso   1.000  H
  H113     1.0000 0.10760  0.37150  0.32370  Biso   1.000  H
  H114     1.0000 0.89240  0.87150  0.17630  Biso   1.000  H
  H115     1.0000 0.89240  0.62850  0.67630  Biso   1.000  H
  H116     1.0000 0.10760  0.12850  0.82370  Biso   1.000  H
  C61      1.0000 0.10840  0.29730  0.17640  Biso   1.000  C
  C62      1.0000 0.89160  0.79730  0.32360  Biso   1.000  C
  C63      1.0000 0.89160  0.70270  0.82360  Biso   1.000  C
  C64      1.0000 0.10840  0.20270  0.67640  Biso   1.000  C
  H117     1.0000 0.14940  0.22950  0.21050  Biso   1.000  H
  H118     1.0000 0.85060  0.72950  0.28950  Biso   1.000  H
  H119     1.0000 0.85060  0.77050  0.78950  Biso   1.000  H
  H120     1.0000 0.14940  0.27050  0.71050  Biso   1.000  H
  H121     1.0000 0.06490  0.26340  0.11000  Biso   1.000  H
  H122     1.0000 0.93510  0.76340  0.39000  Biso   1.000  H
  H123     1.0000 0.93510  0.73660  0.89000  Biso   1.000  H
  H124     1.0000 0.06490  0.23660  0.61000  Biso   1.000  H
  C65      1.0000 0.12750  0.39980  0.09490  Biso   1.000  C
  C66      1.0000 0.87250  0.89980  0.40510  Biso   1.000  C
  C67      1.0000 0.87250  0.60020  0.90510  Biso   1.000  C
  C68      1.0000 0.12750  0.10020  0.59490  Biso   1.000  C
  H125     1.0000 0.07930  0.43470  0.03260  Biso   1.000  H
  H126     1.0000 0.92070  0.93470  0.46740  Biso   1.000  H
  H127     1.0000 0.92070  0.56530  0.96740  Biso   1.000  H
  H128     1.0000 0.07930  0.06530  0.53260  Biso   1.000  H
  C69      1.0000 0.16210  0.50270  0.18190  Biso   1.000  C
  C70      1.0000 0.83790  0.00270  0.31810  Biso   1.000  C
  C71      1.0000 0.83790  0.49730  0.81810  Biso   1.000  C
  C72      1.0000 0.16210  0.99730  0.68190  Biso   1.000  C
  H129     1.0000 0.21230  0.47030  0.24160  Biso   1.000  H
  H130     1.0000 0.78770  0.97030  0.25840  Biso   1.000  H
  H131     1.0000 0.78770  0.52970  0.75840  Biso   1.000  H
  H132     1.0000 0.21230  0.02970  0.74160  Biso   1.000  H
  H133     1.0000 0.18100  0.57570  0.14970  Biso   1.000  H
  H134     1.0000 0.81900  0.07570  0.35030  Biso   1.000  H
  H135     1.0000 0.81900  0.42430  0.85030  Biso   1.000  H
  H136     1.0000 0.18100  0.92430  0.64970  Biso   1.000  H
  C73      1.0000 0.09180  0.54380  0.22720  Biso   1.000  C
  C74      1.0000 0.90820  0.04380  0.27280  Biso   1.000  C
  C75      1.0000 0.90820  0.45620  0.77280  Biso   1.000  C
  C76      1.0000 0.09180  0.95620  0.72720  Biso   1.000  C
  H137     1.0000 0.04350  0.58210  0.16860  Biso   1.000  H
  H138     1.0000 0.95650  0.08210  0.33140  Biso   1.000  H
  H139     1.0000 0.95650  0.41790  0.83140  Biso   1.000  H
  H140     1.0000 0.04350  0.91790  0.66860  Biso   1.000  H
  H141     1.0000 0.11550  0.60750  0.28430  Biso   1.000  H
  H142     1.0000 0.88450  0.10750  0.21570  Biso   1.000  H
  H143     1.0000 0.88450  0.39250  0.71570  Biso   1.000  H
  H144     1.0000 0.11550  0.89250  0.78430  Biso   1.000  H
  C77      1.0000 0.05900  0.43020  0.27460  Biso   1.000  C
  C78      1.0000 0.94100  0.93020  0.22540  Biso   1.000  C
  C79      1.0000 0.94100  0.56980  0.72540  Biso   1.000  C
  C80      1.0000 0.05900  0.06980  0.77460  Biso   1.000  C
  H145     1.0000 0.10640  0.39590  0.33680  Biso   1.000  H
  H146     1.0000 0.89360  0.89590  0.16320  Biso   1.000  H
  H147     1.0000 0.89360  0.60410  0.66320  Biso   1.000  H
  H148     1.0000 0.10640  0.10410  0.83680  Biso   1.000  H
  H149     1.0000 0.01290  0.45750  0.30100  Biso   1.000  H
  H150     1.0000 0.98710  0.95750  0.19900  Biso   1.000  H
  H151     1.0000 0.98710  0.54250  0.69900  Biso   1.000  H
  H152     1.0000 0.01290  0.04250  0.80100  Biso   1.000  H
  C81      1.0000 0.02450  0.32740  0.18760  Biso   1.000  C
  C82      1.0000 0.97550  0.82740  0.31240  Biso   1.000  C
  C83      1.0000 0.97550  0.67260  0.81240  Biso   1.000  C
  C84      1.0000 0.02450  0.17260  0.68760  Biso   1.000  C
  H153     1.0000 0.97430  0.35980  0.12790  Biso   1.000  H
  H154     1.0000 0.02570  0.85980  0.37210  Biso   1.000  H
  H155     1.0000 0.02570  0.64020  0.87210  Biso   1.000  H
  H156     1.0000 0.97430  0.14020  0.62790  Biso   1.000  H
  H157     1.0000 0.00550  0.25440  0.21980  Biso   1.000  H
  H158     1.0000 0.99450  0.75440  0.28020  Biso   1.000  H
  H159     1.0000 0.99450  0.74560  0.78020  Biso   1.000  H
  H160     1.0000 0.00550  0.24560  0.71980  Biso   1.000  H
  C85      1.0000 0.09480  0.28620  0.14200  Biso   1.000  C
  C86      1.0000 0.90520  0.78620  0.35800  Biso   1.000  C
  C87      1.0000 0.90520  0.71380  0.85800  Biso   1.000  C
  C88      1.0000 0.09480  0.21380  0.64200  Biso   1.000  C
  H161     1.0000 0.07130  0.22240  0.08530  Biso   1.000  H
  H162     1.0000 0.92870  0.72240  0.41470  Biso   1.000  H
  H163     1.0000 0.92870  0.77760  0.91470  Biso   1.000  H
  H164     1.0000 0.07130  0.27760  0.58530  Biso   1.000  H
  H165     1.0000 0.14320  0.24810  0.20110  Biso   1.000  H
  H166     1.0000 0.85680  0.74810  0.29890  Biso   1.000  H
  H167     1.0000 0.85680  0.75190  0.79890  Biso   1.000  H
  H168     1.0000 0.14320  0.25190  0.70110  Biso   1.000  H
