data_image0
_cell_length_a       16.203
_cell_length_b       4.3188
_cell_length_c       14.161
_cell_angle_alpha    90
_cell_angle_beta     90
_cell_angle_gamma    90

_symmetry_space_group_name_H-M    "P 1"
_symmetry_int_tables_number       1

loop_
  _symmetry_equiv_pos_as_xyz
  'x, y, z'

loop_
  _atom_site_label
  _atom_site_occupancy
  _atom_site_fract_x
  _atom_site_fract_y
  _atom_site_fract_z
  _atom_site_thermal_displace_type
  _atom_site_B_iso_or_equiv
  _atom_site_type_symbol
  Cu1      1.0000 0.50000  0.56490  0.23823  Biso   1.000  Cu
  Cu2      1.0000 0.00000  0.43510  0.73823  Biso   1.000  Cu
  I1       1.0000 0.50000  0.05650  0.34135  Biso   1.000  I
  I2       1.0000 0.00000  0.94350  0.84135  Biso   1.000  I
  I3       1.0000 0.19858  0.77330  0.96426  Biso   1.000  I
  I4       1.0000 0.30142  0.22670  0.46426  Biso   1.000  I
  I5       1.0000 0.80142  0.77330  0.96426  Biso   1.000  I
  I6       1.0000 0.69858  0.22670  0.46426  Biso   1.000  I
  N1       1.0000 0.40530  0.54300  0.13450  Biso   1.000  N
  N2       1.0000 0.09470  0.45700  0.63450  Biso   1.000  N
  N3       1.0000 0.59470  0.54300  0.13450  Biso   1.000  N
  N4       1.0000 0.90530  0.45700  0.63450  Biso   1.000  N
  N5       1.0000 0.42680  0.41800  0.05150  Biso   1.000  N
  N6       1.0000 0.07320  0.58200  0.55150  Biso   1.000  N
  N7       1.0000 0.57320  0.41800  0.05150  Biso   1.000  N
  N8       1.0000 0.92680  0.58200  0.55150  Biso   1.000  N
  C1       1.0000 0.29190  0.85700  0.19820  Biso   1.000  C
  C2       1.0000 0.20810  0.14300  0.69820  Biso   1.000  C
  C3       1.0000 0.70810  0.85700  0.19820  Biso   1.000  C
  C4       1.0000 0.79190  0.14300  0.69820  Biso   1.000  C
  H1       1.0000 0.30550  0.76140  0.25730  Biso   1.000  H
  H2       1.0000 0.19450  0.23860  0.75730  Biso   1.000  H
  H3       1.0000 0.69450  0.76140  0.25730  Biso   1.000  H
  H4       1.0000 0.80550  0.23860  0.75730  Biso   1.000  H
  H5       1.0000 0.23310  0.85260  0.18940  Biso   1.000  H
  H6       1.0000 0.26690  0.14740  0.68940  Biso   1.000  H
  H7       1.0000 0.76690  0.85260  0.18940  Biso   1.000  H
  H8       1.0000 0.73310  0.14740  0.68940  Biso   1.000  H
  H9       1.0000 0.31070  0.06770  0.19820  Biso   1.000  H
  H10      1.0000 0.18930  0.93230  0.69820  Biso   1.000  H
  H11      1.0000 0.68930  0.06770  0.19820  Biso   1.000  H
  H12      1.0000 0.81070  0.93230  0.69820  Biso   1.000  H
  C5       1.0000 0.33330  0.68200  0.11850  Biso   1.000  C
  C6       1.0000 0.16670  0.31800  0.61850  Biso   1.000  C
  C7       1.0000 0.66670  0.68200  0.11850  Biso   1.000  C
  C8       1.0000 0.83330  0.31800  0.61850  Biso   1.000  C
  C9       1.0000 0.31000  0.63400  0.02630  Biso   1.000  C
  C10      1.0000 0.19000  0.36600  0.52630  Biso   1.000  C
  C11      1.0000 0.69000  0.63400  0.02630  Biso   1.000  C
  C12      1.0000 0.81000  0.36600  0.52630  Biso   1.000  C
  C13      1.0000 0.36700  0.46300  0.98450  Biso   1.000  C
  C14      1.0000 0.13300  0.53700  0.48450  Biso   1.000  C
  C15      1.0000 0.63300  0.46300  0.98450  Biso   1.000  C
  C16      1.0000 0.86700  0.53700  0.48450  Biso   1.000  C
  C17      1.0000 0.37540  0.34200  0.88650  Biso   1.000  C
  C18      1.0000 0.12460  0.65800  0.38650  Biso   1.000  C
  C19      1.0000 0.62460  0.34200  0.88650  Biso   1.000  C
  C20      1.0000 0.87540  0.65800  0.38650  Biso   1.000  C
  H13      1.0000 0.34630  0.47550  0.84370  Biso   1.000  H
  H14      1.0000 0.15370  0.52450  0.34370  Biso   1.000  H
  H15      1.0000 0.65370  0.47550  0.84370  Biso   1.000  H
  H16      1.0000 0.84630  0.52450  0.34370  Biso   1.000  H
  H17      1.0000 0.35250  0.13730  0.88330  Biso   1.000  H
  H18      1.0000 0.14750  0.86270  0.38330  Biso   1.000  H
  H19      1.0000 0.64750  0.13730  0.88330  Biso   1.000  H
  H20      1.0000 0.85250  0.86270  0.38330  Biso   1.000  H
  H21      1.0000 0.43270  0.33550  0.86940  Biso   1.000  H
  H22      1.0000 0.06730  0.66450  0.36940  Biso   1.000  H
  H23      1.0000 0.56730  0.33550  0.86940  Biso   1.000  H
  H24      1.0000 0.93270  0.66450  0.36940  Biso   1.000  H
  C21      1.0000 0.50000  0.23000  0.04780  Biso   1.000  C
  C22      1.0000 0.00000  0.77000  0.54780  Biso   1.000  C
  H25      1.0000 0.50000  0.08710  0.10050  Biso   1.000  H
  H26      1.0000 0.00000  0.91290  0.60050  Biso   1.000  H
  H27      1.0000 0.50000  0.11040  0.98990  Biso   1.000  H
  H28      1.0000 0.00000  0.88960  0.48990  Biso   1.000  H
  N9       1.0000 0.00000  0.10700  0.24400  Biso   1.000  N
  N10      1.0000 0.50000  0.89300  0.74400  Biso   1.000  N
  C23      1.0000 0.00000  0.21100  0.17800  Biso   1.000  C
  C24      1.0000 0.50000  0.78900  0.67800  Biso   1.000  C
  C25      1.0000 0.00000  0.39800  0.08500  Biso   1.000  C
  C26      1.0000 0.50000  0.60200  0.58500  Biso   1.000  C
  H29      1.0000 0.97660  0.59890  0.09620  Biso   1.000  H
  H30      1.0000 0.52340  0.40110  0.59620  Biso   1.000  H
  H31      1.0000 0.02340  0.59890  0.09620  Biso   1.000  H
  H32      1.0000 0.47660  0.40110  0.59620  Biso   1.000  H
  H33      1.0000 0.96780  0.29040  0.03870  Biso   1.000  H
  H34      1.0000 0.53220  0.70960  0.53870  Biso   1.000  H
  H35      1.0000 0.03220  0.29040  0.03870  Biso   1.000  H
  H36      1.0000 0.46780  0.70960  0.53870  Biso   1.000  H
  H37      1.0000 0.05560  0.42040  0.06290  Biso   1.000  H
  H38      1.0000 0.44440  0.57960  0.56290  Biso   1.000  H
  H39      1.0000 0.94440  0.42040  0.06290  Biso   1.000  H
  H40      1.0000 0.55560  0.57960  0.56290  Biso   1.000  H
