data_image0
_cell_length_a       13.591
_cell_length_b       26.495
_cell_length_c       7.4948
_cell_angle_alpha    90
_cell_angle_beta     96.05
_cell_angle_gamma    90

_symmetry_space_group_name_H-M    "P 1"
_symmetry_int_tables_number       1

loop_
  _symmetry_equiv_pos_as_xyz
  'x, y, z'

loop_
  _atom_site_label
  _atom_site_occupancy
  _atom_site_fract_x
  _atom_site_fract_y
  _atom_site_fract_z
  _atom_site_thermal_displace_type
  _atom_site_B_iso_or_equiv
  _atom_site_type_symbol
  I1       1.0000 0.49953  0.29161  0.89762  Biso   1.000  I
  I2       1.0000 0.50047  0.79161  0.60238  Biso   1.000  I
  I3       1.0000 0.50047  0.70839  0.10238  Biso   1.000  I
  I4       1.0000 0.49953  0.20839  0.39762  Biso   1.000  I
  Cu1      1.0000 0.40929  0.27057  0.58541  Biso   1.000  Cu
  Cu2      1.0000 0.59071  0.77057  0.91459  Biso   1.000  Cu
  Cu3      1.0000 0.59071  0.72943  0.41459  Biso   1.000  Cu
  Cu4      1.0000 0.40929  0.22943  0.08541  Biso   1.000  Cu
  S1       1.0000 0.20557  0.34593  0.65090  Biso   1.000  S
  S2       1.0000 0.79443  0.84593  0.84910  Biso   1.000  S
  S3       1.0000 0.79443  0.65407  0.34910  Biso   1.000  S
  S4       1.0000 0.20557  0.15407  0.15090  Biso   1.000  S
  N1       1.0000 0.37000  0.33861  0.46640  Biso   1.000  N
  N2       1.0000 0.63000  0.83861  0.03360  Biso   1.000  N
  N3       1.0000 0.63000  0.66139  0.53360  Biso   1.000  N
  N4       1.0000 0.37000  0.16139  0.96640  Biso   1.000  N
  N5       1.0000 0.27920  0.41500  0.46990  Biso   1.000  N
  N6       1.0000 0.72080  0.91500  0.03010  Biso   1.000  N
  N7       1.0000 0.72080  0.58500  0.53010  Biso   1.000  N
  N8       1.0000 0.27920  0.08500  0.96990  Biso   1.000  N
  N9       1.0000 0.26460  0.24825  0.60010  Biso   1.000  N
  N10      1.0000 0.73540  0.74825  0.89990  Biso   1.000  N
  N11      1.0000 0.73540  0.75175  0.39990  Biso   1.000  N
  N12      1.0000 0.26460  0.25175  0.10010  Biso   1.000  N
  N13      1.0000 0.10370  0.26599  0.68230  Biso   1.000  N
  N14      1.0000 0.89630  0.76599  0.81770  Biso   1.000  N
  N15      1.0000 0.89630  0.73401  0.31770  Biso   1.000  N
  N16      1.0000 0.10370  0.23401  0.18230  Biso   1.000  N
  C1       1.0000 0.29560  0.36700  0.51350  Biso   1.000  C
  C2       1.0000 0.70440  0.86700  0.98650  Biso   1.000  C
  C3       1.0000 0.70440  0.63300  0.48650  Biso   1.000  C
  C4       1.0000 0.29560  0.13300  0.01350  Biso   1.000  C
  C5       1.0000 0.42700  0.36150  0.35450  Biso   1.000  C
  C6       1.0000 0.57300  0.86150  0.14550  Biso   1.000  C
  C7       1.0000 0.57300  0.63850  0.64550  Biso   1.000  C
  C8       1.0000 0.42700  0.13850  0.85450  Biso   1.000  C
  H1       1.0000 0.47720  0.34260  0.31190  Biso   1.000  H
  H2       1.0000 0.52280  0.84260  0.18810  Biso   1.000  H
  H3       1.0000 0.52280  0.65740  0.68810  Biso   1.000  H
  H4       1.0000 0.47720  0.15740  0.81190  Biso   1.000  H
  C9       1.0000 0.41670  0.41110  0.29800  Biso   1.000  C
  C10      1.0000 0.58330  0.91110  0.20200  Biso   1.000  C
  C11      1.0000 0.58330  0.58890  0.70200  Biso   1.000  C
  C12      1.0000 0.41670  0.08890  0.79800  Biso   1.000  C
  C13      1.0000 0.33940  0.43790  0.36510  Biso   1.000  C
  C14      1.0000 0.66060  0.93790  0.13490  Biso   1.000  C
  C15      1.0000 0.66060  0.56210  0.63490  Biso   1.000  C
  C16      1.0000 0.33940  0.06210  0.86510  Biso   1.000  C
  C17      1.0000 0.48900  0.43400  0.18100  Biso   1.000  C
  C18      1.0000 0.51100  0.93400  0.31900  Biso   1.000  C
  C19      1.0000 0.51100  0.56600  0.81900  Biso   1.000  C
  C20      1.0000 0.48900  0.06600  0.68100  Biso   1.000  C
  H5       1.0000 0.54490  0.44730  0.25600  Biso   1.000  H
  H6       1.0000 0.45510  0.94730  0.24400  Biso   1.000  H
  H7       1.0000 0.45510  0.55270  0.74400  Biso   1.000  H
  H8       1.0000 0.54490  0.05270  0.75600  Biso   1.000  H
  H9       1.0000 0.45740  0.46070  0.11030  Biso   1.000  H
  H10      1.0000 0.54260  0.96070  0.38970  Biso   1.000  H
  H11      1.0000 0.54260  0.53930  0.88970  Biso   1.000  H
  H12      1.0000 0.45740  0.03930  0.61030  Biso   1.000  H
  H13      1.0000 0.51140  0.40850  0.10370  Biso   1.000  H
  H14      1.0000 0.48860  0.90850  0.39630  Biso   1.000  H
  H15      1.0000 0.48860  0.59150  0.89630  Biso   1.000  H
  H16      1.0000 0.51140  0.09150  0.60370  Biso   1.000  H
  C21      1.0000 0.31290  0.49150  0.31840  Biso   1.000  C
  C22      1.0000 0.68710  0.99150  0.18160  Biso   1.000  C
  C23      1.0000 0.68710  0.50850  0.68160  Biso   1.000  C
  C24      1.0000 0.31290  0.00850  0.81840  Biso   1.000  C
  C25      1.0000 0.21330  0.50430  0.29530  Biso   1.000  C
  C26      1.0000 0.78670  0.00430  0.20470  Biso   1.000  C
  C27      1.0000 0.78670  0.49570  0.70470  Biso   1.000  C
  C28      1.0000 0.21330  0.99570  0.79530  Biso   1.000  C
  H17      1.0000 0.16580  0.48020  0.31450  Biso   1.000  H
  H18      1.0000 0.83420  0.98020  0.18550  Biso   1.000  H
  H19      1.0000 0.83420  0.51980  0.68550  Biso   1.000  H
  H20      1.0000 0.16580  0.01980  0.81450  Biso   1.000  H
  C29      1.0000 0.18440  0.55260  0.24390  Biso   1.000  C
  C30      1.0000 0.81560  0.05260  0.25610  Biso   1.000  C
  C31      1.0000 0.81560  0.44740  0.75610  Biso   1.000  C
  C32      1.0000 0.18440  0.94740  0.74390  Biso   1.000  C
  H21      1.0000 0.11740  0.56030  0.22480  Biso   1.000  H
  H22      1.0000 0.88260  0.06030  0.27520  Biso   1.000  H
  H23      1.0000 0.88260  0.43970  0.77520  Biso   1.000  H
  H24      1.0000 0.11740  0.93970  0.72480  Biso   1.000  H
  C33      1.0000 0.25450  0.59000  0.22020  Biso   1.000  C
  C34      1.0000 0.74550  0.09000  0.27980  Biso   1.000  C
  C35      1.0000 0.74550  0.41000  0.77980  Biso   1.000  C
  C36      1.0000 0.25450  0.91000  0.72020  Biso   1.000  C
  C37      1.0000 0.35420  0.57740  0.25150  Biso   1.000  C
  C38      1.0000 0.64580  0.07740  0.24850  Biso   1.000  C
  C39      1.0000 0.64580  0.42260  0.74850  Biso   1.000  C
  C40      1.0000 0.35420  0.92260  0.75150  Biso   1.000  C
  H25      1.0000 0.40190  0.60200  0.24060  Biso   1.000  H
  H26      1.0000 0.59810  0.10200  0.25940  Biso   1.000  H
  H27      1.0000 0.59810  0.39800  0.75940  Biso   1.000  H
  H28      1.0000 0.40190  0.89800  0.74060  Biso   1.000  H
  C41      1.0000 0.38350  0.52850  0.29880  Biso   1.000  C
  C42      1.0000 0.61650  0.02850  0.20120  Biso   1.000  C
  C43      1.0000 0.61650  0.47150  0.70120  Biso   1.000  C
  C44      1.0000 0.38350  0.97150  0.79880  Biso   1.000  C
  H29      1.0000 0.45050  0.52050  0.31730  Biso   1.000  H
  H30      1.0000 0.54950  0.02050  0.18270  Biso   1.000  H
  H31      1.0000 0.54950  0.47950  0.68270  Biso   1.000  H
  H32      1.0000 0.45050  0.97950  0.81730  Biso   1.000  H
  C45      1.0000 0.23600  0.64410  0.15800  Biso   1.000  C
  C46      1.0000 0.76400  0.14410  0.34200  Biso   1.000  C
  C47      1.0000 0.76400  0.35590  0.84200  Biso   1.000  C
  C48      1.0000 0.23600  0.85590  0.65800  Biso   1.000  C
  H33      1.0000 0.20690  0.64420  0.03620  Biso   1.000  H
  H34      1.0000 0.79310  0.14420  0.46380  Biso   1.000  H
  H35      1.0000 0.79310  0.35580  0.96380  Biso   1.000  H
  H36      1.0000 0.20690  0.85580  0.53620  Biso   1.000  H
  H37      1.0000 0.29790  0.66200  0.16710  Biso   1.000  H
  H38      1.0000 0.70210  0.16200  0.33290  Biso   1.000  H
  H39      1.0000 0.70210  0.33800  0.83290  Biso   1.000  H
  H40      1.0000 0.29790  0.83800  0.66710  Biso   1.000  H
  H41      1.0000 0.19220  0.66020  0.23310  Biso   1.000  H
  H42      1.0000 0.80780  0.16020  0.26690  Biso   1.000  H
  H43      1.0000 0.80780  0.33980  0.76690  Biso   1.000  H
  H44      1.0000 0.19220  0.83980  0.73310  Biso   1.000  H
  C49      1.0000 0.19270  0.27915  0.64000  Biso   1.000  C
  C50      1.0000 0.80730  0.77915  0.86000  Biso   1.000  C
  C51      1.0000 0.80730  0.72085  0.36000  Biso   1.000  C
  C52      1.0000 0.19270  0.22085  0.14000  Biso   1.000  C
  C53      1.0000 0.23870  0.19978  0.58820  Biso   1.000  C
  C54      1.0000 0.76130  0.69978  0.91180  Biso   1.000  C
  C55      1.0000 0.76130  0.80022  0.41180  Biso   1.000  C
  C56      1.0000 0.23870  0.30022  0.08820  Biso   1.000  C
  H45      1.0000 0.28490  0.17700  0.55280  Biso   1.000  H
  H46      1.0000 0.71510  0.67700  0.94720  Biso   1.000  H
  H47      1.0000 0.71510  0.82300  0.44720  Biso   1.000  H
  H48      1.0000 0.28490  0.32300  0.05280  Biso   1.000  H
  C57      1.0000 0.14870  0.18100  0.62440  Biso   1.000  C
  C58      1.0000 0.85130  0.68100  0.87560  Biso   1.000  C
  C59      1.0000 0.85130  0.81900  0.37560  Biso   1.000  C
  C60      1.0000 0.14870  0.31900  0.12440  Biso   1.000  C
  C61      1.0000 0.08100  0.21650  0.68100  Biso   1.000  C
  C62      1.0000 0.91900  0.71650  0.81900  Biso   1.000  C
  C63      1.0000 0.91900  0.78350  0.31900  Biso   1.000  C
  C64      1.0000 0.08100  0.28350  0.18100  Biso   1.000  C
  C65      1.0000 0.12510  0.12510  0.59230  Biso   1.000  C
  C66      1.0000 0.87490  0.62510  0.90770  Biso   1.000  C
  C67      1.0000 0.87490  0.87490  0.40770  Biso   1.000  C
  C68      1.0000 0.12510  0.37490  0.09230  Biso   1.000  C
  H49      1.0000 0.17330  0.11040  0.52310  Biso   1.000  H
  H50      1.0000 0.82670  0.61040  0.97690  Biso   1.000  H
  H51      1.0000 0.82670  0.88960  0.47690  Biso   1.000  H
  H52      1.0000 0.17330  0.38960  0.02310  Biso   1.000  H
  H53      1.0000 0.06040  0.12180  0.52820  Biso   1.000  H
  H54      1.0000 0.93960  0.62180  0.97180  Biso   1.000  H
  H55      1.0000 0.93960  0.87820  0.47180  Biso   1.000  H
  H56      1.0000 0.06040  0.37820  0.02820  Biso   1.000  H
  H57      1.0000 0.12670  0.10800  0.70550  Biso   1.000  H
  H58      1.0000 0.87330  0.60800  0.79450  Biso   1.000  H
  H59      1.0000 0.87330  0.89200  0.29450  Biso   1.000  H
  H60      1.0000 0.12670  0.39200  0.20550  Biso   1.000  H
  C69      1.0000 0.98140  0.20360  0.73130  Biso   1.000  C
  C70      1.0000 0.01860  0.70360  0.76870  Biso   1.000  C
  C71      1.0000 0.01860  0.79640  0.26870  Biso   1.000  C
  C72      1.0000 0.98140  0.29640  0.23130  Biso   1.000  C
  C73      1.0000 0.90210  0.23520  0.67690  Biso   1.000  C
  C74      1.0000 0.09790  0.73520  0.82310  Biso   1.000  C
  C75      1.0000 0.09790  0.76480  0.32310  Biso   1.000  C
  C76      1.0000 0.90210  0.26480  0.17690  Biso   1.000  C
  H61      1.0000 0.91280  0.26450  0.61320  Biso   1.000  H
  H62      1.0000 0.08720  0.76450  0.88680  Biso   1.000  H
  H63      1.0000 0.08720  0.73550  0.38680  Biso   1.000  H
  H64      1.0000 0.91280  0.23550  0.11320  Biso   1.000  H
  C77      1.0000 0.80720  0.22360  0.71640  Biso   1.000  C
  C78      1.0000 0.19280  0.72360  0.78360  Biso   1.000  C
  C79      1.0000 0.19280  0.77640  0.28360  Biso   1.000  C
  C80      1.0000 0.80720  0.27640  0.21640  Biso   1.000  C
  H65      1.0000 0.75500  0.24490  0.67810  Biso   1.000  H
  H66      1.0000 0.24500  0.74490  0.82190  Biso   1.000  H
  H67      1.0000 0.24500  0.75510  0.32190  Biso   1.000  H
  H68      1.0000 0.75500  0.25510  0.17810  Biso   1.000  H
  C81      1.0000 0.78930  0.17990  0.81350  Biso   1.000  C
  C82      1.0000 0.21070  0.67990  0.68650  Biso   1.000  C
  C83      1.0000 0.21070  0.82010  0.18650  Biso   1.000  C
  C84      1.0000 0.78930  0.32010  0.31350  Biso   1.000  C
  C85      1.0000 0.87010  0.14980  0.87180  Biso   1.000  C
  C86      1.0000 0.12990  0.64980  0.62820  Biso   1.000  C
  C87      1.0000 0.12990  0.85020  0.12820  Biso   1.000  C
  C88      1.0000 0.87010  0.35020  0.37180  Biso   1.000  C
  H69      1.0000 0.86050  0.12140  0.94080  Biso   1.000  H
  H70      1.0000 0.13950  0.62140  0.55920  Biso   1.000  H
  H71      1.0000 0.13950  0.87860  0.05920  Biso   1.000  H
  H72      1.0000 0.86050  0.37860  0.44080  Biso   1.000  H
  C89      1.0000 0.96500  0.16090  0.82980  Biso   1.000  C
  C90      1.0000 0.03500  0.66090  0.67020  Biso   1.000  C
  C91      1.0000 0.03500  0.83910  0.17020  Biso   1.000  C
  C92      1.0000 0.96500  0.33910  0.32980  Biso   1.000  C
  H73      1.0000 0.01750  0.13970  0.86810  Biso   1.000  H
  H74      1.0000 0.98250  0.63970  0.63190  Biso   1.000  H
  H75      1.0000 0.98250  0.86030  0.13190  Biso   1.000  H
  H76      1.0000 0.01750  0.36030  0.36810  Biso   1.000  H
  C93      1.0000 0.68630  0.16630  0.84960  Biso   1.000  C
  C94      1.0000 0.31370  0.66630  0.65040  Biso   1.000  C
  C95      1.0000 0.31370  0.83370  0.15040  Biso   1.000  C
  C96      1.0000 0.68630  0.33370  0.34960  Biso   1.000  C
  H77      1.0000 0.68640  0.13320  0.90200  Biso   1.000  H
  H78      1.0000 0.31360  0.63320  0.59800  Biso   1.000  H
  H79      1.0000 0.31360  0.86680  0.09800  Biso   1.000  H
  H80      1.0000 0.68640  0.36680  0.40200  Biso   1.000  H
  H81      1.0000 0.64370  0.16650  0.73900  Biso   1.000  H
  H82      1.0000 0.35630  0.66650  0.76100  Biso   1.000  H
  H83      1.0000 0.35630  0.83350  0.26100  Biso   1.000  H
  H84      1.0000 0.64370  0.33350  0.23900  Biso   1.000  H
  H85      1.0000 0.66290  0.19040  0.93090  Biso   1.000  H
  H86      1.0000 0.33710  0.69040  0.56910  Biso   1.000  H
  H87      1.0000 0.33710  0.80960  0.06910  Biso   1.000  H
  H88      1.0000 0.66290  0.30960  0.43090  Biso   1.000  H
  C97      1.0000 0.47700  0.42800  0.15000  Biso   1.000  C
  C98      1.0000 0.52300  0.92800  0.35000  Biso   1.000  C
  C99      1.0000 0.52300  0.57200  0.85000  Biso   1.000  C
  C100     1.0000 0.47700  0.07200  0.65000  Biso   1.000  C
  H89      1.0000 0.53330  0.44670  0.20050  Biso   1.000  H
  H90      1.0000 0.46670  0.94670  0.29950  Biso   1.000  H
  H91      1.0000 0.46670  0.55330  0.79950  Biso   1.000  H
  H92      1.0000 0.53330  0.05330  0.70050  Biso   1.000  H
  H93      1.0000 0.43640  0.44910  0.06720  Biso   1.000  H
  H94      1.0000 0.56360  0.94910  0.43280  Biso   1.000  H
  H95      1.0000 0.56360  0.55090  0.93280  Biso   1.000  H
  H96      1.0000 0.43640  0.05090  0.56720  Biso   1.000  H
  H97      1.0000 0.49790  0.39900  0.08750  Biso   1.000  H
  H98      1.0000 0.50210  0.89900  0.41250  Biso   1.000  H
  H99      1.0000 0.50210  0.60100  0.91250  Biso   1.000  H
  H100     1.0000 0.49790  0.10100  0.58750  Biso   1.000  H
  C101     1.0000 0.20600  0.64040  0.16500  Biso   1.000  C
  C102     1.0000 0.79400  0.14040  0.33500  Biso   1.000  C
  C103     1.0000 0.79400  0.35960  0.83500  Biso   1.000  C
  C104     1.0000 0.20600  0.85960  0.66500  Biso   1.000  C
  H101     1.0000 0.18180  0.63930  0.04020  Biso   1.000  H
  H102     1.0000 0.81820  0.13930  0.45980  Biso   1.000  H
  H103     1.0000 0.81820  0.36070  0.95980  Biso   1.000  H
  H104     1.0000 0.18180  0.86070  0.54020  Biso   1.000  H
  H105     1.0000 0.25430  0.66690  0.18490  Biso   1.000  H
  H106     1.0000 0.74570  0.16690  0.31510  Biso   1.000  H
  H107     1.0000 0.74570  0.33310  0.81510  Biso   1.000  H
  H108     1.0000 0.25430  0.83310  0.68490  Biso   1.000  H
  H109     1.0000 0.15240  0.64670  0.23520  Biso   1.000  H
  H110     1.0000 0.84760  0.14670  0.26480  Biso   1.000  H
  H111     1.0000 0.84760  0.35330  0.76480  Biso   1.000  H
  H112     1.0000 0.15240  0.85330  0.73520  Biso   1.000  H
  N17      1.0000 0.13220  0.50650  0.77200  Biso   1.000  N
  N18      1.0000 0.86780  0.00650  0.72800  Biso   1.000  N
  N19      1.0000 0.86780  0.49350  0.22800  Biso   1.000  N
  N20      1.0000 0.13220  0.99350  0.27200  Biso   1.000  N
  C105     1.0000 0.21500  0.50770  0.78800  Biso   1.000  C
  C106     1.0000 0.78500  0.00770  0.71200  Biso   1.000  C
  C107     1.0000 0.78500  0.49230  0.21200  Biso   1.000  C
  C108     1.0000 0.21500  0.99230  0.28800  Biso   1.000  C
  C109     1.0000 0.31650  0.48550  0.82000  Biso   1.000  C
  C110     1.0000 0.68350  0.98550  0.68000  Biso   1.000  C
  C111     1.0000 0.68350  0.51450  0.18000  Biso   1.000  C
  C112     1.0000 0.31650  0.01450  0.32000  Biso   1.000  C
