data_image0
_cell_length_a       4.2155
_cell_length_b       11.254
_cell_length_c       12.196
_cell_angle_alpha    80.34
_cell_angle_beta     88.44
_cell_angle_gamma    83.1

_symmetry_space_group_name_H-M    "P 1"
_symmetry_int_tables_number       1

loop_
  _symmetry_equiv_pos_as_xyz
  'x, y, z'

loop_
  _atom_site_label
  _atom_site_occupancy
  _atom_site_fract_x
  _atom_site_fract_y
  _atom_site_fract_z
  _atom_site_thermal_displace_type
  _atom_site_B_iso_or_equiv
  _atom_site_type_symbol
  I1       1.0000 0.20833  0.60762  0.61170  Biso   1.000  I
  I2       1.0000 0.79167  0.39238  0.38830  Biso   1.000  I
  I3       1.0000 0.03343  0.19625  0.98435  Biso   1.000  I
  I4       1.0000 0.96657  0.80375  0.01565  Biso   1.000  I
  I5       1.0000 0.78813  0.89694  0.67342  Biso   1.000  I
  I6       1.0000 0.21187  0.10306  0.32658  Biso   1.000  I
  I7       1.0000 0.43318  0.52993  0.88978  Biso   1.000  I
  I8       1.0000 0.56682  0.47007  0.11022  Biso   1.000  I
  Cu1      1.0000 0.27620  0.41181  0.51703  Biso   1.000  Cu
  Cu2      1.0000 0.72380  0.58819  0.48297  Biso   1.000  Cu
  N1       1.0000 0.32390  0.26410  0.64130  Biso   1.000  N
  N2       1.0000 0.67610  0.73590  0.35870  Biso   1.000  N
  C1       1.0000 0.40130  0.06530  0.81260  Biso   1.000  C
  C2       1.0000 0.59870  0.93470  0.18740  Biso   1.000  C
  H1       1.0000 0.42820  0.99850  0.87060  Biso   1.000  H
  H2       1.0000 0.57180  0.00150  0.12940  Biso   1.000  H
  C3       1.0000 0.53380  0.05900  0.70700  Biso   1.000  C
  C4       1.0000 0.46620  0.94100  0.29300  Biso   1.000  C
  C5       1.0000 0.49400  0.15920  0.62500  Biso   1.000  C
  C6       1.0000 0.50600  0.84080  0.37500  Biso   1.000  C
  H3       1.0000 0.58870  0.15440  0.55490  Biso   1.000  H
  H4       1.0000 0.41130  0.84560  0.44510  Biso   1.000  H
  C7       1.0000 0.23060  0.17290  0.82790  Biso   1.000  C
  C8       1.0000 0.76940  0.82710  0.17210  Biso   1.000  C
  C9       1.0000 0.19100  0.26990  0.74170  Biso   1.000  C
  C10      1.0000 0.80900  0.73010  0.25830  Biso   1.000  C
  H5       1.0000 0.06750  0.34190  0.75370  Biso   1.000  H
  H6       1.0000 0.93250  0.65810  0.24630  Biso   1.000  H
