data_image0
_cell_length_a       16.5749
_cell_length_b       16.5749
_cell_length_c       16.5749
_cell_angle_alpha    90
_cell_angle_beta     90
_cell_angle_gamma    90

_symmetry_space_group_name_H-M    "P 1"
_symmetry_int_tables_number       1

loop_
  _symmetry_equiv_pos_as_xyz
  'x, y, z'

loop_
  _atom_site_label
  _atom_site_occupancy
  _atom_site_fract_x
  _atom_site_fract_y
  _atom_site_fract_z
  _atom_site_thermal_displace_type
  _atom_site_B_iso_or_equiv
  _atom_site_type_symbol
  C1       1.0000 0.72150  0.05060  0.12900  Biso   1.000  C
  C2       1.0000 0.77850  0.94940  0.62900  Biso   1.000  C
  C3       1.0000 0.27850  0.55060  0.37100  Biso   1.000  C
  C4       1.0000 0.22150  0.44940  0.87100  Biso   1.000  C
  C5       1.0000 0.12900  0.72150  0.05060  Biso   1.000  C
  C6       1.0000 0.62900  0.77850  0.94940  Biso   1.000  C
  C7       1.0000 0.37100  0.27850  0.55060  Biso   1.000  C
  C8       1.0000 0.87100  0.22150  0.44940  Biso   1.000  C
  C9       1.0000 0.05060  0.12900  0.72150  Biso   1.000  C
  C10      1.0000 0.94940  0.62900  0.77850  Biso   1.000  C
  C11      1.0000 0.55060  0.37100  0.27850  Biso   1.000  C
  C12      1.0000 0.44940  0.87100  0.22150  Biso   1.000  C
  C13      1.0000 0.27850  0.94940  0.87100  Biso   1.000  C
  C14      1.0000 0.22150  0.05060  0.37100  Biso   1.000  C
  C15      1.0000 0.72150  0.44940  0.62900  Biso   1.000  C
  C16      1.0000 0.77850  0.55060  0.12900  Biso   1.000  C
  C17      1.0000 0.87100  0.27850  0.94940  Biso   1.000  C
  C18      1.0000 0.37100  0.22150  0.05060  Biso   1.000  C
  C19      1.0000 0.62900  0.72150  0.44940  Biso   1.000  C
  C20      1.0000 0.12900  0.77850  0.55060  Biso   1.000  C
  C21      1.0000 0.94940  0.87100  0.27850  Biso   1.000  C
  C22      1.0000 0.05060  0.37100  0.22150  Biso   1.000  C
  C23      1.0000 0.44940  0.62900  0.72150  Biso   1.000  C
  C24      1.0000 0.55060  0.12900  0.77850  Biso   1.000  C
  H1       1.0000 0.77610  0.04380  0.13991  Biso   1.000  H
  H2       1.0000 0.72390  0.95620  0.63991  Biso   1.000  H
  H3       1.0000 0.22390  0.54380  0.36009  Biso   1.000  H
  H4       1.0000 0.27610  0.45620  0.86009  Biso   1.000  H
  H5       1.0000 0.13991  0.77610  0.04380  Biso   1.000  H
  H6       1.0000 0.63991  0.72390  0.95620  Biso   1.000  H
  H7       1.0000 0.36009  0.22390  0.54380  Biso   1.000  H
  H8       1.0000 0.86009  0.27610  0.45620  Biso   1.000  H
  H9       1.0000 0.04380  0.13991  0.77610  Biso   1.000  H
  H10      1.0000 0.95620  0.63991  0.72390  Biso   1.000  H
  H11      1.0000 0.54380  0.36009  0.22390  Biso   1.000  H
  H12      1.0000 0.45620  0.86009  0.27610  Biso   1.000  H
  H13      1.0000 0.22390  0.95620  0.86009  Biso   1.000  H
  H14      1.0000 0.27610  0.04380  0.36009  Biso   1.000  H
  H15      1.0000 0.77610  0.45620  0.63991  Biso   1.000  H
  H16      1.0000 0.72390  0.54380  0.13991  Biso   1.000  H
  H17      1.0000 0.86009  0.22390  0.95620  Biso   1.000  H
  H18      1.0000 0.36009  0.27610  0.04380  Biso   1.000  H
  H19      1.0000 0.63991  0.77610  0.45620  Biso   1.000  H
  H20      1.0000 0.13991  0.72390  0.54380  Biso   1.000  H
  H21      1.0000 0.95620  0.86009  0.22390  Biso   1.000  H
  H22      1.0000 0.04380  0.36009  0.27610  Biso   1.000  H
  H23      1.0000 0.45620  0.63991  0.77610  Biso   1.000  H
  H24      1.0000 0.54380  0.13991  0.72390  Biso   1.000  H
  C25      1.0000 0.67770  0.01250  0.07150  Biso   1.000  C
  C26      1.0000 0.82230  0.98750  0.57150  Biso   1.000  C
  C27      1.0000 0.32230  0.51250  0.42850  Biso   1.000  C
  C28      1.0000 0.17770  0.48750  0.92850  Biso   1.000  C
  C29      1.0000 0.07150  0.67770  0.01250  Biso   1.000  C
  C30      1.0000 0.57150  0.82230  0.98750  Biso   1.000  C
  C31      1.0000 0.42850  0.32230  0.51250  Biso   1.000  C
  C32      1.0000 0.92850  0.17770  0.48750  Biso   1.000  C
  C33      1.0000 0.01250  0.07150  0.67770  Biso   1.000  C
  C34      1.0000 0.98750  0.57150  0.82230  Biso   1.000  C
  C35      1.0000 0.51250  0.42850  0.32230  Biso   1.000  C
  C36      1.0000 0.48750  0.92850  0.17770  Biso   1.000  C
  C37      1.0000 0.32230  0.98750  0.92850  Biso   1.000  C
  C38      1.0000 0.17770  0.01250  0.42850  Biso   1.000  C
  C39      1.0000 0.67770  0.48750  0.57150  Biso   1.000  C
  C40      1.0000 0.82230  0.51250  0.07150  Biso   1.000  C
  C41      1.0000 0.92850  0.32230  0.98750  Biso   1.000  C
  C42      1.0000 0.42850  0.17770  0.01250  Biso   1.000  C
  C43      1.0000 0.57150  0.67770  0.48750  Biso   1.000  C
  C44      1.0000 0.07150  0.82230  0.51250  Biso   1.000  C
  C45      1.0000 0.98750  0.92850  0.32230  Biso   1.000  C
  C46      1.0000 0.01250  0.42850  0.17770  Biso   1.000  C
  C47      1.0000 0.48750  0.57150  0.67770  Biso   1.000  C
  C48      1.0000 0.51250  0.07150  0.82230  Biso   1.000  C
  H25      1.0000 0.69778  0.97276  0.03741  Biso   1.000  H
  H26      1.0000 0.80222  0.02724  0.53741  Biso   1.000  H
  H27      1.0000 0.30222  0.47276  0.46259  Biso   1.000  H
  H28      1.0000 0.19778  0.52724  0.96259  Biso   1.000  H
  H29      1.0000 0.03741  0.69778  0.97276  Biso   1.000  H
  H30      1.0000 0.53741  0.80222  0.02724  Biso   1.000  H
  H31      1.0000 0.46259  0.30222  0.47276  Biso   1.000  H
  H32      1.0000 0.96259  0.19778  0.52724  Biso   1.000  H
  H33      1.0000 0.97276  0.03741  0.69778  Biso   1.000  H
  H34      1.0000 0.02724  0.53741  0.80222  Biso   1.000  H
  H35      1.0000 0.47276  0.46259  0.30222  Biso   1.000  H
  H36      1.0000 0.52724  0.96259  0.19778  Biso   1.000  H
  H37      1.0000 0.30222  0.02724  0.96259  Biso   1.000  H
  H38      1.0000 0.19778  0.97276  0.46259  Biso   1.000  H
  H39      1.0000 0.69778  0.52724  0.53741  Biso   1.000  H
  H40      1.0000 0.80222  0.47276  0.03741  Biso   1.000  H
  H41      1.0000 0.96259  0.30222  0.02724  Biso   1.000  H
  H42      1.0000 0.46259  0.19778  0.97276  Biso   1.000  H
  H43      1.0000 0.53741  0.69778  0.52724  Biso   1.000  H
  H44      1.0000 0.03741  0.80222  0.47276  Biso   1.000  H
  H45      1.0000 0.02724  0.96259  0.30222  Biso   1.000  H
  H46      1.0000 0.97276  0.46259  0.19778  Biso   1.000  H
  H47      1.0000 0.52724  0.53741  0.69778  Biso   1.000  H
  H48      1.0000 0.47276  0.03741  0.80222  Biso   1.000  H
  C49      1.0000 0.59870  0.09450  0.12710  Biso   1.000  C
  C50      1.0000 0.90130  0.90550  0.62710  Biso   1.000  C
  C51      1.0000 0.40130  0.59450  0.37290  Biso   1.000  C
  C52      1.0000 0.09870  0.40550  0.87290  Biso   1.000  C
  C53      1.0000 0.12710  0.59870  0.09450  Biso   1.000  C
  C54      1.0000 0.62710  0.90130  0.90550  Biso   1.000  C
  C55      1.0000 0.37290  0.40130  0.59450  Biso   1.000  C
  C56      1.0000 0.87290  0.09870  0.40550  Biso   1.000  C
  C57      1.0000 0.09450  0.12710  0.59870  Biso   1.000  C
  C58      1.0000 0.90550  0.62710  0.90130  Biso   1.000  C
  C59      1.0000 0.59450  0.37290  0.40130  Biso   1.000  C
  C60      1.0000 0.40550  0.87290  0.09870  Biso   1.000  C
  C61      1.0000 0.40130  0.90550  0.87290  Biso   1.000  C
  C62      1.0000 0.09870  0.09450  0.37290  Biso   1.000  C
  C63      1.0000 0.59870  0.40550  0.62710  Biso   1.000  C
  C64      1.0000 0.90130  0.59450  0.12710  Biso   1.000  C
  C65      1.0000 0.87290  0.40130  0.90550  Biso   1.000  C
  C66      1.0000 0.37290  0.09870  0.09450  Biso   1.000  C
  C67      1.0000 0.62710  0.59870  0.40550  Biso   1.000  C
  C68      1.0000 0.12710  0.90130  0.59450  Biso   1.000  C
  C69      1.0000 0.90550  0.87290  0.40130  Biso   1.000  C
  C70      1.0000 0.09450  0.37290  0.09870  Biso   1.000  C
  C71      1.0000 0.40550  0.62710  0.59870  Biso   1.000  C
  C72      1.0000 0.59450  0.12710  0.90130  Biso   1.000  C
  H49      1.0000 0.55336  0.12554  0.13834  Biso   1.000  H
  H50      1.0000 0.94664  0.87446  0.63834  Biso   1.000  H
  H51      1.0000 0.44664  0.62554  0.36166  Biso   1.000  H
  H52      1.0000 0.05336  0.37446  0.86166  Biso   1.000  H
  H53      1.0000 0.13834  0.55336  0.12554  Biso   1.000  H
  H54      1.0000 0.63834  0.94664  0.87446  Biso   1.000  H
  H55      1.0000 0.36166  0.44664  0.62554  Biso   1.000  H
  H56      1.0000 0.86166  0.05336  0.37446  Biso   1.000  H
  H57      1.0000 0.12554  0.13834  0.55336  Biso   1.000  H
  H58      1.0000 0.87446  0.63834  0.94664  Biso   1.000  H
  H59      1.0000 0.62554  0.36166  0.44664  Biso   1.000  H
  H60      1.0000 0.37446  0.86166  0.05336  Biso   1.000  H
  H61      1.0000 0.44664  0.87446  0.86166  Biso   1.000  H
  H62      1.0000 0.05336  0.12554  0.36166  Biso   1.000  H
  H63      1.0000 0.55336  0.37446  0.63834  Biso   1.000  H
  H64      1.0000 0.94664  0.62554  0.13834  Biso   1.000  H
  H65      1.0000 0.86166  0.44664  0.87446  Biso   1.000  H
  H66      1.0000 0.36166  0.05336  0.12554  Biso   1.000  H
  H67      1.0000 0.63834  0.55336  0.37446  Biso   1.000  H
  H68      1.0000 0.13834  0.94664  0.62554  Biso   1.000  H
  H69      1.0000 0.87446  0.86166  0.44664  Biso   1.000  H
  H70      1.0000 0.12554  0.36166  0.05336  Biso   1.000  H
  H71      1.0000 0.37446  0.63834  0.55336  Biso   1.000  H
  H72      1.0000 0.62554  0.13834  0.94664  Biso   1.000  H
  C73      1.0000 0.68640  0.15230  0.23340  Biso   1.000  C
  C74      1.0000 0.81360  0.84770  0.73340  Biso   1.000  C
  C75      1.0000 0.31360  0.65230  0.26660  Biso   1.000  C
  C76      1.0000 0.18640  0.34770  0.76660  Biso   1.000  C
  C77      1.0000 0.23340  0.68640  0.15230  Biso   1.000  C
  C78      1.0000 0.73340  0.81360  0.84770  Biso   1.000  C
  C79      1.0000 0.26660  0.31360  0.65230  Biso   1.000  C
  C80      1.0000 0.76660  0.18640  0.34770  Biso   1.000  C
  C81      1.0000 0.15230  0.23340  0.68640  Biso   1.000  C
  C82      1.0000 0.84770  0.73340  0.81360  Biso   1.000  C
  C83      1.0000 0.65230  0.26660  0.31360  Biso   1.000  C
  C84      1.0000 0.34770  0.76660  0.18640  Biso   1.000  C
  C85      1.0000 0.31360  0.84770  0.76660  Biso   1.000  C
  C86      1.0000 0.18640  0.15230  0.26660  Biso   1.000  C
  C87      1.0000 0.68640  0.34770  0.73340  Biso   1.000  C
  C88      1.0000 0.81360  0.65230  0.23340  Biso   1.000  C
  C89      1.0000 0.76660  0.31360  0.84770  Biso   1.000  C
  C90      1.0000 0.26660  0.18640  0.15230  Biso   1.000  C
  C91      1.0000 0.73340  0.68640  0.34770  Biso   1.000  C
  C92      1.0000 0.23340  0.81360  0.65230  Biso   1.000  C
  C93      1.0000 0.84770  0.76660  0.31360  Biso   1.000  C
  C94      1.0000 0.15230  0.26660  0.18640  Biso   1.000  C
  C95      1.0000 0.34770  0.73340  0.68640  Biso   1.000  C
  C96      1.0000 0.65230  0.23340  0.81360  Biso   1.000  C
  C97      1.0000 0.63560  0.21860  0.24920  Biso   1.000  C
  C98      1.0000 0.86440  0.78140  0.74920  Biso   1.000  C
  C99      1.0000 0.36440  0.71860  0.25080  Biso   1.000  C
  C100     1.0000 0.13560  0.28140  0.75080  Biso   1.000  C
  C101     1.0000 0.24920  0.63560  0.21860  Biso   1.000  C
  C102     1.0000 0.74920  0.86440  0.78140  Biso   1.000  C
  C103     1.0000 0.25080  0.36440  0.71860  Biso   1.000  C
  C104     1.0000 0.75080  0.13560  0.28140  Biso   1.000  C
  C105     1.0000 0.21860  0.24920  0.63560  Biso   1.000  C
  C106     1.0000 0.78140  0.74920  0.86440  Biso   1.000  C
  C107     1.0000 0.71860  0.25080  0.36440  Biso   1.000  C
  C108     1.0000 0.28140  0.75080  0.13560  Biso   1.000  C
  C109     1.0000 0.36440  0.78140  0.75080  Biso   1.000  C
  C110     1.0000 0.13560  0.21860  0.25080  Biso   1.000  C
  C111     1.0000 0.63560  0.28140  0.74920  Biso   1.000  C
  C112     1.0000 0.86440  0.71860  0.24920  Biso   1.000  C
  C113     1.0000 0.75080  0.36440  0.78140  Biso   1.000  C
  C114     1.0000 0.25080  0.13560  0.21860  Biso   1.000  C
  C115     1.0000 0.74920  0.63560  0.28140  Biso   1.000  C
  C116     1.0000 0.24920  0.86440  0.71860  Biso   1.000  C
  C117     1.0000 0.78140  0.75080  0.36440  Biso   1.000  C
  C118     1.0000 0.21860  0.25080  0.13560  Biso   1.000  C
  C119     1.0000 0.28140  0.74920  0.63560  Biso   1.000  C
  C120     1.0000 0.71860  0.24920  0.86440  Biso   1.000  C
  H73      1.0000 0.59147  0.22928  0.21617  Biso   1.000  H
  H74      1.0000 0.90853  0.77072  0.71617  Biso   1.000  H
  H75      1.0000 0.40853  0.72928  0.28383  Biso   1.000  H
  H76      1.0000 0.09147  0.27072  0.78383  Biso   1.000  H
  H77      1.0000 0.21617  0.59147  0.22928  Biso   1.000  H
  H78      1.0000 0.71617  0.90853  0.77072  Biso   1.000  H
  H79      1.0000 0.28383  0.40853  0.72928  Biso   1.000  H
  H80      1.0000 0.78383  0.09147  0.27072  Biso   1.000  H
  H81      1.0000 0.22928  0.21617  0.59147  Biso   1.000  H
  H82      1.0000 0.77072  0.71617  0.90853  Biso   1.000  H
  H83      1.0000 0.72928  0.28383  0.40853  Biso   1.000  H
  H84      1.0000 0.27072  0.78383  0.09147  Biso   1.000  H
  H85      1.0000 0.40853  0.77072  0.78383  Biso   1.000  H
  H86      1.0000 0.09147  0.22928  0.28383  Biso   1.000  H
  H87      1.0000 0.59147  0.27072  0.71617  Biso   1.000  H
  H88      1.0000 0.90853  0.72928  0.21617  Biso   1.000  H
  H89      1.0000 0.78383  0.40853  0.77072  Biso   1.000  H
  H90      1.0000 0.28383  0.09147  0.22928  Biso   1.000  H
  H91      1.0000 0.71617  0.59147  0.27072  Biso   1.000  H
  H92      1.0000 0.21617  0.90853  0.72928  Biso   1.000  H
  H93      1.0000 0.77072  0.78383  0.40853  Biso   1.000  H
  H94      1.0000 0.22928  0.28383  0.09147  Biso   1.000  H
  H95      1.0000 0.27072  0.71617  0.59147  Biso   1.000  H
  H96      1.0000 0.72928  0.21617  0.90853  Biso   1.000  H
  Co1      1.0000 0.50000  0.00000  0.00000  Biso   1.000  Co
  Co2      1.0000 0.00000  0.00000  0.50000  Biso   1.000  Co
  Co3      1.0000 0.50000  0.50000  0.50000  Biso   1.000  Co
  Co4      1.0000 0.00000  0.50000  0.00000  Biso   1.000  Co
  N1       1.0000 0.60160  0.03970  0.07020  Biso   1.000  N
  N2       1.0000 0.89840  0.96030  0.57020  Biso   1.000  N
  N3       1.0000 0.39840  0.53970  0.42980  Biso   1.000  N
  N4       1.0000 0.10160  0.46030  0.92980  Biso   1.000  N
  N5       1.0000 0.07020  0.60160  0.03970  Biso   1.000  N
  N6       1.0000 0.57020  0.89840  0.96030  Biso   1.000  N
  N7       1.0000 0.42980  0.39840  0.53970  Biso   1.000  N
  N8       1.0000 0.92980  0.10160  0.46030  Biso   1.000  N
  N9       1.0000 0.03970  0.07020  0.60160  Biso   1.000  N
  N10      1.0000 0.96030  0.57020  0.89840  Biso   1.000  N
  N11      1.0000 0.53970  0.42980  0.39840  Biso   1.000  N
  N12      1.0000 0.46030  0.92980  0.10160  Biso   1.000  N
  N13      1.0000 0.39840  0.96030  0.92980  Biso   1.000  N
  N14      1.0000 0.10160  0.03970  0.42980  Biso   1.000  N
  N15      1.0000 0.60160  0.46030  0.57020  Biso   1.000  N
  N16      1.0000 0.89840  0.53970  0.07020  Biso   1.000  N
  N17      1.0000 0.92980  0.39840  0.96030  Biso   1.000  N
  N18      1.0000 0.42980  0.10160  0.03970  Biso   1.000  N
  N19      1.0000 0.57020  0.60160  0.46030  Biso   1.000  N
  N20      1.0000 0.07020  0.89840  0.53970  Biso   1.000  N
  N21      1.0000 0.96030  0.92980  0.39840  Biso   1.000  N
  N22      1.0000 0.03970  0.42980  0.10160  Biso   1.000  N
  N23      1.0000 0.46030  0.57020  0.60160  Biso   1.000  N
  N24      1.0000 0.53970  0.07020  0.89840  Biso   1.000  N
  N25      1.0000 0.66940  0.10090  0.16760  Biso   1.000  N
  N26      1.0000 0.83060  0.89910  0.66760  Biso   1.000  N
  N27      1.0000 0.33060  0.60090  0.33240  Biso   1.000  N
  N28      1.0000 0.16940  0.39910  0.83240  Biso   1.000  N
  N29      1.0000 0.16760  0.66940  0.10090  Biso   1.000  N
  N30      1.0000 0.66760  0.83060  0.89910  Biso   1.000  N
  N31      1.0000 0.33240  0.33060  0.60090  Biso   1.000  N
  N32      1.0000 0.83240  0.16940  0.39910  Biso   1.000  N
  N33      1.0000 0.10090  0.16760  0.66940  Biso   1.000  N
  N34      1.0000 0.89910  0.66760  0.83060  Biso   1.000  N
  N35      1.0000 0.60090  0.33240  0.33060  Biso   1.000  N
  N36      1.0000 0.39910  0.83240  0.16940  Biso   1.000  N
  N37      1.0000 0.33060  0.89910  0.83240  Biso   1.000  N
  N38      1.0000 0.16940  0.10090  0.33240  Biso   1.000  N
  N39      1.0000 0.66940  0.39910  0.66760  Biso   1.000  N
  N40      1.0000 0.83060  0.60090  0.16760  Biso   1.000  N
  N41      1.0000 0.83240  0.33060  0.89910  Biso   1.000  N
  N42      1.0000 0.33240  0.16940  0.10090  Biso   1.000  N
  N43      1.0000 0.66760  0.66940  0.39910  Biso   1.000  N
  N44      1.0000 0.16760  0.83060  0.60090  Biso   1.000  N
  N45      1.0000 0.89910  0.83240  0.33060  Biso   1.000  N
  N46      1.0000 0.10090  0.33240  0.16940  Biso   1.000  N
  N47      1.0000 0.39910  0.66760  0.66940  Biso   1.000  N
  N48      1.0000 0.60090  0.16760  0.83060  Biso   1.000  N
  Cu1      1.0000 0.39820  0.49410  0.97550  Biso   1.000  Cu
  Cu2      1.0000 0.10180  0.50590  0.47550  Biso   1.000  Cu
  Cu3      1.0000 0.60180  0.99410  0.52450  Biso   1.000  Cu
  Cu4      1.0000 0.89820  0.00590  0.02450  Biso   1.000  Cu
  Cu5      1.0000 0.97550  0.39820  0.49410  Biso   1.000  Cu
  Cu6      1.0000 0.47550  0.10180  0.50590  Biso   1.000  Cu
  Cu7      1.0000 0.52450  0.60180  0.99410  Biso   1.000  Cu
  Cu8      1.0000 0.02450  0.89820  0.00590  Biso   1.000  Cu
  Cu9      1.0000 0.49410  0.97550  0.39820  Biso   1.000  Cu
  Cu10     1.0000 0.50590  0.47550  0.10180  Biso   1.000  Cu
  Cu11     1.0000 0.99410  0.52450  0.60180  Biso   1.000  Cu
  Cu12     1.0000 0.00590  0.02450  0.89820  Biso   1.000  Cu
  Cu13     1.0000 0.60180  0.50590  0.02450  Biso   1.000  Cu
  Cu14     1.0000 0.89820  0.49410  0.52450  Biso   1.000  Cu
  Cu15     1.0000 0.39820  0.00590  0.47550  Biso   1.000  Cu
  Cu16     1.0000 0.10180  0.99410  0.97550  Biso   1.000  Cu
  Cu17     1.0000 0.02450  0.60180  0.50590  Biso   1.000  Cu
  Cu18     1.0000 0.52450  0.89820  0.49410  Biso   1.000  Cu
  Cu19     1.0000 0.47550  0.39820  0.00590  Biso   1.000  Cu
  Cu20     1.0000 0.97550  0.10180  0.99410  Biso   1.000  Cu
  Cu21     1.0000 0.50590  0.02450  0.60180  Biso   1.000  Cu
  Cu22     1.0000 0.49410  0.52450  0.89820  Biso   1.000  Cu
  Cu23     1.0000 0.00590  0.47550  0.39820  Biso   1.000  Cu
  Cu24     1.0000 0.99410  0.97550  0.10180  Biso   1.000  Cu
  Cu25     1.0000 0.44270  0.55730  0.05730  Biso   1.000  Cu
  Cu26     1.0000 0.05730  0.44270  0.55730  Biso   1.000  Cu
  Cu27     1.0000 0.55730  0.05730  0.44270  Biso   1.000  Cu
  Cu28     1.0000 0.94270  0.94270  0.94270  Biso   1.000  Cu
  Cu29     1.0000 0.55730  0.44270  0.94270  Biso   1.000  Cu
  Cu30     1.0000 0.94270  0.55730  0.44270  Biso   1.000  Cu
  Cu31     1.0000 0.44270  0.94270  0.55730  Biso   1.000  Cu
  Cu32     1.0000 0.05730  0.05730  0.05730  Biso   1.000  Cu
  I1       1.0000 0.35710  0.44532  0.11360  Biso   1.000  I
  I2       1.0000 0.14290  0.55468  0.61360  Biso   1.000  I
  I3       1.0000 0.64290  0.94532  0.38640  Biso   1.000  I
  I4       1.0000 0.85710  0.05468  0.88640  Biso   1.000  I
  I5       1.0000 0.11360  0.35710  0.44532  Biso   1.000  I
  I6       1.0000 0.61360  0.14290  0.55468  Biso   1.000  I
  I7       1.0000 0.38640  0.64290  0.94532  Biso   1.000  I
  I8       1.0000 0.88640  0.85710  0.05468  Biso   1.000  I
  I9       1.0000 0.44532  0.11360  0.35710  Biso   1.000  I
  I10      1.0000 0.55468  0.61360  0.14290  Biso   1.000  I
  I11      1.0000 0.94532  0.38640  0.64290  Biso   1.000  I
  I12      1.0000 0.05468  0.88640  0.85710  Biso   1.000  I
  I13      1.0000 0.64290  0.55468  0.88640  Biso   1.000  I
  I14      1.0000 0.85710  0.44532  0.38640  Biso   1.000  I
  I15      1.0000 0.35710  0.05468  0.61360  Biso   1.000  I
  I16      1.0000 0.14290  0.94532  0.11360  Biso   1.000  I
  I17      1.0000 0.88640  0.64290  0.55468  Biso   1.000  I
  I18      1.0000 0.38640  0.85710  0.44532  Biso   1.000  I
  I19      1.0000 0.61360  0.35710  0.05468  Biso   1.000  I
  I20      1.0000 0.11360  0.14290  0.94532  Biso   1.000  I
  I21      1.0000 0.55468  0.88640  0.64290  Biso   1.000  I
  I22      1.0000 0.44532  0.38640  0.85710  Biso   1.000  I
  I23      1.0000 0.05468  0.61360  0.35710  Biso   1.000  I
  I24      1.0000 0.94532  0.11360  0.14290  Biso   1.000  I
