data_image0
_cell_length_a       25.025
_cell_length_b       10.696
_cell_length_c       22.075
_cell_angle_alpha    90
_cell_angle_beta     90
_cell_angle_gamma    90

_symmetry_space_group_name_H-M    "P 1"
_symmetry_int_tables_number       1

loop_
  _symmetry_equiv_pos_as_xyz
  'x, y, z'

loop_
  _atom_site_label
  _atom_site_occupancy
  _atom_site_fract_x
  _atom_site_fract_y
  _atom_site_fract_z
  _atom_site_thermal_displace_type
  _atom_site_B_iso_or_equiv
  _atom_site_type_symbol
  I1       1.0000 0.93946  0.88969  0.93254  Biso   1.000  I
  I2       1.0000 0.06054  0.11031  0.43254  Biso   1.000  I
  I3       1.0000 0.56054  0.38969  0.43254  Biso   1.000  I
  I4       1.0000 0.43946  0.61031  0.93254  Biso   1.000  I
  I5       1.0000 0.04160  0.61546  0.85469  Biso   1.000  I
  I6       1.0000 0.95840  0.38454  0.35469  Biso   1.000  I
  I7       1.0000 0.45840  0.11546  0.35469  Biso   1.000  I
  I8       1.0000 0.54160  0.88454  0.85469  Biso   1.000  I
  Cu1      1.0000 0.99536  0.83568  0.83110  Biso   1.000  Cu
  Cu2      1.0000 0.00464  0.16432  0.33110  Biso   1.000  Cu
  Cu3      1.0000 0.50464  0.33568  0.33110  Biso   1.000  Cu
  Cu4      1.0000 0.49536  0.66432  0.83110  Biso   1.000  Cu
  Cu5      1.0000 0.98428  0.66583  0.95540  Biso   1.000  Cu
  Cu6      1.0000 0.01572  0.33417  0.45540  Biso   1.000  Cu
  Cu7      1.0000 0.51572  0.16583  0.45540  Biso   1.000  Cu
  Cu8      1.0000 0.48428  0.83417  0.95540  Biso   1.000  Cu
  P1       1.0000 0.94502  0.84430  0.74853  Biso   1.000  P
  P2       1.0000 0.05498  0.15570  0.24853  Biso   1.000  P
  P3       1.0000 0.55498  0.34430  0.24853  Biso   1.000  P
  P4       1.0000 0.44502  0.65570  0.74853  Biso   1.000  P
  P5       1.0000 0.04009  0.65580  0.03330  Biso   1.000  P
  P6       1.0000 0.95991  0.34420  0.53330  Biso   1.000  P
  P7       1.0000 0.45991  0.15580  0.53330  Biso   1.000  P
  P8       1.0000 0.54009  0.84420  0.03330  Biso   1.000  P
  N1       1.0000 0.05820  0.96310  0.83030  Biso   1.000  N
  N2       1.0000 0.94180  0.03690  0.33030  Biso   1.000  N
  N3       1.0000 0.44180  0.46310  0.33030  Biso   1.000  N
  N4       1.0000 0.55820  0.53690  0.83030  Biso   1.000  N
  N5       1.0000 0.42210  0.96170  0.95010  Biso   1.000  N
  N6       1.0000 0.57790  0.03830  0.45010  Biso   1.000  N
  N7       1.0000 0.07790  0.46170  0.45010  Biso   1.000  N
  N8       1.0000 0.92210  0.53830  0.95010  Biso   1.000  N
  N9       1.0000 0.24220  0.78650  0.88630  Biso   1.000  N
  N10      1.0000 0.75780  0.21350  0.38630  Biso   1.000  N
  N11      1.0000 0.25780  0.28650  0.38630  Biso   1.000  N
  N12      1.0000 0.74220  0.71350  0.88630  Biso   1.000  N
  C1       1.0000 0.10630  0.92820  0.81110  Biso   1.000  C
  C2       1.0000 0.89370  0.07180  0.31110  Biso   1.000  C
  C3       1.0000 0.39370  0.42820  0.31110  Biso   1.000  C
  C4       1.0000 0.60630  0.57180  0.81110  Biso   1.000  C
  H1       1.0000 0.10960  0.84950  0.79160  Biso   1.000  H
  H2       1.0000 0.89040  0.15050  0.29160  Biso   1.000  H
  H3       1.0000 0.39040  0.34950  0.29160  Biso   1.000  H
  H4       1.0000 0.60960  0.65050  0.79160  Biso   1.000  H
  C5       1.0000 0.15170  0.00030  0.81800  Biso   1.000  C
  C6       1.0000 0.84830  0.99970  0.31800  Biso   1.000  C
  C7       1.0000 0.34830  0.50030  0.31800  Biso   1.000  C
  C8       1.0000 0.65170  0.49970  0.81800  Biso   1.000  C
  H5       1.0000 0.18510  0.97110  0.80340  Biso   1.000  H
  H6       1.0000 0.81490  0.02890  0.30340  Biso   1.000  H
  H7       1.0000 0.31490  0.47110  0.30340  Biso   1.000  H
  H8       1.0000 0.68510  0.52890  0.80340  Biso   1.000  H
  C9       1.0000 0.14800  0.11630  0.84660  Biso   1.000  C
  C10      1.0000 0.85200  0.88370  0.34660  Biso   1.000  C
  C11      1.0000 0.35200  0.61630  0.34660  Biso   1.000  C
  C12      1.0000 0.64800  0.38370  0.84660  Biso   1.000  C
  C13      1.0000 0.09710  0.15700  0.86340  Biso   1.000  C
  C14      1.0000 0.90290  0.84300  0.36340  Biso   1.000  C
  C15      1.0000 0.40290  0.65700  0.36340  Biso   1.000  C
  C16      1.0000 0.59710  0.34300  0.86340  Biso   1.000  C
  H9       1.0000 0.09200  0.23800  0.88000  Biso   1.000  H
  H10      1.0000 0.90800  0.76200  0.38000  Biso   1.000  H
  H11      1.0000 0.40800  0.73800  0.38000  Biso   1.000  H
  H12      1.0000 0.59200  0.26200  0.88000  Biso   1.000  H
  C17      1.0000 0.05400  0.07680  0.85540  Biso   1.000  C
  C18      1.0000 0.94600  0.92320  0.35540  Biso   1.000  C
  C19      1.0000 0.44600  0.57680  0.35540  Biso   1.000  C
  C20      1.0000 0.55400  0.42320  0.85540  Biso   1.000  C
  H13      1.0000 0.01980  0.10390  0.86850  Biso   1.000  H
  H14      1.0000 0.98020  0.89610  0.36850  Biso   1.000  H
  H15      1.0000 0.48020  0.60390  0.36850  Biso   1.000  H
  H16      1.0000 0.51980  0.39610  0.86850  Biso   1.000  H
  C21      1.0000 0.42880  0.07420  0.92500  Biso   1.000  C
  C22      1.0000 0.57120  0.92580  0.42500  Biso   1.000  C
  C23      1.0000 0.07120  0.57420  0.42500  Biso   1.000  C
  C24      1.0000 0.92880  0.42580  0.92500  Biso   1.000  C
  H17      1.0000 0.46380  0.10150  0.91480  Biso   1.000  H
  H18      1.0000 0.53620  0.89850  0.41480  Biso   1.000  H
  H19      1.0000 0.03620  0.60150  0.41480  Biso   1.000  H
  H20      1.0000 0.96380  0.39850  0.91480  Biso   1.000  H
  C25      1.0000 0.38590  0.15180  0.91380  Biso   1.000  C
  C26      1.0000 0.61410  0.84820  0.41380  Biso   1.000  C
  C27      1.0000 0.11410  0.65180  0.41380  Biso   1.000  C
  C28      1.0000 0.88590  0.34820  0.91380  Biso   1.000  C
  H21      1.0000 0.39200  0.23260  0.89730  Biso   1.000  H
  H22      1.0000 0.60800  0.76740  0.39730  Biso   1.000  H
  H23      1.0000 0.10800  0.73260  0.39730  Biso   1.000  H
  H24      1.0000 0.89200  0.26740  0.89730  Biso   1.000  H
  C29      1.0000 0.33360  0.11400  0.92620  Biso   1.000  C
  C30      1.0000 0.66640  0.88600  0.42620  Biso   1.000  C
  C31      1.0000 0.16640  0.61400  0.42620  Biso   1.000  C
  C32      1.0000 0.83360  0.38600  0.92620  Biso   1.000  C
  C33      1.0000 0.32800  0.99980  0.95500  Biso   1.000  C
  C34      1.0000 0.67200  0.00020  0.45500  Biso   1.000  C
  C35      1.0000 0.17200  0.49980  0.45500  Biso   1.000  C
  C36      1.0000 0.82800  0.50020  0.95500  Biso   1.000  C
  H25      1.0000 0.29370  0.97100  0.96710  Biso   1.000  H
  H26      1.0000 0.70630  0.02900  0.46710  Biso   1.000  H
  H27      1.0000 0.20630  0.47100  0.46710  Biso   1.000  H
  H28      1.0000 0.79370  0.52900  0.96710  Biso   1.000  H
  C37      1.0000 0.37320  0.92790  0.96610  Biso   1.000  C
  C38      1.0000 0.62680  0.07210  0.46610  Biso   1.000  C
  C39      1.0000 0.12680  0.42790  0.46610  Biso   1.000  C
  C40      1.0000 0.87320  0.57210  0.96610  Biso   1.000  C
  H29      1.0000 0.36870  0.85020  0.98620  Biso   1.000  H
  H30      1.0000 0.63130  0.14980  0.48620  Biso   1.000  H
  H31      1.0000 0.13130  0.35020  0.48620  Biso   1.000  H
  H32      1.0000 0.86870  0.64980  0.98620  Biso   1.000  H
  C41      1.0000 0.19720  0.71970  0.88920  Biso   1.000  C
  C42      1.0000 0.80280  0.28030  0.38920  Biso   1.000  C
  C43      1.0000 0.30280  0.21970  0.38920  Biso   1.000  C
  C44      1.0000 0.69720  0.78030  0.88920  Biso   1.000  C
  H33      1.0000 0.16440  0.76420  0.89230  Biso   1.000  H
  H34      1.0000 0.83560  0.23580  0.39230  Biso   1.000  H
  H35      1.0000 0.33560  0.26420  0.39230  Biso   1.000  H
  H36      1.0000 0.66440  0.73580  0.89230  Biso   1.000  H
  C45      1.0000 0.19480  0.59060  0.88800  Biso   1.000  C
  C46      1.0000 0.80520  0.40940  0.38800  Biso   1.000  C
  C47      1.0000 0.30520  0.09060  0.38800  Biso   1.000  C
  C48      1.0000 0.69480  0.90940  0.88800  Biso   1.000  C
  H37      1.0000 0.16140  0.54870  0.88990  Biso   1.000  H
  H38      1.0000 0.83860  0.45130  0.38990  Biso   1.000  H
  H39      1.0000 0.33860  0.04870  0.38990  Biso   1.000  H
  H40      1.0000 0.66140  0.95130  0.88990  Biso   1.000  H
  C49      1.0000 0.24190  0.52330  0.88410  Biso   1.000  C
  C50      1.0000 0.75810  0.47670  0.38410  Biso   1.000  C
  C51      1.0000 0.25810  0.02330  0.38410  Biso   1.000  C
  C52      1.0000 0.74190  0.97670  0.88410  Biso   1.000  C
  C53      1.0000 0.28900  0.59240  0.88170  Biso   1.000  C
  C54      1.0000 0.71100  0.40760  0.38170  Biso   1.000  C
  C55      1.0000 0.21100  0.09240  0.38170  Biso   1.000  C
  C56      1.0000 0.78900  0.90760  0.88170  Biso   1.000  C
  H41      1.0000 0.32250  0.55130  0.87850  Biso   1.000  H
  H42      1.0000 0.67750  0.44870  0.37850  Biso   1.000  H
  H43      1.0000 0.17750  0.05130  0.37850  Biso   1.000  H
  H44      1.0000 0.82250  0.94870  0.87850  Biso   1.000  H
  C57      1.0000 0.28650  0.72100  0.88390  Biso   1.000  C
  C58      1.0000 0.71350  0.27900  0.38390  Biso   1.000  C
  C59      1.0000 0.21350  0.22100  0.38390  Biso   1.000  C
  C60      1.0000 0.78650  0.77900  0.88390  Biso   1.000  C
  H45      1.0000 0.31930  0.76560  0.88370  Biso   1.000  H
  H46      1.0000 0.68070  0.23440  0.38370  Biso   1.000  H
  H47      1.0000 0.18070  0.26560  0.38370  Biso   1.000  H
  H48      1.0000 0.81930  0.73440  0.88370  Biso   1.000  H
  C61      1.0000 0.19620  0.18850  0.86400  Biso   1.000  C
  C62      1.0000 0.80380  0.81150  0.36400  Biso   1.000  C
  C63      1.0000 0.30380  0.68850  0.36400  Biso   1.000  C
  C64      1.0000 0.69620  0.31150  0.86400  Biso   1.000  C
  C65      1.0000 0.24120  0.12350  0.88380  Biso   1.000  C
  C66      1.0000 0.75880  0.87650  0.38380  Biso   1.000  C
  C67      1.0000 0.25880  0.62350  0.38380  Biso   1.000  C
  C68      1.0000 0.74120  0.37650  0.88380  Biso   1.000  C
  H49      1.0000 0.24110  0.03470  0.88330  Biso   1.000  H
  H50      1.0000 0.75890  0.96530  0.38330  Biso   1.000  H
  H51      1.0000 0.25890  0.53470  0.38330  Biso   1.000  H
  H52      1.0000 0.74110  0.46530  0.88330  Biso   1.000  H
  C69      1.0000 0.28670  0.18710  0.90460  Biso   1.000  C
  C70      1.0000 0.71330  0.81290  0.40460  Biso   1.000  C
  C71      1.0000 0.21330  0.68710  0.40460  Biso   1.000  C
  C72      1.0000 0.78670  0.31290  0.90460  Biso   1.000  C
  C73      1.0000 0.28600  0.31580  0.90390  Biso   1.000  C
  C74      1.0000 0.71400  0.68420  0.40390  Biso   1.000  C
  C75      1.0000 0.21400  0.81580  0.40390  Biso   1.000  C
  C76      1.0000 0.78600  0.18420  0.90390  Biso   1.000  C
  H53      1.0000 0.31640  0.36010  0.91810  Biso   1.000  H
  H54      1.0000 0.68360  0.63990  0.41810  Biso   1.000  H
  H55      1.0000 0.18360  0.86010  0.41810  Biso   1.000  H
  H56      1.0000 0.81640  0.13990  0.91810  Biso   1.000  H
  C77      1.0000 0.24160  0.38330  0.88310  Biso   1.000  C
  C78      1.0000 0.75840  0.61670  0.38310  Biso   1.000  C
  C79      1.0000 0.25840  0.88330  0.38310  Biso   1.000  C
  C80      1.0000 0.74160  0.11670  0.88310  Biso   1.000  C
  C81      1.0000 0.19780  0.31940  0.86320  Biso   1.000  C
  C82      1.0000 0.80220  0.68060  0.36320  Biso   1.000  C
  C83      1.0000 0.30220  0.81940  0.36320  Biso   1.000  C
  C84      1.0000 0.69780  0.18060  0.86320  Biso   1.000  C
  H57      1.0000 0.16780  0.36460  0.84850  Biso   1.000  H
  H58      1.0000 0.83220  0.63540  0.34850  Biso   1.000  H
  H59      1.0000 0.33220  0.86460  0.34850  Biso   1.000  H
  H60      1.0000 0.66780  0.13540  0.84850  Biso   1.000  H
  C85      1.0000 0.90180  0.98180  0.74790  Biso   1.000  C
  C86      1.0000 0.09820  0.01820  0.24790  Biso   1.000  C
  C87      1.0000 0.59820  0.48180  0.24790  Biso   1.000  C
  C88      1.0000 0.40180  0.51820  0.74790  Biso   1.000  C
  C89      1.0000 0.92700  0.10050  0.75420  Biso   1.000  C
  C90      1.0000 0.07300  0.89950  0.25420  Biso   1.000  C
  C91      1.0000 0.57300  0.60050  0.25420  Biso   1.000  C
  C92      1.0000 0.42700  0.39950  0.75420  Biso   1.000  C
  H61      1.0000 0.96480  0.10710  0.75450  Biso   1.000  H
  H62      1.0000 0.03520  0.89290  0.25450  Biso   1.000  H
  H63      1.0000 0.53520  0.60710  0.25450  Biso   1.000  H
  H64      1.0000 0.46480  0.39290  0.75450  Biso   1.000  H
  C93      1.0000 0.89520  0.20640  0.75990  Biso   1.000  C
  C94      1.0000 0.10480  0.79360  0.25990  Biso   1.000  C
  C95      1.0000 0.60480  0.70640  0.25990  Biso   1.000  C
  C96      1.0000 0.39520  0.29360  0.75990  Biso   1.000  C
  H65      1.0000 0.91200  0.28560  0.76380  Biso   1.000  H
  H66      1.0000 0.08800  0.71440  0.26380  Biso   1.000  H
  H67      1.0000 0.58800  0.78560  0.26380  Biso   1.000  H
  H68      1.0000 0.41200  0.21440  0.76380  Biso   1.000  H
  C97      1.0000 0.83980  0.20060  0.76020  Biso   1.000  C
  C98      1.0000 0.16020  0.79940  0.26020  Biso   1.000  C
  C99      1.0000 0.66020  0.70060  0.26020  Biso   1.000  C
  C100     1.0000 0.33980  0.29940  0.76020  Biso   1.000  C
  H69      1.0000 0.81890  0.27420  0.76450  Biso   1.000  H
  H70      1.0000 0.18110  0.72580  0.26450  Biso   1.000  H
  H71      1.0000 0.68110  0.77420  0.26450  Biso   1.000  H
  H72      1.0000 0.31890  0.22580  0.76450  Biso   1.000  H
  C101     1.0000 0.81430  0.07870  0.75360  Biso   1.000  C
  C102     1.0000 0.18570  0.92130  0.25360  Biso   1.000  C
  C103     1.0000 0.68570  0.57870  0.25360  Biso   1.000  C
  C104     1.0000 0.31430  0.42130  0.75360  Biso   1.000  C
  H73      1.0000 0.77650  0.07150  0.75290  Biso   1.000  H
  H74      1.0000 0.22350  0.92850  0.25290  Biso   1.000  H
  H75      1.0000 0.72350  0.57150  0.25290  Biso   1.000  H
  H76      1.0000 0.27650  0.42850  0.75290  Biso   1.000  H
  C105     1.0000 0.84640  0.97360  0.74860  Biso   1.000  C
  C106     1.0000 0.15360  0.02640  0.24860  Biso   1.000  C
  C107     1.0000 0.65360  0.47360  0.24860  Biso   1.000  C
  C108     1.0000 0.34640  0.52640  0.74860  Biso   1.000  C
  H77      1.0000 0.83000  0.89370  0.74550  Biso   1.000  H
  H78      1.0000 0.17000  0.10630  0.24550  Biso   1.000  H
  H79      1.0000 0.67000  0.39370  0.24550  Biso   1.000  H
  H80      1.0000 0.33000  0.60630  0.74550  Biso   1.000  H
  C109     1.0000 0.89730  0.71790  0.73500  Biso   1.000  C
  C110     1.0000 0.10270  0.28210  0.23500  Biso   1.000  C
  C111     1.0000 0.60270  0.21790  0.23500  Biso   1.000  C
  C112     1.0000 0.39730  0.78210  0.73500  Biso   1.000  C
  C113     1.0000 0.87110  0.70270  0.68060  Biso   1.000  C
  C114     1.0000 0.12890  0.29730  0.18060  Biso   1.000  C
  C115     1.0000 0.62890  0.20270  0.18060  Biso   1.000  C
  C116     1.0000 0.37110  0.79730  0.68060  Biso   1.000  C
  H81      1.0000 0.88010  0.75530  0.64740  Biso   1.000  H
  H82      1.0000 0.11990  0.24470  0.14740  Biso   1.000  H
  H83      1.0000 0.61990  0.25530  0.14740  Biso   1.000  H
  H84      1.0000 0.38010  0.74470  0.64740  Biso   1.000  H
  C117     1.0000 0.83210  0.61240  0.67330  Biso   1.000  C
  C118     1.0000 0.16790  0.38760  0.17330  Biso   1.000  C
  C119     1.0000 0.66790  0.11240  0.17330  Biso   1.000  C
  C120     1.0000 0.33210  0.88760  0.67330  Biso   1.000  C
  H85      1.0000 0.81420  0.60330  0.63560  Biso   1.000  H
  H86      1.0000 0.18580  0.39670  0.13560  Biso   1.000  H
  H87      1.0000 0.68580  0.10330  0.13560  Biso   1.000  H
  H88      1.0000 0.31420  0.89670  0.63560  Biso   1.000  H
  C121     1.0000 0.81960  0.53630  0.72100  Biso   1.000  C
  C122     1.0000 0.18040  0.46370  0.22100  Biso   1.000  C
  C123     1.0000 0.68040  0.03630  0.22100  Biso   1.000  C
  C124     1.0000 0.31960  0.96370  0.72100  Biso   1.000  C
  H89      1.0000 0.79230  0.47520  0.71670  Biso   1.000  H
  H90      1.0000 0.20770  0.52480  0.21670  Biso   1.000  H
  H91      1.0000 0.70770  0.97520  0.21670  Biso   1.000  H
  H92      1.0000 0.29230  0.02480  0.71670  Biso   1.000  H
  C125     1.0000 0.84610  0.54760  0.77520  Biso   1.000  C
  C126     1.0000 0.15390  0.45240  0.27520  Biso   1.000  C
  C127     1.0000 0.65390  0.04760  0.27520  Biso   1.000  C
  C128     1.0000 0.34610  0.95240  0.77520  Biso   1.000  C
  H93      1.0000 0.83760  0.49350  0.80790  Biso   1.000  H
  H94      1.0000 0.16240  0.50650  0.30790  Biso   1.000  H
  H95      1.0000 0.66240  0.99350  0.30790  Biso   1.000  H
  H96      1.0000 0.33760  0.00650  0.80790  Biso   1.000  H
  C129     1.0000 0.88510  0.63780  0.78210  Biso   1.000  C
  C130     1.0000 0.11490  0.36220  0.28210  Biso   1.000  C
  C131     1.0000 0.61490  0.13780  0.28210  Biso   1.000  C
  C132     1.0000 0.38510  0.86220  0.78210  Biso   1.000  C
  H97      1.0000 0.90370  0.64480  0.81950  Biso   1.000  H
  H98      1.0000 0.09630  0.35520  0.31950  Biso   1.000  H
  H99      1.0000 0.59630  0.14480  0.31950  Biso   1.000  H
  H100     1.0000 0.40370  0.85520  0.81950  Biso   1.000  H
  C133     1.0000 0.98240  0.85400  0.67810  Biso   1.000  C
  C134     1.0000 0.01760  0.14600  0.17810  Biso   1.000  C
  C135     1.0000 0.51760  0.35400  0.17810  Biso   1.000  C
  C136     1.0000 0.48240  0.64600  0.67810  Biso   1.000  C
  C137     1.0000 0.97250  0.94120  0.63200  Biso   1.000  C
  C138     1.0000 0.02750  0.05880  0.13200  Biso   1.000  C
  C139     1.0000 0.52750  0.44120  0.13200  Biso   1.000  C
  C140     1.0000 0.47250  0.55880  0.63200  Biso   1.000  C
  H101     1.0000 0.94480  0.00110  0.63660  Biso   1.000  H
  H102     1.0000 0.05520  0.99890  0.13660  Biso   1.000  H
  H103     1.0000 0.55520  0.50110  0.13660  Biso   1.000  H
  H104     1.0000 0.44480  0.49890  0.63660  Biso   1.000  H
  C141     1.0000 0.00330  0.94020  0.57950  Biso   1.000  C
  C142     1.0000 0.99670  0.05980  0.07950  Biso   1.000  C
  C143     1.0000 0.49670  0.44020  0.07950  Biso   1.000  C
  C144     1.0000 0.50330  0.55980  0.57950  Biso   1.000  C
  H105     1.0000 0.99730  0.00190  0.54940  Biso   1.000  H
  H106     1.0000 0.00270  0.99810  0.04940  Biso   1.000  H
  H107     1.0000 0.50270  0.50190  0.04940  Biso   1.000  H
  H108     1.0000 0.49730  0.49810  0.54940  Biso   1.000  H
  C145     1.0000 0.04140  0.85290  0.57080  Biso   1.000  C
  C146     1.0000 0.95860  0.14710  0.07080  Biso   1.000  C
  C147     1.0000 0.45860  0.35290  0.07080  Biso   1.000  C
  C148     1.0000 0.54140  0.64710  0.57080  Biso   1.000  C
  H109     1.0000 0.06100  0.85220  0.53390  Biso   1.000  H
  H110     1.0000 0.93900  0.14780  0.03390  Biso   1.000  H
  H111     1.0000 0.43900  0.35220  0.03390  Biso   1.000  H
  H112     1.0000 0.56100  0.64780  0.53390  Biso   1.000  H
  C149     1.0000 0.05270  0.76300  0.61540  Biso   1.000  C
  C150     1.0000 0.94730  0.23700  0.11540  Biso   1.000  C
  C151     1.0000 0.44730  0.26300  0.11540  Biso   1.000  C
  C152     1.0000 0.55270  0.73700  0.61540  Biso   1.000  C
  H113     1.0000 0.07990  0.70230  0.60940  Biso   1.000  H
  H114     1.0000 0.92010  0.29770  0.10940  Biso   1.000  H
  H115     1.0000 0.42010  0.20230  0.10940  Biso   1.000  H
  H116     1.0000 0.57990  0.79770  0.60940  Biso   1.000  H
  C153     1.0000 0.02270  0.76500  0.66930  Biso   1.000  C
  C154     1.0000 0.97730  0.23500  0.16930  Biso   1.000  C
  C155     1.0000 0.47730  0.26500  0.16930  Biso   1.000  C
  C156     1.0000 0.52270  0.73500  0.66930  Biso   1.000  C
  H117     1.0000 0.02990  0.70530  0.70010  Biso   1.000  H
  H118     1.0000 0.97010  0.29470  0.20010  Biso   1.000  H
  H119     1.0000 0.47010  0.20530  0.20010  Biso   1.000  H
  H120     1.0000 0.52990  0.79470  0.70010  Biso   1.000  H
  C157     1.0000 0.08220  0.51530  0.02710  Biso   1.000  C
  C158     1.0000 0.91780  0.48470  0.52710  Biso   1.000  C
  C159     1.0000 0.41780  0.01530  0.52710  Biso   1.000  C
  C160     1.0000 0.58220  0.98470  0.02710  Biso   1.000  C
  C161     1.0000 0.13700  0.51920  0.02230  Biso   1.000  C
  C162     1.0000 0.86300  0.48080  0.52230  Biso   1.000  C
  C163     1.0000 0.36300  0.01920  0.52230  Biso   1.000  C
  C164     1.0000 0.63700  0.98080  0.02230  Biso   1.000  C
  H121     1.0000 0.15510  0.59690  0.02560  Biso   1.000  H
  H122     1.0000 0.84490  0.40310  0.52560  Biso   1.000  H
  H123     1.0000 0.34490  0.09690  0.52560  Biso   1.000  H
  H124     1.0000 0.65510  0.90310  0.02560  Biso   1.000  H
  C165     1.0000 0.16610  0.40910  0.01270  Biso   1.000  C
  C166     1.0000 0.83390  0.59090  0.51270  Biso   1.000  C
  C167     1.0000 0.33390  0.90910  0.51270  Biso   1.000  C
  C168     1.0000 0.66610  0.09090  0.01270  Biso   1.000  C
  H125     1.0000 0.20370  0.41250  0.00760  Biso   1.000  H
  H126     1.0000 0.79630  0.58750  0.50760  Biso   1.000  H
  H127     1.0000 0.29630  0.91250  0.50760  Biso   1.000  H
  H128     1.0000 0.70370  0.08750  0.00760  Biso   1.000  H
  C169     1.0000 0.14080  0.30010  0.01080  Biso   1.000  C
  C170     1.0000 0.85920  0.69990  0.51080  Biso   1.000  C
  C171     1.0000 0.35920  0.80010  0.51080  Biso   1.000  C
  C172     1.0000 0.64080  0.19990  0.01080  Biso   1.000  C
  H129     1.0000 0.16110  0.22590  0.00500  Biso   1.000  H
  H130     1.0000 0.83890  0.77410  0.50500  Biso   1.000  H
  H131     1.0000 0.33890  0.72590  0.50500  Biso   1.000  H
  H132     1.0000 0.66110  0.27410  0.00500  Biso   1.000  H
  C173     1.0000 0.08560  0.29080  0.01690  Biso   1.000  C
  C174     1.0000 0.91440  0.70920  0.51690  Biso   1.000  C
  C175     1.0000 0.41440  0.79080  0.51690  Biso   1.000  C
  C176     1.0000 0.58560  0.20920  0.01690  Biso   1.000  C
  H133     1.0000 0.06850  0.21150  0.01620  Biso   1.000  H
  H134     1.0000 0.93150  0.78850  0.51620  Biso   1.000  H
  H135     1.0000 0.43150  0.71150  0.51620  Biso   1.000  H
  H136     1.0000 0.56850  0.28850  0.01620  Biso   1.000  H
  C177     1.0000 0.05600  0.39900  0.02380  Biso   1.000  C
  C178     1.0000 0.94400  0.60100  0.52380  Biso   1.000  C
  C179     1.0000 0.44400  0.89900  0.52380  Biso   1.000  C
  C180     1.0000 0.55600  0.10100  0.02380  Biso   1.000  C
  H137     1.0000 0.01810  0.39480  0.02640  Biso   1.000  H
  H138     1.0000 0.98190  0.60520  0.52640  Biso   1.000  H
  H139     1.0000 0.48190  0.89480  0.52640  Biso   1.000  H
  H140     1.0000 0.51810  0.10520  0.02640  Biso   1.000  H
  C181     1.0000 0.01140  0.64740  0.10940  Biso   1.000  C
  C182     1.0000 0.98860  0.35260  0.60940  Biso   1.000  C
  C183     1.0000 0.48860  0.14740  0.60940  Biso   1.000  C
  C184     1.0000 0.51140  0.85260  0.10940  Biso   1.000  C
  C185     1.0000 0.97090  0.73150  0.12240  Biso   1.000  C
  C186     1.0000 0.02910  0.26850  0.62240  Biso   1.000  C
  C187     1.0000 0.52910  0.23150  0.62240  Biso   1.000  C
  C188     1.0000 0.47090  0.76850  0.12240  Biso   1.000  C
  H141     1.0000 0.95850  0.78700  0.09190  Biso   1.000  H
  H142     1.0000 0.04150  0.21300  0.59190  Biso   1.000  H
  H143     1.0000 0.54150  0.28700  0.59190  Biso   1.000  H
  H144     1.0000 0.45850  0.71300  0.09190  Biso   1.000  H
  C189     1.0000 0.94810  0.73550  0.18000  Biso   1.000  C
  C190     1.0000 0.05190  0.26450  0.68000  Biso   1.000  C
  C191     1.0000 0.55190  0.23550  0.68000  Biso   1.000  C
  C192     1.0000 0.44810  0.76450  0.18000  Biso   1.000  C
  H145     1.0000 0.92150  0.79590  0.18930  Biso   1.000  H
  H146     1.0000 0.07850  0.20410  0.68930  Biso   1.000  H
  H147     1.0000 0.57850  0.29590  0.68930  Biso   1.000  H
  H148     1.0000 0.42150  0.70410  0.18930  Biso   1.000  H
  C193     1.0000 0.96450  0.65090  0.22340  Biso   1.000  C
  C194     1.0000 0.03550  0.34910  0.72340  Biso   1.000  C
  C195     1.0000 0.53550  0.15090  0.72340  Biso   1.000  C
  C196     1.0000 0.46450  0.84910  0.22340  Biso   1.000  C
  H149     1.0000 0.94810  0.65170  0.26220  Biso   1.000  H
  H150     1.0000 0.05190  0.34830  0.76220  Biso   1.000  H
  H151     1.0000 0.55190  0.15170  0.76220  Biso   1.000  H
  H152     1.0000 0.44810  0.84830  0.26220  Biso   1.000  H
  C197     1.0000 0.00500  0.56370  0.21110  Biso   1.000  C
  C198     1.0000 0.99500  0.43630  0.71110  Biso   1.000  C
  C199     1.0000 0.49500  0.06370  0.71110  Biso   1.000  C
  C200     1.0000 0.50500  0.93630  0.21110  Biso   1.000  C
  H153     1.0000 0.01600  0.50530  0.24110  Biso   1.000  H
  H154     1.0000 0.98400  0.49470  0.74110  Biso   1.000  H
  H155     1.0000 0.48400  0.00530  0.74110  Biso   1.000  H
  H156     1.0000 0.51600  0.99470  0.24110  Biso   1.000  H
  C201     1.0000 0.02890  0.56470  0.15360  Biso   1.000  C
  C202     1.0000 0.97110  0.43530  0.65360  Biso   1.000  C
  C203     1.0000 0.47110  0.06470  0.65360  Biso   1.000  C
  C204     1.0000 0.52890  0.93530  0.15360  Biso   1.000  C
  H157     1.0000 0.05730  0.50840  0.14480  Biso   1.000  H
  H158     1.0000 0.94270  0.49160  0.64480  Biso   1.000  H
  H159     1.0000 0.44270  0.00840  0.64480  Biso   1.000  H
  H160     1.0000 0.55730  0.99160  0.14480  Biso   1.000  H
  C205     1.0000 0.09070  0.77960  0.04080  Biso   1.000  C
  C206     1.0000 0.90930  0.22040  0.54080  Biso   1.000  C
  C207     1.0000 0.40930  0.27960  0.54080  Biso   1.000  C
  C208     1.0000 0.59070  0.72040  0.04080  Biso   1.000  C
  C209     1.0000 0.09840  0.85930  0.99160  Biso   1.000  C
  C210     1.0000 0.90160  0.14070  0.49160  Biso   1.000  C
  C211     1.0000 0.40160  0.35930  0.49160  Biso   1.000  C
  C212     1.0000 0.59840  0.64070  0.99160  Biso   1.000  C
  H161     1.0000 0.07620  0.85270  0.95680  Biso   1.000  H
  H162     1.0000 0.92380  0.14730  0.45680  Biso   1.000  H
  H163     1.0000 0.42380  0.35270  0.45680  Biso   1.000  H
  H164     1.0000 0.57620  0.64730  0.95680  Biso   1.000  H
  C213     1.0000 0.13880  0.94840  0.99390  Biso   1.000  C
  C214     1.0000 0.86120  0.05160  0.49390  Biso   1.000  C
  C215     1.0000 0.36120  0.44840  0.49390  Biso   1.000  C
  C216     1.0000 0.63880  0.55160  0.99390  Biso   1.000  C
  H165     1.0000 0.14400  0.00410  0.96090  Biso   1.000  H
  H166     1.0000 0.85600  0.99590  0.46090  Biso   1.000  H
  H167     1.0000 0.35600  0.50410  0.46090  Biso   1.000  H
  H168     1.0000 0.64400  0.49590  0.96090  Biso   1.000  H
  C217     1.0000 0.17110  0.95590  0.04400  Biso   1.000  C
  C218     1.0000 0.82890  0.04410  0.54400  Biso   1.000  C
  C219     1.0000 0.32890  0.45590  0.54400  Biso   1.000  C
  C220     1.0000 0.67110  0.54410  0.04400  Biso   1.000  C
  H169     1.0000 0.19980  0.01410  0.04440  Biso   1.000  H
  H170     1.0000 0.80020  0.98590  0.54440  Biso   1.000  H
  H171     1.0000 0.30020  0.51410  0.54440  Biso   1.000  H
  H172     1.0000 0.69980  0.48590  0.04440  Biso   1.000  H
  C221     1.0000 0.16300  0.88170  0.09320  Biso   1.000  C
  C222     1.0000 0.83700  0.11830  0.59320  Biso   1.000  C
  C223     1.0000 0.33700  0.38170  0.59320  Biso   1.000  C
  C224     1.0000 0.66300  0.61830  0.09320  Biso   1.000  C
  H173     1.0000 0.18460  0.89170  0.12830  Biso   1.000  H
  H174     1.0000 0.81540  0.10830  0.62830  Biso   1.000  H
  H175     1.0000 0.31540  0.39170  0.62830  Biso   1.000  H
  H176     1.0000 0.68460  0.60830  0.12830  Biso   1.000  H
  C225     1.0000 0.12290  0.79080  0.09210  Biso   1.000  C
  C226     1.0000 0.87710  0.20920  0.59210  Biso   1.000  C
  C227     1.0000 0.37710  0.29080  0.59210  Biso   1.000  C
  C228     1.0000 0.62290  0.70920  0.09210  Biso   1.000  C
  H177     1.0000 0.11760  0.73720  0.12590  Biso   1.000  H
  H178     1.0000 0.88240  0.26280  0.62590  Biso   1.000  H
  H179     1.0000 0.38240  0.23720  0.62590  Biso   1.000  H
  H180     1.0000 0.61760  0.76280  0.12590  Biso   1.000  H
  Cl1      1.0000 0.68800  0.60410  0.55260  Biso   1.000  Cl
  Cl2      1.0000 0.31200  0.39590  0.05260  Biso   1.000  Cl
  Cl3      1.0000 0.81200  0.10410  0.05260  Biso   1.000  Cl
  Cl4      1.0000 0.18800  0.89590  0.55260  Biso   1.000  Cl
  Cl5      1.0000 0.71650  0.33640  0.55650  Biso   1.000  Cl
  Cl6      1.0000 0.28350  0.66360  0.05650  Biso   1.000  Cl
  Cl7      1.0000 0.78350  0.83640  0.05650  Biso   1.000  Cl
  Cl8      1.0000 0.21650  0.16360  0.55650  Biso   1.000  Cl
  Cl9      1.0000 0.65880  0.47470  0.65560  Biso   1.000  Cl
  Cl10     1.0000 0.34120  0.52530  0.15560  Biso   1.000  Cl
  Cl11     1.0000 0.84120  0.97470  0.15560  Biso   1.000  Cl
  Cl12     1.0000 0.15880  0.02530  0.65560  Biso   1.000  Cl
  C229     1.0000 0.66210  0.45700  0.58590  Biso   1.000  C
  C230     1.0000 0.33790  0.54300  0.08590  Biso   1.000  C
  C231     1.0000 0.83790  0.95700  0.08590  Biso   1.000  C
  C232     1.0000 0.16210  0.04300  0.58590  Biso   1.000  C
  Cl13     1.0000 0.71670  0.85000  0.60760  Biso   1.000  Cl
  Cl14     1.0000 0.28330  0.15000  0.10760  Biso   1.000  Cl
  Cl15     1.0000 0.78330  0.35000  0.10760  Biso   1.000  Cl
  Cl16     1.0000 0.21670  0.65000  0.60760  Biso   1.000  Cl
  Cl17     1.0000 0.64200  0.94690  0.71240  Biso   1.000  Cl
  Cl18     1.0000 0.35800  0.05310  0.21240  Biso   1.000  Cl
  Cl19     1.0000 0.85800  0.44690  0.21240  Biso   1.000  Cl
  Cl20     1.0000 0.14200  0.55310  0.71240  Biso   1.000  Cl
  Cl21     1.0000 0.71260  0.79660  0.72730  Biso   1.000  Cl
  Cl22     1.0000 0.28740  0.20340  0.22730  Biso   1.000  Cl
  Cl23     1.0000 0.78740  0.29660  0.22730  Biso   1.000  Cl
  Cl24     1.0000 0.21260  0.70340  0.72730  Biso   1.000  Cl
  C233     1.0000 0.69200  0.84400  0.68130  Biso   1.000  C
  C234     1.0000 0.30800  0.15600  0.18130  Biso   1.000  C
  C235     1.0000 0.80800  0.34400  0.18130  Biso   1.000  C
  C236     1.0000 0.19200  0.65600  0.68130  Biso   1.000  C
  O1       1.0000 0.70510  0.28540  0.66760  Biso   1.000  O
  O2       1.0000 0.29490  0.71460  0.16760  Biso   1.000  O
  O3       1.0000 0.79490  0.78540  0.16760  Biso   1.000  O
  O4       1.0000 0.20510  0.21460  0.66760  Biso   1.000  O
  Cl25     1.0000 0.67900  0.00700  0.62940  Biso   1.000  Cl
  Cl26     1.0000 0.32100  0.99300  0.12940  Biso   1.000  Cl
  Cl27     1.0000 0.82100  0.50700  0.12940  Biso   1.000  Cl
  Cl28     1.0000 0.17900  0.49300  0.62940  Biso   1.000  Cl
