data_image0
_cell_length_a       9.423
_cell_length_b       13.8156
_cell_length_c       24.7487
_cell_angle_alpha    78.309
_cell_angle_beta     83.155
_cell_angle_gamma    81.505

_symmetry_space_group_name_H-M    "P 1"
_symmetry_int_tables_number       1

loop_
  _symmetry_equiv_pos_as_xyz
  'x, y, z'

loop_
  _atom_site_label
  _atom_site_occupancy
  _atom_site_fract_x
  _atom_site_fract_y
  _atom_site_fract_z
  _atom_site_thermal_displace_type
  _atom_site_B_iso_or_equiv
  _atom_site_type_symbol
  I1       1.0000 0.62900  0.85967  0.50216  Biso   1.000  I
  I2       1.0000 0.37100  0.14033  0.49784  Biso   1.000  I
  I3       1.0000 0.84701  0.90982  0.05806  Biso   1.000  I
  I4       1.0000 0.15299  0.09018  0.94194  Biso   1.000  I
  Cu1      1.0000 0.47631  0.00669  0.43313  Biso   1.000  Cu
  Cu2      1.0000 0.52369  0.99331  0.56687  Biso   1.000  Cu
  Cu3      1.0000 0.11616  0.91569  0.00887  Biso   1.000  Cu
  Cu4      1.0000 0.88384  0.08431  0.99113  Biso   1.000  Cu
  P1       1.0000 0.60799  0.06976  0.35663  Biso   1.000  P
  P2       1.0000 0.39201  0.93024  0.64337  Biso   1.000  P
  P3       1.0000 0.19441  0.78885  0.96523  Biso   1.000  P
  P4       1.0000 0.80559  0.21115  0.03477  Biso   1.000  P
  N1       1.0000 0.29880  0.93950  0.42634  Biso   1.000  N
  N2       1.0000 0.70120  0.06050  0.57366  Biso   1.000  N
  N3       1.0000 0.23090  0.92340  0.07360  Biso   1.000  N
  N4       1.0000 0.76910  0.07660  0.92640  Biso   1.000  N
  N5       1.0000 0.00640  0.44980  0.24800  Biso   1.000  N
  N6       1.0000 0.99360  0.55020  0.75200  Biso   1.000  N
  C1       1.0000 0.28940  0.89840  0.38234  Biso   1.000  C
  C2       1.0000 0.71060  0.10160  0.61766  Biso   1.000  C
  C3       1.0000 0.17110  0.85360  0.37536  Biso   1.000  C
  C4       1.0000 0.82890  0.14640  0.62464  Biso   1.000  C
  C5       1.0000 0.05740  0.85250  0.41694  Biso   1.000  C
  C6       1.0000 0.94260  0.14750  0.58306  Biso   1.000  C
  C7       1.0000 0.06710  0.89290  0.46227  Biso   1.000  C
  C8       1.0000 0.93290  0.10710  0.53773  Biso   1.000  C
  C9       1.0000 0.18860  0.93580  0.46610  Biso   1.000  C
  C10      1.0000 0.81140  0.06420  0.53390  Biso   1.000  C
  C11      1.0000 0.18990  0.87890  0.12505  Biso   1.000  C
  C12      1.0000 0.81010  0.12110  0.87495  Biso   1.000  C
  C13      1.0000 0.26520  0.87530  0.17070  Biso   1.000  C
  C14      1.0000 0.73480  0.12470  0.82930  Biso   1.000  C
  C15      1.0000 0.38840  0.92350  0.16173  Biso   1.000  C
  C16      1.0000 0.61160  0.07650  0.83827  Biso   1.000  C
  C17      1.0000 0.43140  0.96980  0.10876  Biso   1.000  C
  C18      1.0000 0.56860  0.03020  0.89124  Biso   1.000  C
  C19      1.0000 0.35090  0.96820  0.06589  Biso   1.000  C
  C20      1.0000 0.64910  0.03180  0.93411  Biso   1.000  C
  C21      1.0000 0.06390  0.53370  0.24740  Biso   1.000  C
  C22      1.0000 0.93610  0.46630  0.75260  Biso   1.000  C
  C23      1.0000 0.02740  0.59370  0.28638  Biso   1.000  C
  C24      1.0000 0.97260  0.40630  0.71362  Biso   1.000  C
  C25      1.0000 0.92640  0.56260  0.32910  Biso   1.000  C
  C26      1.0000 0.07360  0.43740  0.67090  Biso   1.000  C
  C27      1.0000 0.86720  0.47590  0.33020  Biso   1.000  C
  C28      1.0000 0.13280  0.52410  0.66980  Biso   1.000  C
  C29      1.0000 0.90770  0.42460  0.28920  Biso   1.000  C
  C30      1.0000 0.09230  0.57540  0.71080  Biso   1.000  C
  C31      1.0000 0.16550  0.81280  0.32486  Biso   1.000  C
  C32      1.0000 0.83450  0.18720  0.67514  Biso   1.000  C
  C33      1.0000 0.21980  0.86040  0.27331  Biso   1.000  C
  C34      1.0000 0.78020  0.13960  0.72669  Biso   1.000  C
  C35      1.0000 0.21060  0.82350  0.22606  Biso   1.000  C
  C36      1.0000 0.78940  0.17650  0.77394  Biso   1.000  C
  C37      1.0000 0.14810  0.73610  0.23108  Biso   1.000  C
  C38      1.0000 0.85190  0.26390  0.76892  Biso   1.000  C
  C39      1.0000 0.09420  0.68630  0.28203  Biso   1.000  C
  C40      1.0000 0.90580  0.31370  0.71797  Biso   1.000  C
  C41      1.0000 0.10340  0.72550  0.32909  Biso   1.000  C
  C42      1.0000 0.89660  0.27450  0.67091  Biso   1.000  C
  C43      1.0000 0.77420  0.11220  0.36842  Biso   1.000  C
  C44      1.0000 0.22580  0.88780  0.63158  Biso   1.000  C
  C45      1.0000 0.76110  0.18400  0.40090  Biso   1.000  C
  C46      1.0000 0.23890  0.81600  0.59910  Biso   1.000  C
  C47      1.0000 0.88170  0.22330  0.40971  Biso   1.000  C
  C48      1.0000 0.11830  0.77670  0.59029  Biso   1.000  C
  C49      1.0000 0.01630  0.18920  0.38680  Biso   1.000  C
  C50      1.0000 0.98370  0.81080  0.61320  Biso   1.000  C
  C51      1.0000 0.03050  0.11780  0.35450  Biso   1.000  C
  C52      1.0000 0.96950  0.88220  0.64550  Biso   1.000  C
  C53      1.0000 0.90990  0.07830  0.34470  Biso   1.000  C
  C54      1.0000 0.09010  0.92170  0.65530  Biso   1.000  C
  C55      1.0000 0.52790  0.18260  0.31318  Biso   1.000  C
  C56      1.0000 0.47210  0.81740  0.68682  Biso   1.000  C
  C57      1.0000 0.60820  0.24630  0.27496  Biso   1.000  C
  C58      1.0000 0.39180  0.75370  0.72504  Biso   1.000  C
  C59      1.0000 0.54170  0.33020  0.24250  Biso   1.000  C
  C60      1.0000 0.45830  0.66980  0.75750  Biso   1.000  C
  C61      1.0000 0.39290  0.35070  0.24720  Biso   1.000  C
  C62      1.0000 0.60710  0.64930  0.75280  Biso   1.000  C
  C63      1.0000 0.31140  0.28840  0.28540  Biso   1.000  C
  C64      1.0000 0.68860  0.71160  0.71460  Biso   1.000  C
  C65      1.0000 0.37810  0.20550  0.31830  Biso   1.000  C
  C66      1.0000 0.62190  0.79450  0.68170  Biso   1.000  C
  C67      1.0000 0.66420  0.98410  0.30843  Biso   1.000  C
  C68      1.0000 0.33580  0.01590  0.69157  Biso   1.000  C
  C69      1.0000 0.68910  0.01400  0.25130  Biso   1.000  C
  C70      1.0000 0.31090  0.98600  0.74870  Biso   1.000  C
  C71      1.0000 0.73370  0.94570  0.21700  Biso   1.000  C
  C72      1.0000 0.26630  0.05430  0.78300  Biso   1.000  C
  C73      1.0000 0.75160  0.84570  0.23960  Biso   1.000  C
  C74      1.0000 0.24840  0.15430  0.76040  Biso   1.000  C
  C75      1.0000 0.72680  0.81350  0.29580  Biso   1.000  C
  C76      1.0000 0.27320  0.18650  0.70420  Biso   1.000  C
  C77      1.0000 0.68240  0.88280  0.33030  Biso   1.000  C
  C78      1.0000 0.31760  0.11720  0.66970  Biso   1.000  C
  C79      1.0000 0.38620  0.78480  0.94153  Biso   1.000  C
  C80      1.0000 0.61380  0.21520  0.05847  Biso   1.000  C
  C81      1.0000 0.48140  0.78460  0.98077  Biso   1.000  C
  C82      1.0000 0.51860  0.21540  0.01923  Biso   1.000  C
  C83      1.0000 0.62790  0.77940  0.96650  Biso   1.000  C
  C84      1.0000 0.37210  0.22060  0.03350  Biso   1.000  C
  C85      1.0000 0.68310  0.77740  0.91260  Biso   1.000  C
  C86      1.0000 0.31690  0.22260  0.08740  Biso   1.000  C
  C87      1.0000 0.59160  0.77800  0.87270  Biso   1.000  C
  C88      1.0000 0.40840  0.22200  0.12730  Biso   1.000  C
  C89      1.0000 0.44310  0.78120  0.88738  Biso   1.000  C
  C90      1.0000 0.55690  0.21880  0.11262  Biso   1.000  C
  C91      1.0000 0.11100  0.78550  0.90298  Biso   1.000  C
  C92      1.0000 0.88900  0.21450  0.09702  Biso   1.000  C
  C93      1.0000 0.04650  0.87410  0.87345  Biso   1.000  C
  C94      1.0000 0.95350  0.12590  0.12655  Biso   1.000  C
  C95      1.0000 0.98950  0.87580  0.82420  Biso   1.000  C
  C96      1.0000 0.01050  0.12420  0.17580  Biso   1.000  C
  C97      1.0000 0.99480  0.78790  0.80455  Biso   1.000  C
  C98      1.0000 0.00520  0.21210  0.19545  Biso   1.000  C
  C99      1.0000 0.05680  0.69960  0.83350  Biso   1.000  C
  C100     1.0000 0.94320  0.30040  0.16650  Biso   1.000  C
  C101     1.0000 0.11560  0.69790  0.88262  Biso   1.000  C
  C102     1.0000 0.88440  0.30210  0.11738  Biso   1.000  C
  C103     1.0000 0.18540  0.66460  0.00732  Biso   1.000  C
  C104     1.0000 0.81460  0.33540  0.99268  Biso   1.000  C
  C105     1.0000 0.29200  0.58550  0.00460  Biso   1.000  C
  C106     1.0000 0.70800  0.41450  0.99540  Biso   1.000  C
  C107     1.0000 0.28010  0.49320  0.03900  Biso   1.000  C
  C108     1.0000 0.71990  0.50680  0.96100  Biso   1.000  C
  C109     1.0000 0.16270  0.47920  0.07550  Biso   1.000  C
  C110     1.0000 0.83730  0.52080  0.92450  Biso   1.000  C
  C111     1.0000 0.05470  0.55710  0.07880  Biso   1.000  C
  C112     1.0000 0.94530  0.44290  0.92120  Biso   1.000  C
  C113     1.0000 0.06670  0.64890  0.04460  Biso   1.000  C
  C114     1.0000 0.93330  0.35110  0.95540  Biso   1.000  C
  H1       1.0000 0.36780  0.89980  0.35440  Biso   1.000  H
  H2       1.0000 0.63220  0.10020  0.64560  Biso   1.000  H
  H3       1.0000 0.97370  0.82390  0.41380  Biso   1.000  H
  H4       1.0000 0.02630  0.17610  0.58620  Biso   1.000  H
  H5       1.0000 0.99070  0.89150  0.49110  Biso   1.000  H
  H6       1.0000 0.00930  0.10850  0.50890  Biso   1.000  H
  H7       1.0000 0.19410  0.96350  0.49780  Biso   1.000  H
  H8       1.0000 0.80590  0.03650  0.50220  Biso   1.000  H
  H9       1.0000 0.10450  0.84770  0.13080  Biso   1.000  H
  H10      1.0000 0.89550  0.15230  0.86920  Biso   1.000  H
  H11      1.0000 0.44210  0.92440  0.19180  Biso   1.000  H
  H12      1.0000 0.55790  0.07560  0.80820  Biso   1.000  H
  H13      1.0000 0.51550  0.00240  0.10180  Biso   1.000  H
  H14      1.0000 0.48450  0.99760  0.89820  Biso   1.000  H
  H15      1.0000 0.38160  0.00000  0.02950  Biso   1.000  H
  H16      1.0000 0.61840  0.00000  0.97050  Biso   1.000  H
  H17      1.0000 0.13470  0.55290  0.21790  Biso   1.000  H
  H18      1.0000 0.86530  0.44710  0.78210  Biso   1.000  H
  H19      1.0000 0.89740  0.60030  0.35760  Biso   1.000  H
  H20      1.0000 0.10260  0.39970  0.64240  Biso   1.000  H
  H21      1.0000 0.79870  0.45320  0.35970  Biso   1.000  H
  H22      1.0000 0.20130  0.54680  0.64030  Biso   1.000  H
  H23      1.0000 0.86350  0.36690  0.28970  Biso   1.000  H
  H24      1.0000 0.13650  0.63310  0.71030  Biso   1.000  H
  H25      1.0000 0.26370  0.91900  0.27040  Biso   1.000  H
  H26      1.0000 0.73630  0.08100  0.72960  Biso   1.000  H
  H27      1.0000 0.14230  0.71030  0.19880  Biso   1.000  H
  H28      1.0000 0.85770  0.28970  0.80120  Biso   1.000  H
  H29      1.0000 0.06710  0.69240  0.36430  Biso   1.000  H
  H30      1.0000 0.93290  0.30760  0.63570  Biso   1.000  H
  H31      1.0000 0.66900  0.20650  0.41730  Biso   1.000  H
  H32      1.0000 0.33100  0.79350  0.58270  Biso   1.000  H
  H33      1.0000 0.87180  0.27360  0.43150  Biso   1.000  H
  H34      1.0000 0.12820  0.72640  0.56850  Biso   1.000  H
  H35      1.0000 0.09910  0.21540  0.39330  Biso   1.000  H
  H36      1.0000 0.90090  0.78460  0.60670  Biso   1.000  H
  H37      1.0000 0.12320  0.09490  0.33870  Biso   1.000  H
  H38      1.0000 0.87680  0.90510  0.66130  Biso   1.000  H
  H39      1.0000 0.92000  0.02910  0.32220  Biso   1.000  H
  H40      1.0000 0.08000  0.97090  0.67780  Biso   1.000  H
  H41      1.0000 0.71020  0.23200  0.27110  Biso   1.000  H
  H42      1.0000 0.28980  0.76800  0.72890  Biso   1.000  H
  H43      1.0000 0.59810  0.37370  0.21700  Biso   1.000  H
  H44      1.0000 0.40190  0.62630  0.78300  Biso   1.000  H
  H45      1.0000 0.34690  0.40750  0.22430  Biso   1.000  H
  H46      1.0000 0.65310  0.59250  0.77570  Biso   1.000  H
  H47      1.0000 0.20930  0.30270  0.28890  Biso   1.000  H
  H48      1.0000 0.79070  0.69730  0.71110  Biso   1.000  H
  H49      1.0000 0.32160  0.16360  0.34480  Biso   1.000  H
  H50      1.0000 0.67840  0.83640  0.65520  Biso   1.000  H
  H51      1.0000 0.67520  0.08290  0.23550  Biso   1.000  H
  H52      1.0000 0.32480  0.91710  0.76450  Biso   1.000  H
  H53      1.0000 0.75180  0.96770  0.17820  Biso   1.000  H
  H54      1.0000 0.24820  0.03230  0.82180  Biso   1.000  H
  H55      1.0000 0.78140  0.79830  0.21620  Biso   1.000  H
  H56      1.0000 0.21860  0.20170  0.78380  Biso   1.000  H
  H57      1.0000 0.74000  0.74430  0.31120  Biso   1.000  H
  H58      1.0000 0.26000  0.25570  0.68880  Biso   1.000  H
  H59      1.0000 0.66440  0.86040  0.36910  Biso   1.000  H
  H60      1.0000 0.33560  0.13960  0.63090  Biso   1.000  H
  H61      1.0000 0.44460  0.78800  0.01790  Biso   1.000  H
  H62      1.0000 0.55540  0.21200  0.98210  Biso   1.000  H
  H63      1.0000 0.69110  0.77740  0.99400  Biso   1.000  H
  H64      1.0000 0.30890  0.22260  0.00600  Biso   1.000  H
  H65      1.0000 0.78380  0.77570  0.90280  Biso   1.000  H
  H66      1.0000 0.21620  0.22430  0.09720  Biso   1.000  H
  H67      1.0000 0.62940  0.77620  0.83560  Biso   1.000  H
  H68      1.0000 0.37060  0.22380  0.16440  Biso   1.000  H
  H69      1.0000 0.38060  0.78090  0.86000  Biso   1.000  H
  H70      1.0000 0.61940  0.21910  0.14000  Biso   1.000  H
  H71      1.0000 0.04150  0.93410  0.88710  Biso   1.000  H
  H72      1.0000 0.95850  0.06590  0.11290  Biso   1.000  H
  H73      1.0000 0.94660  0.93690  0.80400  Biso   1.000  H
  H74      1.0000 0.05340  0.06310  0.19600  Biso   1.000  H
  H75      1.0000 0.95530  0.78910  0.77080  Biso   1.000  H
  H76      1.0000 0.04470  0.21090  0.22920  Biso   1.000  H
  H77      1.0000 0.05930  0.63970  0.82000  Biso   1.000  H
  H78      1.0000 0.94070  0.36030  0.18000  Biso   1.000  H
  H79      1.0000 0.15930  0.63670  0.90250  Biso   1.000  H
  H80      1.0000 0.84070  0.36330  0.09750  Biso   1.000  H
  H81      1.0000 0.37490  0.59410  0.97900  Biso   1.000  H
  H82      1.0000 0.62510  0.40590  0.02100  Biso   1.000  H
  H83      1.0000 0.35480  0.43950  0.03670  Biso   1.000  H
  H84      1.0000 0.64520  0.56050  0.96330  Biso   1.000  H
  H85      1.0000 0.15490  0.41600  0.09870  Biso   1.000  H
  H86      1.0000 0.84510  0.58400  0.90130  Biso   1.000  H
  H87      1.0000 0.97210  0.54800  0.10440  Biso   1.000  H
  H88      1.0000 0.02790  0.45200  0.89560  Biso   1.000  H
  H89      1.0000 0.99130  0.70220  0.04700  Biso   1.000  H
  H90      1.0000 0.00870  0.29780  0.95300  Biso   1.000  H
  O1       1.0000 0.45700  0.61230  0.15510  Biso   1.000  O
  O2       1.0000 0.54300  0.38770  0.84490  Biso   1.000  O
  C115     1.0000 0.55560  0.65740  0.18390  Biso   1.000  C
  C116     1.0000 0.44440  0.34260  0.81610  Biso   1.000  C
  C117     1.0000 0.69330  0.60890  0.17720  Biso   1.000  C
  C118     1.0000 0.30670  0.39110  0.82280  Biso   1.000  C
  C119     1.0000 0.69880  0.53050  0.14920  Biso   1.000  C
  C120     1.0000 0.30120  0.46950  0.85080  Biso   1.000  C
  C121     1.0000 0.58900  0.56810  0.11400  Biso   1.000  C
  C122     1.0000 0.41100  0.43190  0.88600  Biso   1.000  C
  O3       1.0000 0.46600  0.60210  0.37500  Biso   1.000  O
  O4       1.0000 0.53400  0.39790  0.62500  Biso   1.000  O
  C123     1.0000 0.54890  0.55470  0.41780  Biso   1.000  C
  C124     1.0000 0.45110  0.44530  0.58220  Biso   1.000  C
  C125     1.0000 0.56380  0.46300  0.42650  Biso   1.000  C
  C126     1.0000 0.43620  0.53700  0.57350  Biso   1.000  C
  C127     1.0000 0.47020  0.42840  0.38850  Biso   1.000  C
  C128     1.0000 0.52980  0.57160  0.61150  Biso   1.000  C
  C129     1.0000 0.40530  0.51640  0.35630  Biso   1.000  C
  C130     1.0000 0.59470  0.48360  0.64370  Biso   1.000  C
  O5       1.0000 0.00400  0.56340  0.49470  Biso   1.000  O
  O6       1.0000 0.99600  0.43660  0.50530  Biso   1.000  O
