data_image0
_cell_length_a       9.3947
_cell_length_b       13.7856
_cell_length_c       24.6784
_cell_angle_alpha    77.772
_cell_angle_beta     83.064
_cell_angle_gamma    81.3

_symmetry_space_group_name_H-M    "P 1"
_symmetry_int_tables_number       1

loop_
  _symmetry_equiv_pos_as_xyz
  'x, y, z'

loop_
  _atom_site_label
  _atom_site_occupancy
  _atom_site_fract_x
  _atom_site_fract_y
  _atom_site_fract_z
  _atom_site_thermal_displace_type
  _atom_site_B_iso_or_equiv
  _atom_site_type_symbol
  I1       1.0000 0.34753  0.40869  0.55901  Biso   1.000  I
  I2       1.0000 0.65247  0.59131  0.44099  Biso   1.000  I
  I3       1.0000 0.12962  0.35838  0.00339  Biso   1.000  I
  I4       1.0000 0.87038  0.64162  0.99661  Biso   1.000  I
  Cu1      1.0000 0.38349  0.58385  0.49128  Biso   1.000  Cu
  Cu2      1.0000 0.61651  0.41615  0.50872  Biso   1.000  Cu
  Cu3      1.0000 0.02247  0.49406  0.06670  Biso   1.000  Cu
  Cu4      1.0000 0.97753  0.50594  0.93330  Biso   1.000  Cu
  P1       1.0000 0.30408  0.71138  0.53428  Biso   1.000  P
  P2       1.0000 0.69592  0.28862  0.46572  Biso   1.000  P
  P3       1.0000 0.88972  0.43134  0.14360  Biso   1.000  P
  P4       1.0000 0.11028  0.56866  0.85640  Biso   1.000  P
  N1       1.0000 0.26840  0.57597  0.42664  Biso   1.000  N
  N2       1.0000 0.73160  0.42403  0.57336  Biso   1.000  N
  N3       1.0000 0.19970  0.56130  0.07317  Biso   1.000  N
  N4       1.0000 0.80030  0.43870  0.92683  Biso   1.000  N
  C1       1.0000 0.32780  0.64810  0.12330  Biso   1.000  C
  C2       1.0000 0.67220  0.35190  0.87670  Biso   1.000  C
  N5       1.0000 0.49550  0.05160  0.25103  Biso   1.000  N
  N6       1.0000 0.50450  0.94840  0.74897  Biso   1.000  N
  C3       1.0000 0.30830  0.62190  0.37480  Biso   1.000  C
  C4       1.0000 0.69170  0.37810  0.62520  Biso   1.000  C
  H1       1.0000 0.39105  0.65354  0.36901  Biso   1.000  H
  H2       1.0000 0.60895  0.34646  0.63099  Biso   1.000  H
  C5       1.0000 0.47230  0.90840  0.21201  Biso   1.000  C
  C6       1.0000 0.52770  0.09160  0.78799  Biso   1.000  C
  C7       1.0000 0.38660  0.71540  0.59685  Biso   1.000  C
  C8       1.0000 0.61340  0.28460  0.40315  Biso   1.000  C
  C9       1.0000 0.31170  0.56450  0.03346  Biso   1.000  C
  C10      1.0000 0.68830  0.43550  0.96654  Biso   1.000  C
  H3       1.0000 0.30713  0.53621  0.00278  Biso   1.000  H
  H4       1.0000 0.69287  0.46379  0.99722  Biso   1.000  H
  C11      1.0000 0.11050  0.57620  0.33784  Biso   1.000  C
  C12      1.0000 0.88950  0.42380  0.66216  Biso   1.000  C
  H5       1.0000 0.05801  0.57578  0.30827  Biso   1.000  H
  H6       1.0000 0.94199  0.42422  0.69173  Biso   1.000  H
  C13      1.0000 0.23340  0.62500  0.32909  Biso   1.000  C
  C14      1.0000 0.76660  0.37500  0.67091  Biso   1.000  C
  C15      1.0000 0.72180  0.38940  0.13270  Biso   1.000  C
  C16      1.0000 0.27820  0.61060  0.86730  Biso   1.000  C
  C17      1.0000 0.61400  0.27750  0.09129  Biso   1.000  C
  C18      1.0000 0.38600  0.72250  0.90871  Biso   1.000  C
  H7       1.0000 0.62366  0.22816  0.07011  Biso   1.000  H
  H8       1.0000 0.37634  0.77184  0.92989  Biso   1.000  H
  C19      1.0000 0.31410  0.83600  0.49129  Biso   1.000  C
  C20      1.0000 0.68590  0.16400  0.50871  Biso   1.000  C
  C21      1.0000 0.44240  0.64960  0.08194  Biso   1.000  C
  C22      1.0000 0.55760  0.35040  0.91806  Biso   1.000  C
  H9       1.0000 0.52401  0.67822  0.08489  Biso   1.000  H
  H10      1.0000 0.47599  0.32178  0.91511  Biso   1.000  H
  C23      1.0000 0.40470  0.81610  0.21643  Biso   1.000  C
  C24      1.0000 0.59530  0.18390  0.78357  Biso   1.000  C
  C25      1.0000 0.43340  0.60810  0.03643  Biso   1.000  C
  C26      1.0000 0.56660  0.39190  0.96357  Biso   1.000  C
  H11      1.0000 0.50823  0.60935  0.00805  Biso   1.000  H
  H12      1.0000 0.49177  0.39065  0.99195  Biso   1.000  H
  C27      1.0000 0.20880  0.60340  0.11686  Biso   1.000  C
  C28      1.0000 0.79120  0.39660  0.88314  Biso   1.000  C
  H13      1.0000 0.13162  0.60269  0.14428  Biso   1.000  H
  H14      1.0000 0.86838  0.39731  0.85572  Biso   1.000  H
  C29      1.0000 0.35040  0.76570  0.26826  Biso   1.000  C
  C30      1.0000 0.64960  0.23430  0.73174  Biso   1.000  C
  H15      1.0000 0.35656  0.79073  0.29995  Biso   1.000  H
  H16      1.0000 0.64344  0.20927  0.70005  Biso   1.000  H
  C31      1.0000 0.11150  0.71650  0.55759  Biso   1.000  C
  C32      1.0000 0.88850  0.28350  0.44241  Biso   1.000  C
  C33      1.0000 0.73540  0.31700  0.09980  Biso   1.000  C
  C34      1.0000 0.26460  0.68300  0.90020  Biso   1.000  C
  H17      1.0000 0.82583  0.29515  0.08355  Biso   1.000  H
  H18      1.0000 0.17417  0.70485  0.91645  Biso   1.000  H
  C35      1.0000 0.14890  0.52980  0.43443  Biso   1.000  C
  C36      1.0000 0.85110  0.47020  0.56557  Biso   1.000  C
  H19      1.0000 0.11966  0.49753  0.47020  Biso   1.000  H
  H20      1.0000 0.88034  0.50247  0.52980  Biso   1.000  H
  C37      1.0000 0.05300  0.71990  0.61207  Biso   1.000  C
  C38      1.0000 0.94700  0.28010  0.38793  Biso   1.000  C
  H21      1.0000 0.11393  0.71954  0.63914  Biso   1.000  H
  H22      1.0000 0.88607  0.28046  0.36086  Biso   1.000  H
  C39      1.0000 0.39510  0.77710  0.16942  Biso   1.000  C
  C40      1.0000 0.60490  0.22290  0.83058  Biso   1.000  C
  H23      1.0000 0.43100  0.80985  0.13467  Biso   1.000  H
  H24      1.0000 0.56900  0.19015  0.86533  Biso   1.000  H
  C41      1.0000 0.97010  0.31810  0.18792  Biso   1.000  C
  C42      1.0000 0.02990  0.68190  0.81208  Biso   1.000  C
  C43      1.0000 0.45380  0.62610  0.62668  Biso   1.000  C
  C44      1.0000 0.54620  0.37390  0.37332  Biso   1.000  C
  H25      1.0000 0.46032  0.56723  0.61334  Biso   1.000  H
  H26      1.0000 0.53968  0.43277  0.38666  Biso   1.000  H
  C45      1.0000 0.01670  0.71600  0.51783  Biso   1.000  C
  C46      1.0000 0.98330  0.28400  0.48217  Biso   1.000  C
  H27      1.0000 0.05390  0.71189  0.48159  Biso   1.000  H
  H28      1.0000 0.94610  0.28811  0.51841  Biso   1.000  H
  C47      1.0000 0.81210  0.72440  0.58611  Biso   1.000  C
  C48      1.0000 0.18790  0.27560  0.41389  Biso   1.000  C
  H29      1.0000 0.71295  0.72672  0.59552  Biso   1.000  H
  H30      1.0000 0.28705  0.27328  0.40448  Biso   1.000  H
  C49      1.0000 0.88890  0.25330  0.22691  Biso   1.000  C
  C50      1.0000 0.11110  0.74670  0.77309  Biso   1.000  C
  H31      1.0000 0.78858  0.26725  0.23058  Biso   1.000  H
  H32      1.0000 0.21142  0.73275  0.76942  Biso   1.000  H
  C51      1.0000 0.06780  0.52840  0.39134  Biso   1.000  C
  C52      1.0000 0.93220  0.47160  0.60866  Biso   1.000  C
  H33      1.0000 0.98579  0.49584  0.39823  Biso   1.000  H
  H34      1.0000 0.01421  0.50416  0.60177  Biso   1.000  H
  C53      1.0000 0.83290  0.51800  0.19141  Biso   1.000  C
  C54      1.0000 0.16710  0.48200  0.80859  Biso   1.000  C
  C55      1.0000 0.86950  0.72150  0.53156  Biso   1.000  C
  C56      1.0000 0.13050  0.27850  0.46844  Biso   1.000  C
  H35      1.0000 0.80822  0.72326  0.50436  Biso   1.000  H
  H36      1.0000 0.19178  0.27674  0.49564  Biso   1.000  H
  C57      1.0000 0.33260  0.68980  0.17364  Biso   1.000  C
  C58      1.0000 0.66740  0.31020  0.82636  Biso   1.000  C
  C59      1.0000 0.43760  0.80210  0.66653  Biso   1.000  C
  C60      1.0000 0.56240  0.19790  0.33347  Biso   1.000  C
  H37      1.0000 0.43267  0.86093  0.67983  Biso   1.000  H
  H38      1.0000 0.56733  0.13907  0.32017  Biso   1.000  H
  C61      1.0000 0.11980  0.29510  0.18276  Biso   1.000  C
  C62      1.0000 0.88020  0.70490  0.81724  Biso   1.000  C
  H39      1.0000 0.17496  0.33622  0.15638  Biso   1.000  H
  H40      1.0000 0.82504  0.66378  0.84362  Biso   1.000  H
  C63      1.0000 0.27790  0.64090  0.22584  Biso   1.000  C
  C64      1.0000 0.72210  0.35910  0.77416  Biso   1.000  C
  H41      1.0000 0.23533  0.58314  0.22884  Biso   1.000  H
  H42      1.0000 0.76467  0.41686  0.77116  Biso   1.000  H
  C65      1.0000 0.50280  0.71340  0.69582  Biso   1.000  C
  C66      1.0000 0.49720  0.28660  0.30418  Biso   1.000  C
  H43      1.0000 0.54153  0.71264  0.72888  Biso   1.000  H
  H44      1.0000 0.45847  0.28736  0.27112  Biso   1.000  H
  C67      1.0000 0.58610  0.42320  0.15619  Biso   1.000  C
  C68      1.0000 0.41390  0.57680  0.84381  Biso   1.000  C
  H45      1.0000 0.57622  0.47171  0.17794  Biso   1.000  H
  H46      1.0000 0.42378  0.52829  0.82206  Biso   1.000  H
  C69      1.0000 0.57390  0.93980  0.16810  Biso   1.000  C
  C70      1.0000 0.42610  0.06020  0.83190  Biso   1.000  C
  H47      1.0000 0.60069  0.90327  0.14003  Biso   1.000  H
  H48      1.0000 0.39931  0.09673  0.85997  Biso   1.000  H
  C71      1.0000 0.20370  0.91550  0.49100  Biso   1.000  C
  C72      1.0000 0.79630  0.08450  0.50900  Biso   1.000  C
  H49      1.0000 0.11974  0.90721  0.51468  Biso   1.000  H
  H50      1.0000 0.88026  0.09279  0.48532  Biso   1.000  H
  C73      1.0000 0.90410  0.72390  0.62635  Biso   1.000  C
  C74      1.0000 0.09590  0.27610  0.37365  Biso   1.000  C
  H51      1.0000 0.86646  0.72619  0.66275  Biso   1.000  H
  H52      1.0000 0.13354  0.27381  0.33725  Biso   1.000  H
  C75      1.0000 0.81700  0.61990  0.16863  Biso   1.000  C
  C76      1.0000 0.18300  0.38010  0.83137  Biso   1.000  C
  H53      1.0000 0.83553  0.64166  0.13044  Biso   1.000  H
  H54      1.0000 0.16447  0.35834  0.86956  Biso   1.000  H
  C77      1.0000 0.37930  0.80380  0.61723  Biso   1.000  C
  C78      1.0000 0.62070  0.19620  0.38277  Biso   1.000  C
  H55      1.0000 0.33524  0.86382  0.59762  Biso   1.000  H
  H56      1.0000 0.66476  0.13618  0.40238  Biso   1.000  H
  C79      1.0000 0.10450  0.14920  0.25514  Biso   1.000  C
  C80      1.0000 0.89550  0.85080  0.74486  Biso   1.000  C
  H57      1.0000 0.14960  0.09341  0.27801  Biso   1.000  H
  H58      1.0000 0.85040  0.90659  0.72199  Biso   1.000  H
  C81      1.0000 0.28680  0.67820  0.27334  Biso   1.000  C
  C82      1.0000 0.71320  0.32180  0.72666  Biso   1.000  C
  C83      1.0000 0.51100  0.62490  0.67627  Biso   1.000  C
  C84      1.0000 0.48900  0.37510  0.32373  Biso   1.000  C
  H59      1.0000 0.55466  0.56516  0.69630  Biso   1.000  H
  H60      1.0000 0.44534  0.43484  0.30370  Biso   1.000  H
  C85      1.0000 0.74670  0.65770  0.25979  Biso   1.000  C
  C86      1.0000 0.25330  0.34230  0.74021  Biso   1.000  C
  H61      1.0000 0.71751  0.70431  0.28253  Biso   1.000  H
  H62      1.0000 0.28249  0.29569  0.71747  Biso   1.000  H
  C87      1.0000 0.80690  0.48740  0.24922  Biso   1.000  C
  C88      1.0000 0.19310  0.51260  0.75078  Biso   1.000  C
  H63      1.0000 0.81932  0.41955  0.26516  Biso   1.000  H
  H64      1.0000 0.18068  0.58045  0.73484  Biso   1.000  H
  C89      1.0000 0.47910  0.31170  0.11434  Biso   1.000  C
  C90      1.0000 0.52090  0.68830  0.88566  Biso   1.000  C
  H65      1.0000 0.39768  0.28631  0.10803  Biso   1.000  H
  H66      1.0000 0.60232  0.71369  0.89197  Biso   1.000  H
  C91      1.0000 0.46510  0.38380  0.14684  Biso   1.000  C
  C92      1.0000 0.53490  0.61620  0.85316  Biso   1.000  C
  H67      1.0000 0.37416  0.40605  0.16255  Biso   1.000  H
  H68      1.0000 0.62584  0.59395  0.83745  Biso   1.000  H
  C93      1.0000 0.76320  0.55700  0.28274  Biso   1.000  C
  C94      1.0000 0.23680  0.44300  0.71726  Biso   1.000  C
  H69      1.0000 0.74481  0.53570  0.32097  Biso   1.000  H
  H70      1.0000 0.25519  0.46430  0.67903  Biso   1.000  H
  C95      1.0000 0.77350  0.68970  0.20285  Biso   1.000  C
  C96      1.0000 0.22650  0.31030  0.79715  Biso   1.000  C
  H71      1.0000 0.76249  0.75773  0.18740  Biso   1.000  H
  H72      1.0000 0.23751  0.24227  0.81260  Biso   1.000  H
  C97      1.0000 0.95560  0.16950  0.25978  Biso   1.000  C
  C98      1.0000 0.04440  0.83050  0.74022  Biso   1.000  C
  H73      1.0000 0.90050  0.12656  0.28505  Biso   1.000  H
  H74      1.0000 0.09950  0.87344  0.71495  Biso   1.000  H
  C99      1.0000 0.43710  0.96820  0.25191  Biso   1.000  C
  C100     1.0000 0.56290  0.03180  0.74809  Biso   1.000  C
  H75      1.0000 0.36849  0.94894  0.28116  Biso   1.000  H
  H76      1.0000 0.63151  0.05106  0.71884  Biso   1.000  H
  C101     1.0000 0.18780  0.21160  0.21650  Biso   1.000  C
  C102     1.0000 0.81220  0.78840  0.78350  Biso   1.000  C
  H77      1.0000 0.28813  0.19756  0.21333  Biso   1.000  H
  H78      1.0000 0.71187  0.80244  0.78667  Biso   1.000  H
  C103     1.0000 0.59390  0.07820  0.20888  Biso   1.000  C
  C104     1.0000 0.40610  0.92180  0.79112  Biso   1.000  C
  H79      1.0000 0.63709  0.13492  0.20804  Biso   1.000  H
  H80      1.0000 0.36291  0.86508  0.79196  Biso   1.000  H
  C105     1.0000 0.63450  0.02620  0.16674  Biso   1.000  C
  C106     1.0000 0.36550  0.97380  0.83326  Biso   1.000  C
  H81      1.0000 0.70182  0.04840  0.13765  Biso   1.000  H
  H82      1.0000 0.29818  0.95160  0.86235  Biso   1.000  H
  C107     1.0000 0.21760  0.00720  0.45560  Biso   1.000  C
  C108     1.0000 0.78240  0.99280  0.54440  Biso   1.000  C
  H83      1.0000 0.14274  0.05958  0.45612  Biso   1.000  H
  H84      1.0000 0.85726  0.94042  0.54388  Biso   1.000  H
  C109     1.0000 0.33870  0.02160  0.42030  Biso   1.000  C
  C110     1.0000 0.66130  0.97840  0.57970  Biso   1.000  C
  H85      1.0000 0.34580  0.08269  0.39616  Biso   1.000  H
  H86      1.0000 0.65420  0.91731  0.60384  Biso   1.000  H
  C111     1.0000 0.43860  0.85230  0.45560  Biso   1.000  C
  C112     1.0000 0.56140  0.14770  0.54440  Biso   1.000  C
  H87      1.0000 0.51450  0.80062  0.45511  Biso   1.000  H
  H88      1.0000 0.48550  0.19938  0.54489  Biso   1.000  H
  C113     1.0000 0.45120  0.94410  0.42090  Biso   1.000  C
  C114     1.0000 0.54880  0.05590  0.57910  Biso   1.000  C
  H89      1.0000 0.53575  0.95387  0.39772  Biso   1.000  H
  H90      1.0000 0.46425  0.04613  0.60228  Biso   1.000  H
  O1       1.0000 0.20250  0.02850  0.64935  Biso   1.000  O
  O2       1.0000 0.79750  0.97150  0.35065  Biso   1.000  O
  C115     1.0000 0.08780  0.06090  0.61480  Biso   1.000  C
  C116     1.0000 0.91220  0.93910  0.38520  Biso   1.000  C
  H91      1.0000 0.04846  0.00362  0.60840  Biso   1.000  H
  H92      1.0000 0.95154  0.99638  0.39160  Biso   1.000  H
  H93      1.0000 0.12293  0.09841  0.57905  Biso   1.000  H
  H94      1.0000 0.87707  0.90159  0.42095  Biso   1.000  H
  C117     1.0000 0.19600  0.10300  0.68050  Biso   1.000  C
  C118     1.0000 0.80400  0.89700  0.31950  Biso   1.000  C
  H95      1.0000 0.27000  0.14594  0.66529  Biso   1.000  H
  H96      1.0000 0.73000  0.85406  0.33471  Biso   1.000  H
  H97      1.0000 0.21313  0.07276  0.71875  Biso   1.000  H
  H98      1.0000 0.78687  0.92724  0.28125  Biso   1.000  H
  C119     1.0000 0.97480  0.12490  0.64270  Biso   1.000  C
  C120     1.0000 0.02520  0.87510  0.35730  Biso   1.000  C
  H99      1.0000 0.92975  0.17964  0.61607  Biso   1.000  H
  H100     1.0000 0.07025  0.82036  0.38393  Biso   1.000  H
  H101     1.0000 0.90098  0.08659  0.66396  Biso   1.000  H
  H102     1.0000 0.09902  0.91341  0.33604  Biso   1.000  H
  C121     1.0000 0.05590  0.16090  0.67860  Biso   1.000  C
  C122     1.0000 0.94410  0.83910  0.32140  Biso   1.000  C
  H103     1.0000 0.06540  0.23109  0.66445  Biso   1.000  H
  H104     1.0000 0.93460  0.76891  0.33555  Biso   1.000  H
  H105     1.0000 0.00610  0.15430  0.71576  Biso   1.000  H
  H106     1.0000 0.99390  0.84570  0.28424  Biso   1.000  H
  C123     1.0000 0.03160  0.07700  0.11270  Biso   1.000  C
  C124     1.0000 0.96840  0.92300  0.88730  Biso   1.000  C
  H107     1.0000 0.10876  0.11555  0.09496  Biso   1.000  H
  H108     1.0000 0.89124  0.88445  0.90504  Biso   1.000  H
  H109     1.0000 0.96591  0.11589  0.13585  Biso   1.000  H
  H110     1.0000 0.03409  0.88411  0.86415  Biso   1.000  H
  C125     1.0000 0.94590  0.96000  0.08240  Biso   1.000  C
  C126     1.0000 0.05410  0.04000  0.91760  Biso   1.000  C
  H111     1.0000 0.97988  0.93238  0.04941  Biso   1.000  H
  H112     1.0000 0.02012  0.06762  0.95059  Biso   1.000  H
  H113     1.0000 0.84469  0.95122  0.09142  Biso   1.000  H
  H114     1.0000 0.15531  0.04878  0.90858  Biso   1.000  H
  C127     1.0000 0.95610  0.04980  0.07160  Biso   1.000  C
  C128     1.0000 0.04390  0.95020  0.92840  Biso   1.000  C
  H115     1.0000 0.86014  0.08751  0.07061  Biso   1.000  H
  H116     1.0000 0.13986  0.91249  0.92939  Biso   1.000  H
  H117     1.0000 0.00771  0.06683  0.03509  Biso   1.000  H
  H118     1.0000 0.99229  0.93317  0.96491  Biso   1.000  H
  C129     1.0000 0.08830  0.98340  0.14470  Biso   1.000  C
  C130     1.0000 0.91170  0.01660  0.85530  Biso   1.000  C
  H119     1.0000 0.06364  0.98336  0.18398  Biso   1.000  H
  H120     1.0000 0.93636  0.01664  0.81602  Biso   1.000  H
  H121     1.0000 0.19288  0.97394  0.13786  Biso   1.000  H
  H122     1.0000 0.80712  0.02606  0.86214  Biso   1.000  H
  O3       1.0000 0.02940  0.90190  0.12970  Biso   1.000  O
  O4       1.0000 0.97060  0.09810  0.87030  Biso   1.000  O
  O5       1.0000 0.49800  0.93720  0.99090  Biso   1.000  O
  O6       1.0000 0.50200  0.06280  0.00910  Biso   1.000  O
