data_image0
_cell_length_a       8.837
_cell_length_b       15.625
_cell_length_c       10.366
_cell_angle_alpha    90
_cell_angle_beta     103.362
_cell_angle_gamma    90

_symmetry_space_group_name_H-M    "P 1"
_symmetry_int_tables_number       1

loop_
  _symmetry_equiv_pos_as_xyz
  'x, y, z'

loop_
  _atom_site_label
  _atom_site_occupancy
  _atom_site_fract_x
  _atom_site_fract_y
  _atom_site_fract_z
  _atom_site_thermal_displace_type
  _atom_site_B_iso_or_equiv
  _atom_site_type_symbol
  Cu1      1.0000 0.52533  0.20743  0.62485  Biso   1.000  Cu
  Cu2      1.0000 0.97467  0.70743  0.87515  Biso   1.000  Cu
  Cu3      1.0000 0.47467  0.79257  0.37515  Biso   1.000  Cu
  Cu4      1.0000 0.02533  0.29257  0.12485  Biso   1.000  Cu
  S1       1.0000 0.26970  0.32239  0.57258  Biso   1.000  S
  S2       1.0000 0.23030  0.82239  0.92742  Biso   1.000  S
  S3       1.0000 0.73030  0.67761  0.42742  Biso   1.000  S
  S4       1.0000 0.76970  0.17761  0.07258  Biso   1.000  S
  N1       1.0000 0.40732  0.09614  0.40953  Biso   1.000  N
  N2       1.0000 0.09268  0.59614  0.09047  Biso   1.000  N
  N3       1.0000 0.59268  0.90386  0.59047  Biso   1.000  N
  N4       1.0000 0.90732  0.40386  0.90953  Biso   1.000  N
  N5       1.0000 0.49645  0.16748  0.44545  Biso   1.000  N
  N6       1.0000 0.00355  0.66748  0.05455  Biso   1.000  N
  N7       1.0000 0.50355  0.83252  0.55455  Biso   1.000  N
  N8       1.0000 0.99645  0.33252  0.94545  Biso   1.000  N
  N9       1.0000 0.65320  0.29532  0.55604  Biso   1.000  N
  N10      1.0000 0.84680  0.79532  0.94396  Biso   1.000  N
  N11      1.0000 0.34680  0.70468  0.44396  Biso   1.000  N
  N12      1.0000 0.15320  0.20468  0.05604  Biso   1.000  N
  N13      1.0000 0.11050  0.27995  0.31404  Biso   1.000  N
  N14      1.0000 0.38950  0.77995  0.18596  Biso   1.000  N
  N15      1.0000 0.88950  0.72005  0.68596  Biso   1.000  N
  N16      1.0000 0.61050  0.22005  0.81404  Biso   1.000  N
  O1       1.0000 0.39614  0.10495  0.63069  Biso   1.000  O
  O2       1.0000 0.10386  0.60495  0.86931  Biso   1.000  O
  O3       1.0000 0.60386  0.89505  0.36931  Biso   1.000  O
  O4       1.0000 0.89614  0.39505  0.13069  Biso   1.000  O
  C1       1.0000 0.25600  0.99356  0.49600  Biso   1.000  C
  C2       1.0000 0.24400  0.49356  0.00400  Biso   1.000  C
  C3       1.0000 0.74400  0.00644  0.50400  Biso   1.000  C
  C4       1.0000 0.75600  0.50644  0.99600  Biso   1.000  C
  C5       1.0000 0.22250  0.95055  0.37470  Biso   1.000  C
  C6       1.0000 0.27750  0.45055  0.12530  Biso   1.000  C
  C7       1.0000 0.77750  0.04945  0.62530  Biso   1.000  C
  C8       1.0000 0.72250  0.54945  0.87470  Biso   1.000  C
  C9       1.0000 0.12240  0.88118  0.35530  Biso   1.000  C
  C10      1.0000 0.37760  0.38118  0.14470  Biso   1.000  C
  C11      1.0000 0.87760  0.11882  0.64470  Biso   1.000  C
  C12      1.0000 0.62240  0.61882  0.85530  Biso   1.000  C
  C13      1.0000 0.05660  0.85368  0.45800  Biso   1.000  C
  C14      1.0000 0.44340  0.35368  0.04200  Biso   1.000  C
  C15      1.0000 0.94340  0.14632  0.54200  Biso   1.000  C
  C16      1.0000 0.55660  0.64632  0.95800  Biso   1.000  C
  C17      1.0000 0.09120  0.89539  0.57850  Biso   1.000  C
  C18      1.0000 0.40880  0.39539  0.92150  Biso   1.000  C
  C19      1.0000 0.90880  0.10461  0.42150  Biso   1.000  C
  C20      1.0000 0.59120  0.60461  0.07850  Biso   1.000  C
  C21      1.0000 0.18990  0.96511  0.59820  Biso   1.000  C
  C22      1.0000 0.31010  0.46511  0.90180  Biso   1.000  C
  C23      1.0000 0.81010  0.03489  0.40180  Biso   1.000  C
  C24      1.0000 0.68990  0.53489  0.09820  Biso   1.000  C
  C25      1.0000 0.35960  0.06968  0.51600  Biso   1.000  C
  C26      1.0000 0.14040  0.56968  0.98400  Biso   1.000  C
  C27      1.0000 0.64040  0.93032  0.48400  Biso   1.000  C
  C28      1.0000 0.85960  0.43032  0.01600  Biso   1.000  C
  C29      1.0000 0.56760  0.20648  0.36800  Biso   1.000  C
  C30      1.0000 0.93240  0.70648  0.13200  Biso   1.000  C
  C31      1.0000 0.43240  0.79352  0.63200  Biso   1.000  C
  C32      1.0000 0.06760  0.29352  0.86800  Biso   1.000  C
  C33      1.0000 0.65800  0.28090  0.42720  Biso   1.000  C
  C34      1.0000 0.84200  0.78090  0.07280  Biso   1.000  C
  C35      1.0000 0.34200  0.71910  0.57280  Biso   1.000  C
  C36      1.0000 0.15800  0.21910  0.92720  Biso   1.000  C
  C37      1.0000 0.74270  0.33251  0.36180  Biso   1.000  C
  C38      1.0000 0.75730  0.83251  0.13820  Biso   1.000  C
  C39      1.0000 0.25730  0.66749  0.63820  Biso   1.000  C
  C40      1.0000 0.24270  0.16749  0.86180  Biso   1.000  C
  C41      1.0000 0.82530  0.40070  0.43010  Biso   1.000  C
  C42      1.0000 0.67470  0.90070  0.06990  Biso   1.000  C
  C43      1.0000 0.17470  0.59930  0.56990  Biso   1.000  C
  C44      1.0000 0.32530  0.09930  0.93010  Biso   1.000  C
  C45      1.0000 0.81890  0.41576  0.56050  Biso   1.000  C
  C46      1.0000 0.68110  0.91576  0.93950  Biso   1.000  C
  C47      1.0000 0.18110  0.58424  0.43950  Biso   1.000  C
  C48      1.0000 0.31890  0.08424  0.06050  Biso   1.000  C
  C49      1.0000 0.73120  0.36144  0.61950  Biso   1.000  C
  C50      1.0000 0.76880  0.86144  0.88050  Biso   1.000  C
  C51      1.0000 0.26880  0.63856  0.38050  Biso   1.000  C
  C52      1.0000 0.23120  0.13856  0.11950  Biso   1.000  C
  C53      1.0000 0.17880  0.29734  0.42050  Biso   1.000  C
  C54      1.0000 0.32120  0.79734  0.07950  Biso   1.000  C
  C55      1.0000 0.82120  0.70266  0.57950  Biso   1.000  C
  C56      1.0000 0.67880  0.20266  0.92050  Biso   1.000  C
  H1       1.0000 0.73900  0.32350  0.27300  Biso   1.000  H
  H2       1.0000 0.76100  0.82350  0.22700  Biso   1.000  H
  H3       1.0000 0.26100  0.67650  0.72700  Biso   1.000  H
  H4       1.0000 0.23900  0.17650  0.77300  Biso   1.000  H
  H5       1.0000 0.87300  0.46310  0.61200  Biso   1.000  H
  H6       1.0000 0.62700  0.96310  0.88800  Biso   1.000  H
  H7       1.0000 0.12700  0.53690  0.38800  Biso   1.000  H
  H8       1.0000 0.37300  0.03690  0.11200  Biso   1.000  H
  H9       1.0000 0.04500  0.87910  0.65000  Biso   1.000  H
  H10      1.0000 0.45500  0.37910  0.85000  Biso   1.000  H
  H11      1.0000 0.95500  0.12090  0.35000  Biso   1.000  H
  H12      1.0000 0.54500  0.62090  0.15000  Biso   1.000  H
  H13      1.0000 0.10600  0.84960  0.27300  Biso   1.000  H
  H14      1.0000 0.39400  0.34960  0.22700  Biso   1.000  H
  H15      1.0000 0.89400  0.15040  0.72700  Biso   1.000  H
  H16      1.0000 0.60600  0.65040  0.77300  Biso   1.000  H
  H17      1.0000 0.87700  0.43670  0.39600  Biso   1.000  H
  H18      1.0000 0.62300  0.93670  0.10400  Biso   1.000  H
  H19      1.0000 0.12300  0.56330  0.60400  Biso   1.000  H
  H20      1.0000 0.37700  0.06330  0.89600  Biso   1.000  H
  H21      1.0000 0.72500  0.36730  0.70400  Biso   1.000  H
  H22      1.0000 0.77500  0.86730  0.79600  Biso   1.000  H
  H23      1.0000 0.27500  0.63270  0.29600  Biso   1.000  H
  H24      1.0000 0.22500  0.13270  0.20400  Biso   1.000  H
  H25      1.0000 0.99900  0.81360  0.44400  Biso   1.000  H
  H26      1.0000 0.50100  0.31360  0.05600  Biso   1.000  H
  H27      1.0000 0.00100  0.18640  0.55600  Biso   1.000  H
  H28      1.0000 0.49900  0.68640  0.94400  Biso   1.000  H
  H29      1.0000 0.56300  0.18980  0.28000  Biso   1.000  H
  H30      1.0000 0.93700  0.68980  0.22000  Biso   1.000  H
  H31      1.0000 0.43700  0.81020  0.72000  Biso   1.000  H
  H32      1.0000 0.06300  0.31020  0.78000  Biso   1.000  H
  H33      1.0000 0.20900  0.99280  0.67400  Biso   1.000  H
  H34      1.0000 0.29100  0.49280  0.82600  Biso   1.000  H
  H35      1.0000 0.79100  0.00720  0.32600  Biso   1.000  H
  H36      1.0000 0.70900  0.50720  0.17400  Biso   1.000  H
  H37      1.0000 0.27000  0.96960  0.30200  Biso   1.000  H
  H38      1.0000 0.23000  0.46960  0.19800  Biso   1.000  H
  H39      1.0000 0.73000  0.03040  0.69800  Biso   1.000  H
  H40      1.0000 0.77000  0.53040  0.80200  Biso   1.000  H
