data_image0
_cell_length_a       11.693
_cell_length_b       12.8918
_cell_length_c       13.172
_cell_angle_alpha    89.985
_cell_angle_beta     64.793
_cell_angle_gamma    77.478

_symmetry_space_group_name_H-M    "P 1"
_symmetry_int_tables_number       1

loop_
  _symmetry_equiv_pos_as_xyz
  'x, y, z'

loop_
  _atom_site_label
  _atom_site_occupancy
  _atom_site_fract_x
  _atom_site_fract_y
  _atom_site_fract_z
  _atom_site_thermal_displace_type
  _atom_site_B_iso_or_equiv
  _atom_site_type_symbol
  I1       1.0000 0.52286  0.60044  0.10849  Biso   1.000  I
  I2       1.0000 0.47714  0.39956  0.89151  Biso   1.000  I
  I3       1.0000 0.59471  0.59926  0.40178  Biso   1.000  I
  I4       1.0000 0.40529  0.40074  0.59822  Biso   1.000  I
  I5       1.0000 0.20318  0.63250  0.43801  Biso   1.000  I
  I6       1.0000 0.79682  0.36750  0.56199  Biso   1.000  I
  Cu1      1.0000 0.44372  0.53088  0.31152  Biso   1.000  Cu
  Cu2      1.0000 0.55628  0.46912  0.68848  Biso   1.000  Cu
  Cu3      1.0000 0.64393  0.41109  0.97615  Biso   1.000  Cu
  Cu4      1.0000 0.35607  0.58891  0.02385  Biso   1.000  Cu
  Cu5      1.0000 0.65781  0.39889  0.45441  Biso   1.000  Cu
  Cu6      1.0000 0.34219  0.60111  0.54559  Biso   1.000  Cu
  P1       1.0000 0.51950  0.35170  0.27470  Biso   1.000  P
  P2       1.0000 0.48050  0.64830  0.72530  Biso   1.000  P
  P3       1.0000 0.66730  0.29700  0.09710  Biso   1.000  P
  P4       1.0000 0.33270  0.70300  0.90290  Biso   1.000  P
  P5       1.0000 0.68900  0.28820  0.30750  Biso   1.000  P
  P6       1.0000 0.31100  0.71180  0.69250  Biso   1.000  P
  P7       1.0000 0.82910  0.12570  0.13410  Biso   1.000  P
  P8       1.0000 0.17090  0.87430  0.86590  Biso   1.000  P
  P9       1.0000 0.57760  0.11270  0.24130  Biso   1.000  P
  P10      1.0000 0.42240  0.88730  0.75870  Biso   1.000  P
  N1       1.0000 0.80310  0.43320  0.84960  Biso   1.000  N
  N2       1.0000 0.19690  0.56680  0.15040  Biso   1.000  N
  C1       1.0000 0.89320  0.44580  0.78110  Biso   1.000  C
  C2       1.0000 0.10680  0.55420  0.21890  Biso   1.000  C
  C3       1.0000 0.01560  0.45030  0.68110  Biso   1.000  C
  C4       1.0000 0.98440  0.54970  0.31890  Biso   1.000  C
  C5       1.0000 0.79830  0.27490  0.14900  Biso   1.000  C
  C6       1.0000 0.20170  0.72510  0.85100  Biso   1.000  C
  C7       1.0000 0.70120  0.13940  0.28850  Biso   1.000  C
  C8       1.0000 0.29880  0.86060  0.71150  Biso   1.000  C
  C9       1.0000 0.68240  0.15090  0.09320  Biso   1.000  C
  C10      1.0000 0.31760  0.84910  0.90680  Biso   1.000  C
  C11      1.0000 0.44830  0.23380  0.30930  Biso   1.000  C
  C12      1.0000 0.55170  0.76620  0.69070  Biso   1.000  C
  C13      1.0000 0.91310  0.32690  0.10290  Biso   1.000  C
  C14      1.0000 0.08690  0.67310  0.89710  Biso   1.000  C
  C15      1.0000 0.73220  0.06730  0.36920  Biso   1.000  C
  C16      1.0000 0.26780  0.93270  0.63080  Biso   1.000  C
  C17      1.0000 0.70230  0.08280  0.99210  Biso   1.000  C
  C18      1.0000 0.29770  0.91720  0.00790  Biso   1.000  C
  C19      1.0000 0.31240  0.24700  0.30930  Biso   1.000  C
  C20      1.0000 0.68760  0.75300  0.69070  Biso   1.000  C
  C21      1.0000 0.86890  0.44670  0.11640  Biso   1.000  C
  C22      1.0000 0.13110  0.55330  0.88360  Biso   1.000  C
  C23      1.0000 0.99610  0.28320  0.97750  Biso   1.000  C
  C24      1.0000 0.00390  0.71680  0.02250  Biso   1.000  C
  C25      1.0000 0.99920  0.29020  0.16560  Biso   1.000  C
  C26      1.0000 0.00080  0.70980  0.83440  Biso   1.000  C
  C27      1.0000 0.61920  0.09590  0.48690  Biso   1.000  C
  C28      1.0000 0.38080  0.90410  0.51310  Biso   1.000  C
  C29      1.0000 0.85690  0.08720  0.37360  Biso   1.000  C
  C30      1.0000 0.14310  0.91280  0.62640  Biso   1.000  C
  C31      1.0000 0.75830  0.94830  0.33000  Biso   1.000  C
  C32      1.0000 0.24170  0.05170  0.67000  Biso   1.000  C
  C33      1.0000 0.73430  0.96240  0.00460  Biso   1.000  C
  C34      1.0000 0.26570  0.03760  0.99540  Biso   1.000  C
  C35      1.0000 0.81320  0.10980  0.88710  Biso   1.000  C
  C36      1.0000 0.18680  0.89020  0.11290  Biso   1.000  C
  C37      1.0000 0.57910  0.10990  0.97360  Biso   1.000  C
  C38      1.0000 0.42090  0.89010  0.02640  Biso   1.000  C
  C39      1.0000 0.28090  0.13810  0.30610  Biso   1.000  C
  C40      1.0000 0.71910  0.86190  0.69390  Biso   1.000  C
  C41      1.0000 0.31240  0.30070  0.20540  Biso   1.000  C
  C42      1.0000 0.68760  0.69930  0.79460  Biso   1.000  C
  C43      1.0000 0.20680  0.31540  0.41530  Biso   1.000  C
  C44      1.0000 0.79320  0.68460  0.58470  Biso   1.000  C
  H1       1.0000 0.08320  0.38570  0.67100  Biso   1.000  H
  H2       1.0000 0.91680  0.61430  0.32900  Biso   1.000  H
  H3       1.0000 0.04430  0.51340  0.69290  Biso   1.000  H
  H4       1.0000 0.95570  0.48660  0.30710  Biso   1.000  H
  H5       1.0000 0.99980  0.45480  0.61370  Biso   1.000  H
  H6       1.0000 0.00020  0.54520  0.38630  Biso   1.000  H
  H7       1.0000 0.42780  0.23050  0.39100  Biso   1.000  H
  H8       1.0000 0.57220  0.76950  0.60900  Biso   1.000  H
  H9       1.0000 0.81640  0.46850  0.07520  Biso   1.000  H
  H10      1.0000 0.18360  0.53150  0.92480  Biso   1.000  H
  H11      1.0000 0.94500  0.47750  0.08630  Biso   1.000  H
  H12      1.0000 0.05500  0.52250  0.91370  Biso   1.000  H
  H13      1.0000 0.81640  0.47210  0.19660  Biso   1.000  H
  H14      1.0000 0.18360  0.52790  0.80340  Biso   1.000  H
  H15      1.0000 0.94580  0.30690  0.93470  Biso   1.000  H
  H16      1.0000 0.05420  0.69310  0.06530  Biso   1.000  H
  H17      1.0000 0.01990  0.20500  0.97080  Biso   1.000  H
  H18      1.0000 0.98010  0.79500  0.02920  Biso   1.000  H
  H19      1.0000 0.07530  0.31010  0.94730  Biso   1.000  H
  H20      1.0000 0.92470  0.68990  0.05270  Biso   1.000  H
  H21      1.0000 0.07330  0.32350  0.13720  Biso   1.000  H
  H22      1.0000 0.92670  0.67650  0.86280  Biso   1.000  H
  H23      1.0000 0.03120  0.21230  0.15250  Biso   1.000  H
  H24      1.0000 0.96880  0.78770  0.84750  Biso   1.000  H
  H25      1.0000 0.94740  0.31160  0.24670  Biso   1.000  H
  H26      1.0000 0.05260  0.68840  0.75330  Biso   1.000  H
  H27      1.0000 0.60550  0.17110  0.51190  Biso   1.000  H
  H28      1.0000 0.39450  0.82890  0.48810  Biso   1.000  H
  H29      1.0000 0.63940  0.05050  0.53960  Biso   1.000  H
  H30      1.0000 0.36060  0.94950  0.46040  Biso   1.000  H
  H31      1.0000 0.54000  0.08460  0.48470  Biso   1.000  H
  H32      1.0000 0.46000  0.91540  0.51530  Biso   1.000  H
  H33      1.0000 0.93050  0.06780  0.29870  Biso   1.000  H
  H34      1.0000 0.06950  0.93220  0.70130  Biso   1.000  H
  H35      1.0000 0.87630  0.04340  0.42780  Biso   1.000  H
  H36      1.0000 0.12370  0.95660  0.57220  Biso   1.000  H
  H37      1.0000 0.84250  0.16280  0.39730  Biso   1.000  H
  H38      1.0000 0.15750  0.83720  0.60270  Biso   1.000  H
  H39      1.0000 0.83220  0.93050  0.25510  Biso   1.000  H
  H40      1.0000 0.16780  0.06950  0.74490  Biso   1.000  H
  H41      1.0000 0.68080  0.93450  0.32640  Biso   1.000  H
  H42      1.0000 0.31920  0.06550  0.67360  Biso   1.000  H
  H43      1.0000 0.77830  0.90410  0.38360  Biso   1.000  H
  H44      1.0000 0.22170  0.09590  0.61640  Biso   1.000  H
  H45      1.0000 0.66210  0.94580  0.07020  Biso   1.000  H
  H46      1.0000 0.33790  0.05420  0.92980  Biso   1.000  H
  H47      1.0000 0.81400  0.94360  0.01520  Biso   1.000  H
  H48      1.0000 0.18600  0.05640  0.98480  Biso   1.000  H
  H49      1.0000 0.74700  0.92140  0.93650  Biso   1.000  H
  H50      1.0000 0.25300  0.07860  0.06350  Biso   1.000  H
  H51      1.0000 0.79160  0.18630  0.87960  Biso   1.000  H
  H52      1.0000 0.20840  0.81370  0.12040  Biso   1.000  H
  H53      1.0000 0.82400  0.06880  0.81960  Biso   1.000  H
  H54      1.0000 0.17600  0.93120  0.18040  Biso   1.000  H
  H55      1.0000 0.89440  0.09140  0.89530  Biso   1.000  H
  H56      1.0000 0.10560  0.90860  0.10470  Biso   1.000  H
  H57      1.0000 0.55830  0.18610  0.96420  Biso   1.000  H
  H58      1.0000 0.44170  0.81390  0.03580  Biso   1.000  H
  H59      1.0000 0.50650  0.09370  0.03900  Biso   1.000  H
  H60      1.0000 0.49350  0.90630  0.96100  Biso   1.000  H
  H61      1.0000 0.59340  0.06750  0.90570  Biso   1.000  H
  H62      1.0000 0.40660  0.93250  0.09430  Biso   1.000  H
  H63      1.0000 0.28130  0.10270  0.37180  Biso   1.000  H
  H64      1.0000 0.71870  0.89730  0.62820  Biso   1.000  H
  H65      1.0000 0.34650  0.09370  0.23690  Biso   1.000  H
  H66      1.0000 0.65350  0.90630  0.76310  Biso   1.000  H
  H67      1.0000 0.19470  0.14820  0.30740  Biso   1.000  H
  H68      1.0000 0.80530  0.85180  0.69260  Biso   1.000  H
  H69      1.0000 0.33250  0.37050  0.20650  Biso   1.000  H
  H70      1.0000 0.66750  0.62950  0.79350  Biso   1.000  H
  H71      1.0000 0.22630  0.31030  0.20660  Biso   1.000  H
  H72      1.0000 0.77370  0.68970  0.79340  Biso   1.000  H
  H73      1.0000 0.37820  0.25560  0.13680  Biso   1.000  H
  H74      1.0000 0.62180  0.74440  0.86320  Biso   1.000  H
  H75      1.0000 0.20650  0.28150  0.48200  Biso   1.000  H
  H76      1.0000 0.79350  0.71850  0.51800  Biso   1.000  H
  H77      1.0000 0.12190  0.32260  0.41480  Biso   1.000  H
  H78      1.0000 0.87810  0.67740  0.58520  Biso   1.000  H
  H79      1.0000 0.22390  0.38630  0.41750  Biso   1.000  H
  H80      1.0000 0.77610  0.61370  0.58250  Biso   1.000  H
