data_image0
_cell_length_a       14.9831
_cell_length_b       11.9168
_cell_length_c       17.6151
_cell_angle_alpha    90
_cell_angle_beta     111.911
_cell_angle_gamma    90

_symmetry_space_group_name_H-M    "P 1"
_symmetry_int_tables_number       1

loop_
  _symmetry_equiv_pos_as_xyz
  'x, y, z'

loop_
  _atom_site_label
  _atom_site_occupancy
  _atom_site_fract_x
  _atom_site_fract_y
  _atom_site_fract_z
  _atom_site_thermal_displace_type
  _atom_site_B_iso_or_equiv
  _atom_site_type_symbol
  Cu1      1.0000 0.92659  0.46919  0.10084  Biso   1.000  Cu
  Cu2      1.0000 0.07341  0.96919  0.39916  Biso   1.000  Cu
  Cu3      1.0000 0.07341  0.53081  0.89916  Biso   1.000  Cu
  Cu4      1.0000 0.92659  0.03081  0.60084  Biso   1.000  Cu
  Cu5      1.0000 0.81489  0.34522  0.92747  Biso   1.000  Cu
  Cu6      1.0000 0.18511  0.84522  0.57253  Biso   1.000  Cu
  Cu7      1.0000 0.18511  0.65478  0.07253  Biso   1.000  Cu
  Cu8      1.0000 0.81489  0.15478  0.42747  Biso   1.000  Cu
  Cu9      1.0000 0.03643  0.30816  0.02819  Biso   1.000  Cu
  Cu10     1.0000 0.96357  0.80816  0.47181  Biso   1.000  Cu
  Cu11     1.0000 0.96357  0.69184  0.97181  Biso   1.000  Cu
  Cu12     1.0000 0.03643  0.19184  0.52819  Biso   1.000  Cu
  Cu13     1.0000 0.44861  0.02197  0.04562  Biso   1.000  Cu
  Cu14     1.0000 0.55139  0.52197  0.45438  Biso   1.000  Cu
  Cu15     1.0000 0.55139  0.97803  0.95438  Biso   1.000  Cu
  Cu16     1.0000 0.44861  0.47803  0.54562  Biso   1.000  Cu
  I1       1.0000 0.46954  0.81067  0.00585  Biso   1.000  I
  I2       1.0000 0.53046  0.31067  0.49415  Biso   1.000  I
  I3       1.0000 0.53046  0.18933  0.99415  Biso   1.000  I
  I4       1.0000 0.46954  0.68933  0.50585  Biso   1.000  I
  C1       1.0000 0.25300  0.26880  0.17310  Biso   1.000  C
  C2       1.0000 0.74700  0.76880  0.32690  Biso   1.000  C
  C3       1.0000 0.74700  0.73120  0.82690  Biso   1.000  C
  C4       1.0000 0.25300  0.23120  0.67310  Biso   1.000  C
  H1       1.0000 0.21470  0.20180  0.16260  Biso   1.000  H
  H2       1.0000 0.78530  0.70180  0.33740  Biso   1.000  H
  H3       1.0000 0.78530  0.79820  0.83740  Biso   1.000  H
  H4       1.0000 0.21470  0.29820  0.66260  Biso   1.000  H
  H5       1.0000 0.30760  0.26030  0.22330  Biso   1.000  H
  H6       1.0000 0.69240  0.76030  0.27670  Biso   1.000  H
  H7       1.0000 0.69240  0.73970  0.77670  Biso   1.000  H
  H8       1.0000 0.30760  0.23970  0.72330  Biso   1.000  H
  H9       1.0000 0.27470  0.28140  0.12900  Biso   1.000  H
  H10      1.0000 0.72530  0.78140  0.37100  Biso   1.000  H
  H11      1.0000 0.72530  0.71860  0.87100  Biso   1.000  H
  H12      1.0000 0.27470  0.21860  0.62900  Biso   1.000  H
  C5       1.0000 0.19390  0.36670  0.18000  Biso   1.000  C
  C6       1.0000 0.80610  0.86670  0.32000  Biso   1.000  C
  C7       1.0000 0.80610  0.63330  0.82000  Biso   1.000  C
  C8       1.0000 0.19390  0.13330  0.68000  Biso   1.000  C
  C9       1.0000 0.21380  0.44920  0.23860  Biso   1.000  C
  C10      1.0000 0.78620  0.94920  0.26140  Biso   1.000  C
  C11      1.0000 0.78620  0.55080  0.76140  Biso   1.000  C
  C12      1.0000 0.21380  0.05080  0.73860  Biso   1.000  C
  H13      1.0000 0.27020  0.45810  0.28420  Biso   1.000  H
  H14      1.0000 0.72980  0.95810  0.21580  Biso   1.000  H
  H15      1.0000 0.72980  0.54190  0.71580  Biso   1.000  H
  H16      1.0000 0.27020  0.04190  0.78420  Biso   1.000  H
  C13      1.0000 0.13260  0.51640  0.21580  Biso   1.000  C
  C14      1.0000 0.86740  0.01640  0.28420  Biso   1.000  C
  C15      1.0000 0.86740  0.48360  0.78420  Biso   1.000  C
  C16      1.0000 0.13260  0.98360  0.71580  Biso   1.000  C
  C17      1.0000 0.11620  0.61800  0.25500  Biso   1.000  C
  C18      1.0000 0.88380  0.11800  0.24500  Biso   1.000  C
  C19      1.0000 0.88380  0.38200  0.74500  Biso   1.000  C
  C20      1.0000 0.11620  0.88200  0.75500  Biso   1.000  C
  C21      1.0000 0.19290  0.67170  0.31510  Biso   1.000  C
  C22      1.0000 0.80710  0.17170  0.18490  Biso   1.000  C
  C23      1.0000 0.80710  0.32830  0.68490  Biso   1.000  C
  C24      1.0000 0.19290  0.82830  0.81510  Biso   1.000  C
  H17      1.0000 0.25480  0.64290  0.33020  Biso   1.000  H
  H18      1.0000 0.74520  0.14290  0.16980  Biso   1.000  H
  H19      1.0000 0.74520  0.35710  0.66980  Biso   1.000  H
  H20      1.0000 0.25480  0.85710  0.83020  Biso   1.000  H
  C25      1.0000 0.17700  0.76730  0.35210  Biso   1.000  C
  C26      1.0000 0.82300  0.26730  0.14790  Biso   1.000  C
  C27      1.0000 0.82300  0.23270  0.64790  Biso   1.000  C
  C28      1.0000 0.17700  0.73270  0.85210  Biso   1.000  C
  H21      1.0000 0.22950  0.80070  0.39250  Biso   1.000  H
  H22      1.0000 0.77050  0.30070  0.10750  Biso   1.000  H
  H23      1.0000 0.77050  0.19930  0.60750  Biso   1.000  H
  H24      1.0000 0.22950  0.69930  0.89250  Biso   1.000  H
  C29      1.0000 0.01730  0.76400  0.27460  Biso   1.000  C
  C30      1.0000 0.98270  0.26400  0.22540  Biso   1.000  C
  C31      1.0000 0.98270  0.23600  0.72540  Biso   1.000  C
  C32      1.0000 0.01730  0.73600  0.77460  Biso   1.000  C
  H25      1.0000 0.95640  0.79580  0.25960  Biso   1.000  H
  H26      1.0000 0.04360  0.29580  0.24040  Biso   1.000  H
  H27      1.0000 0.04360  0.20420  0.74040  Biso   1.000  H
  H28      1.0000 0.95640  0.70420  0.75960  Biso   1.000  H
  C33      1.0000 0.02690  0.66830  0.23570  Biso   1.000  C
  C34      1.0000 0.97310  0.16830  0.26430  Biso   1.000  C
  C35      1.0000 0.97310  0.33170  0.76430  Biso   1.000  C
  C36      1.0000 0.02690  0.83170  0.73570  Biso   1.000  C
  H29      1.0000 0.97310  0.63650  0.19580  Biso   1.000  H
  H30      1.0000 0.02690  0.13650  0.30420  Biso   1.000  H
  H31      1.0000 0.02690  0.36350  0.80420  Biso   1.000  H
  H32      1.0000 0.97310  0.86350  0.69580  Biso   1.000  H
  C37      1.0000 0.74580  0.59990  0.14100  Biso   1.000  C
  C38      1.0000 0.25420  0.09990  0.35900  Biso   1.000  C
  C39      1.0000 0.25420  0.40010  0.85900  Biso   1.000  C
  C40      1.0000 0.74580  0.90010  0.64100  Biso   1.000  C
  H33      1.0000 0.79420  0.55530  0.18090  Biso   1.000  H
  H34      1.0000 0.20580  0.05530  0.31910  Biso   1.000  H
  H35      1.0000 0.20580  0.44470  0.81910  Biso   1.000  H
  H36      1.0000 0.79420  0.94470  0.68090  Biso   1.000  H
  H37      1.0000 0.68800  0.59900  0.15260  Biso   1.000  H
  H38      1.0000 0.31200  0.09900  0.34740  Biso   1.000  H
  H39      1.0000 0.31200  0.40100  0.84740  Biso   1.000  H
  H40      1.0000 0.68800  0.90100  0.65260  Biso   1.000  H
  H41      1.0000 0.76830  0.67570  0.14320  Biso   1.000  H
  H42      1.0000 0.23170  0.17570  0.35680  Biso   1.000  H
  H43      1.0000 0.23170  0.32430  0.85680  Biso   1.000  H
  H44      1.0000 0.76830  0.82430  0.64320  Biso   1.000  H
  C41      1.0000 0.72520  0.55280  0.05780  Biso   1.000  C
  C42      1.0000 0.27480  0.05280  0.44220  Biso   1.000  C
  C43      1.0000 0.27480  0.44720  0.94220  Biso   1.000  C
  C44      1.0000 0.72520  0.94720  0.55780  Biso   1.000  C
  C45      1.0000 0.64160  0.55520  0.98930  Biso   1.000  C
  C46      1.0000 0.35840  0.05520  0.51070  Biso   1.000  C
  C47      1.0000 0.35840  0.44480  0.01070  Biso   1.000  C
  C48      1.0000 0.64160  0.94480  0.48930  Biso   1.000  C
  H45      1.0000 0.58400  0.58990  0.98420  Biso   1.000  H
  H46      1.0000 0.41600  0.08990  0.51580  Biso   1.000  H
  H47      1.0000 0.41600  0.41010  0.01580  Biso   1.000  H
  H48      1.0000 0.58400  0.91010  0.48420  Biso   1.000  H
  C49      1.0000 0.66080  0.49600  0.93010  Biso   1.000  C
  C50      1.0000 0.33920  0.99600  0.56990  Biso   1.000  C
  C51      1.0000 0.33920  0.50400  0.06990  Biso   1.000  C
  C52      1.0000 0.66080  0.00400  0.43010  Biso   1.000  C
  C53      1.0000 0.60110  0.48150  0.84290  Biso   1.000  C
  C54      1.0000 0.39890  0.98150  0.65710  Biso   1.000  C
  C55      1.0000 0.39890  0.51850  0.15710  Biso   1.000  C
  C56      1.0000 0.60110  0.01850  0.34290  Biso   1.000  C
  C57      1.0000 0.54400  0.56820  0.79930  Biso   1.000  C
  C58      1.0000 0.45600  0.06820  0.70070  Biso   1.000  C
  C59      1.0000 0.45600  0.43180  0.20070  Biso   1.000  C
  C60      1.0000 0.54400  0.93180  0.29930  Biso   1.000  C
  H49      1.0000 0.53500  0.63130  0.82680  Biso   1.000  H
  H50      1.0000 0.46500  0.13130  0.67320  Biso   1.000  H
  H51      1.0000 0.46500  0.36870  0.17320  Biso   1.000  H
  H52      1.0000 0.53500  0.86870  0.32680  Biso   1.000  H
  C61      1.0000 0.50030  0.56230  0.71560  Biso   1.000  C
  C62      1.0000 0.49970  0.06230  0.78440  Biso   1.000  C
  C63      1.0000 0.49970  0.43770  0.28440  Biso   1.000  C
  C64      1.0000 0.50030  0.93770  0.21560  Biso   1.000  C
  H53      1.0000 0.46520  0.62400  0.68770  Biso   1.000  H
  H54      1.0000 0.53480  0.12400  0.81230  Biso   1.000  H
  H55      1.0000 0.53480  0.37600  0.31230  Biso   1.000  H
  H56      1.0000 0.46520  0.87600  0.18770  Biso   1.000  H
  C65      1.0000 0.55560  0.38410  0.71530  Biso   1.000  C
  C66      1.0000 0.44440  0.88410  0.78470  Biso   1.000  C
  C67      1.0000 0.44440  0.61590  0.28470  Biso   1.000  C
  C68      1.0000 0.55560  0.11590  0.21530  Biso   1.000  C
  H57      1.0000 0.55790  0.31870  0.68730  Biso   1.000  H
  H58      1.0000 0.44210  0.81870  0.81270  Biso   1.000  H
  H59      1.0000 0.44210  0.68130  0.31270  Biso   1.000  H
  H60      1.0000 0.55790  0.18130  0.18730  Biso   1.000  H
  C69      1.0000 0.60310  0.38620  0.79840  Biso   1.000  C
  C70      1.0000 0.39690  0.88620  0.70160  Biso   1.000  C
  C71      1.0000 0.39690  0.61380  0.20160  Biso   1.000  C
  C72      1.0000 0.60310  0.11380  0.29840  Biso   1.000  C
  H61      1.0000 0.63710  0.32330  0.82520  Biso   1.000  H
  H62      1.0000 0.36290  0.82330  0.67480  Biso   1.000  H
  H63      1.0000 0.36290  0.67670  0.17480  Biso   1.000  H
  H64      1.0000 0.63710  0.17670  0.32520  Biso   1.000  H
  C73      1.0000 0.74010  0.10690  0.80990  Biso   1.000  C
  C74      1.0000 0.25990  0.60690  0.69010  Biso   1.000  C
  C75      1.0000 0.25990  0.89310  0.19010  Biso   1.000  C
  C76      1.0000 0.74010  0.39310  0.30990  Biso   1.000  C
  H65      1.0000 0.70270  0.14180  0.83730  Biso   1.000  H
  H66      1.0000 0.29730  0.64180  0.66270  Biso   1.000  H
  H67      1.0000 0.29730  0.85820  0.16270  Biso   1.000  H
  H68      1.0000 0.70270  0.35820  0.33730  Biso   1.000  H
  H69      1.0000 0.72840  0.02750  0.80630  Biso   1.000  H
  H70      1.0000 0.27160  0.52750  0.69370  Biso   1.000  H
  H71      1.0000 0.27160  0.97250  0.19370  Biso   1.000  H
  H72      1.0000 0.72840  0.47250  0.30630  Biso   1.000  H
  H73      1.0000 0.72230  0.13760  0.75590  Biso   1.000  H
  H74      1.0000 0.27770  0.63760  0.74410  Biso   1.000  H
  H75      1.0000 0.27770  0.86240  0.24410  Biso   1.000  H
  H76      1.0000 0.72230  0.36240  0.25590  Biso   1.000  H
  C77      1.0000 0.84420  0.12830  0.85700  Biso   1.000  C
  C78      1.0000 0.15580  0.62830  0.64300  Biso   1.000  C
  C79      1.0000 0.15580  0.87170  0.14300  Biso   1.000  C
  C80      1.0000 0.84420  0.37170  0.35700  Biso   1.000  C
  C81      1.0000 0.92310  0.06200  0.86370  Biso   1.000  C
  C82      1.0000 0.07690  0.56200  0.63630  Biso   1.000  C
  C83      1.0000 0.07690  0.93800  0.13630  Biso   1.000  C
  C84      1.0000 0.92310  0.43800  0.36370  Biso   1.000  C
  H77      1.0000 0.92300  0.99360  0.83840  Biso   1.000  H
  H78      1.0000 0.07700  0.49360  0.66160  Biso   1.000  H
  H79      1.0000 0.07700  0.00640  0.16160  Biso   1.000  H
  H80      1.0000 0.92300  0.50640  0.33840  Biso   1.000  H
  C85      1.0000 0.00220  0.12030  0.91660  Biso   1.000  C
  C86      1.0000 0.99780  0.62030  0.58340  Biso   1.000  C
  C87      1.0000 0.99780  0.87970  0.08340  Biso   1.000  C
  C88      1.0000 0.00220  0.37970  0.41660  Biso   1.000  C
  C89      1.0000 0.10550  0.09400  0.94480  Biso   1.000  C
  C90      1.0000 0.89450  0.59400  0.55520  Biso   1.000  C
  C91      1.0000 0.89450  0.90600  0.05520  Biso   1.000  C
  C92      1.0000 0.10550  0.40600  0.44480  Biso   1.000  C
  C93      1.0000 0.17290  0.17860  0.95790  Biso   1.000  C
  C94      1.0000 0.82710  0.67860  0.54210  Biso   1.000  C
  C95      1.0000 0.82710  0.82140  0.04210  Biso   1.000  C
  C96      1.0000 0.17290  0.32140  0.45790  Biso   1.000  C
  H81      1.0000 0.15300  0.25300  0.94840  Biso   1.000  H
  H82      1.0000 0.84700  0.75300  0.55160  Biso   1.000  H
  H83      1.0000 0.84700  0.74700  0.05160  Biso   1.000  H
  H84      1.0000 0.15300  0.24700  0.44840  Biso   1.000  H
  C97      1.0000 0.26980  0.15250  0.98500  Biso   1.000  C
  C98      1.0000 0.73020  0.65250  0.51500  Biso   1.000  C
  C99      1.0000 0.73020  0.84750  0.01500  Biso   1.000  C
  C100     1.0000 0.26980  0.34750  0.48500  Biso   1.000  C
  H85      1.0000 0.31370  0.21080  0.99330  Biso   1.000  H
  H86      1.0000 0.68630  0.71080  0.50670  Biso   1.000  H
  H87      1.0000 0.68630  0.78920  0.00670  Biso   1.000  H
  H88      1.0000 0.31370  0.28920  0.49330  Biso   1.000  H
  C101     1.0000 0.23770  0.96670  0.98660  Biso   1.000  C
  C102     1.0000 0.76230  0.46670  0.51340  Biso   1.000  C
  C103     1.0000 0.76230  0.03330  0.01340  Biso   1.000  C
  C104     1.0000 0.23770  0.53330  0.48660  Biso   1.000  C
  H89      1.0000 0.25950  0.89310  0.99670  Biso   1.000  H
  H90      1.0000 0.74050  0.39310  0.50330  Biso   1.000  H
  H91      1.0000 0.74050  0.10690  0.00330  Biso   1.000  H
  H92      1.0000 0.25950  0.60690  0.49670  Biso   1.000  H
  C105     1.0000 0.13980  0.98560  0.95910  Biso   1.000  C
  C106     1.0000 0.86020  0.48560  0.54090  Biso   1.000  C
  C107     1.0000 0.86020  0.01440  0.04090  Biso   1.000  C
  C108     1.0000 0.13980  0.51440  0.45910  Biso   1.000  C
  H93      1.0000 0.09730  0.92570  0.95020  Biso   1.000  H
  H94      1.0000 0.90270  0.42570  0.54980  Biso   1.000  H
  H95      1.0000 0.90270  0.07430  0.04980  Biso   1.000  H
  H96      1.0000 0.09730  0.57430  0.45020  Biso   1.000  H
  N1       1.0000 0.10430  0.38340  0.12409  Biso   1.000  N
  N2       1.0000 0.89570  0.88340  0.37591  Biso   1.000  N
  N3       1.0000 0.89570  0.61660  0.87591  Biso   1.000  N
  N4       1.0000 0.10430  0.11660  0.62409  Biso   1.000  N
  N5       1.0000 0.06490  0.47540  0.14578  Biso   1.000  N
  N6       1.0000 0.93510  0.97540  0.35422  Biso   1.000  N
  N7       1.0000 0.93510  0.52460  0.85422  Biso   1.000  N
  N8       1.0000 0.06490  0.02460  0.64578  Biso   1.000  N
  N9       1.0000 0.09140  0.81460  0.33360  Biso   1.000  N
  N10      1.0000 0.90860  0.31460  0.16640  Biso   1.000  N
  N11      1.0000 0.90860  0.18540  0.66640  Biso   1.000  N
  N12      1.0000 0.09140  0.68540  0.83360  Biso   1.000  N
  N13      1.0000 0.79320  0.49640  0.03999  Biso   1.000  N
  N14      1.0000 0.20680  0.99640  0.46001  Biso   1.000  N
  N15      1.0000 0.20680  0.50360  0.96001  Biso   1.000  N
  N16      1.0000 0.79320  0.00360  0.53999  Biso   1.000  N
  N17      1.0000 0.75290  0.45900  0.96054  Biso   1.000  N
  N18      1.0000 0.24710  0.95900  0.53946  Biso   1.000  N
  N19      1.0000 0.24710  0.54100  0.03946  Biso   1.000  N
  N20      1.0000 0.75290  0.04100  0.46054  Biso   1.000  N
  N21      1.0000 0.50570  0.47190  0.67200  Biso   1.000  N
  N22      1.0000 0.49430  0.97190  0.82800  Biso   1.000  N
  N23      1.0000 0.49430  0.52810  0.32800  Biso   1.000  N
  N24      1.0000 0.50570  0.02810  0.17200  Biso   1.000  N
  N25      1.0000 0.87418  0.22030  0.90310  Biso   1.000  N
  N26      1.0000 0.12582  0.72030  0.59690  Biso   1.000  N
  N27      1.0000 0.12582  0.77970  0.09690  Biso   1.000  N
  N28      1.0000 0.87418  0.27970  0.40310  Biso   1.000  N
  N29      1.0000 0.97229  0.21550  0.94012  Biso   1.000  N
  N30      1.0000 0.02771  0.71550  0.55988  Biso   1.000  N
  N31      1.0000 0.02771  0.78450  0.05988  Biso   1.000  N
  N32      1.0000 0.97229  0.28450  0.44012  Biso   1.000  N
  N33      1.0000 0.30294  0.04870  0.99968  Biso   1.000  N
  N34      1.0000 0.69706  0.54870  0.50032  Biso   1.000  N
  N35      1.0000 0.69706  0.95130  0.00032  Biso   1.000  N
  N36      1.0000 0.30294  0.45130  0.49968  Biso   1.000  N
