data_image0
_cell_length_a       10.2701
_cell_length_b       12.4618
_cell_length_c       12.9189
_cell_angle_alpha    106.076
_cell_angle_beta     107.466
_cell_angle_gamma    100.158

_symmetry_space_group_name_H-M    "P 1"
_symmetry_int_tables_number       1

loop_
  _symmetry_equiv_pos_as_xyz
  'x, y, z'

loop_
  _atom_site_label
  _atom_site_occupancy
  _atom_site_fract_x
  _atom_site_fract_y
  _atom_site_fract_z
  _atom_site_thermal_displace_type
  _atom_site_B_iso_or_equiv
  _atom_site_type_symbol
  Cu1      1.0000 0.05035  0.70592  0.25778  Biso   1.000  Cu
  Cu2      1.0000 0.94965  0.29408  0.74222  Biso   1.000  Cu
  Cu3      1.0000 0.96878  0.76070  0.46975  Biso   1.000  Cu
  Cu4      1.0000 0.03122  0.23930  0.53025  Biso   1.000  Cu
  Cu5      1.0000 0.83435  0.85040  0.26874  Biso   1.000  Cu
  Cu6      1.0000 0.16565  0.14960  0.73126  Biso   1.000  Cu
  Cu7      1.0000 0.59239  0.63976  0.02565  Biso   1.000  Cu
  Cu8      1.0000 0.40761  0.36024  0.97435  Biso   1.000  Cu
  N1       1.0000 0.02190  0.79400  0.16130  Biso   1.000  N
  N2       1.0000 0.97810  0.20600  0.83870  Biso   1.000  N
  N3       1.0000 0.90490  0.83620  0.14780  Biso   1.000  N
  N4       1.0000 0.09510  0.16380  0.85220  Biso   1.000  N
  N5       1.0000 0.11150  0.62820  0.36000  Biso   1.000  N
  N6       1.0000 0.88850  0.37180  0.64000  Biso   1.000  N
  N7       1.0000 0.80080  0.90450  0.40700  Biso   1.000  N
  N8       1.0000 0.19920  0.09550  0.59300  Biso   1.000  N
  C1       1.0000 0.98440  0.85400  0.01030  Biso   1.000  C
  C2       1.0000 0.01560  0.14600  0.98970  Biso   1.000  C
  H1       1.0000 0.99330  0.87030  0.94630  Biso   1.000  H
  H2       1.0000 0.00670  0.12970  0.05370  Biso   1.000  H
  N9       1.0000 0.08670  0.66400  0.46080  Biso   1.000  N
  N10      1.0000 0.91330  0.33600  0.53920  Biso   1.000  N
  C3       1.0000 0.19900  0.77390  0.07060  Biso   1.000  C
  C4       1.0000 0.80100  0.22610  0.92940  Biso   1.000  C
  N11      1.0000 0.44180  0.70940  0.05070  Biso   1.000  N
  N12      1.0000 0.55820  0.29060  0.94930  Biso   1.000  N
  N13      1.0000 0.85910  0.86320  0.49080  Biso   1.000  N
  N14      1.0000 0.14090  0.13680  0.50920  Biso   1.000  N
  C5       1.0000 0.65420  0.03940  0.38050  Biso   1.000  C
  C6       1.0000 0.34580  0.96060  0.61950  Biso   1.000  C
  C7       1.0000 0.41820  0.73080  0.14900  Biso   1.000  C
  C8       1.0000 0.58180  0.26920  0.85100  Biso   1.000  C
  H3       1.0000 0.48410  0.72340  0.21220  Biso   1.000  H
  H4       1.0000 0.51590  0.27660  0.78780  Biso   1.000  H
  C9       1.0000 0.18880  0.55130  0.36880  Biso   1.000  C
  C10      1.0000 0.81120  0.44870  0.63120  Biso   1.000  C
  C11      1.0000 0.34710  0.72420  0.96420  Biso   1.000  C
  C12      1.0000 0.65290  0.27580  0.03580  Biso   1.000  C
  H5       1.0000 0.36300  0.71290  0.89530  Biso   1.000  H
  H6       1.0000 0.63700  0.28710  0.10470  Biso   1.000  H
  C13      1.0000 0.22790  0.75500  0.96980  Biso   1.000  C
  C14      1.0000 0.77210  0.24500  0.03020  Biso   1.000  C
  H7       1.0000 0.16540  0.76340  0.90550  Biso   1.000  H
  H8       1.0000 0.83460  0.23660  0.09450  Biso   1.000  H
  C15      1.0000 0.88400  0.87220  0.05530  Biso   1.000  C
  C16      1.0000 0.11600  0.12780  0.94470  Biso   1.000  C
  C17      1.0000 0.16250  0.48910  0.16210  Biso   1.000  C
  C18      1.0000 0.83750  0.51090  0.83790  Biso   1.000  C
  H9       1.0000 0.08140  0.51440  0.14400  Biso   1.000  H
  H10      1.0000 0.91860  0.48560  0.85600  Biso   1.000  H
  C19      1.0000 0.21650  0.54080  0.47600  Biso   1.000  C
  C20      1.0000 0.78350  0.45920  0.52400  Biso   1.000  C
  H11      1.0000 0.26920  0.49500  0.50520  Biso   1.000  H
  H12      1.0000 0.73080  0.50500  0.49480  Biso   1.000  H
  C21      1.0000 0.07210  0.80630  0.07820  Biso   1.000  C
  C22      1.0000 0.92790  0.19370  0.92180  Biso   1.000  C
  C23      1.0000 0.30040  0.76360  0.16200  Biso   1.000  C
  C24      1.0000 0.69960  0.23640  0.83800  Biso   1.000  C
  H13      1.0000 0.28990  0.77880  0.23330  Biso   1.000  H
  H14      1.0000 0.71010  0.22120  0.76670  Biso   1.000  H
  C25      1.0000 0.15030  0.61220  0.53210  Biso   1.000  C
  C26      1.0000 0.84970  0.38780  0.46790  Biso   1.000  C
  C27      1.0000 0.14400  0.63750  0.65000  Biso   1.000  C
  C28      1.0000 0.85600  0.36250  0.35000  Biso   1.000  C
  H15      1.0000 0.22770  0.69780  0.70550  Biso   1.000  H
  H16      1.0000 0.77230  0.30220  0.29450  Biso   1.000  H
  H17      1.0000 0.13920  0.56840  0.66960  Biso   1.000  H
  H18      1.0000 0.86080  0.43160  0.33040  Biso   1.000  H
  H19      1.0000 0.06110  0.66270  0.65080  Biso   1.000  H
  H20      1.0000 0.93890  0.33730  0.34920  Biso   1.000  H
  C29      1.0000 0.74940  0.98540  0.56090  Biso   1.000  C
  C30      1.0000 0.25060  0.01460  0.43910  Biso   1.000  C
  H21      1.0000 0.71430  0.03070  0.61030  Biso   1.000  H
  H22      1.0000 0.28570  0.96930  0.38970  Biso   1.000  H
  C31      1.0000 0.23130  0.49550  0.27300  Biso   1.000  C
  C32      1.0000 0.76870  0.50450  0.72700  Biso   1.000  C
  C33      1.0000 0.76180  0.92090  0.01810  Biso   1.000  C
  C34      1.0000 0.23820  0.07910  0.98190  Biso   1.000  C
  H23      1.0000 0.67530  0.86780  0.00820  Biso   1.000  H
  H24      1.0000 0.32470  0.13220  0.99180  Biso   1.000  H
  H25      1.0000 0.75420  0.93180  0.94600  Biso   1.000  H
  H26      1.0000 0.24580  0.06820  0.05400  Biso   1.000  H
  H27      1.0000 0.77760  0.99440  0.07610  Biso   1.000  H
  H28      1.0000 0.22240  0.00560  0.92390  Biso   1.000  H
  I1       1.0000 0.72383  0.59156  0.20821  Biso   1.000  I
  I2       1.0000 0.27617  0.40844  0.79179  Biso   1.000  I
  C35      1.0000 0.73280  0.98020  0.44920  Biso   1.000  C
  C36      1.0000 0.26720  0.01980  0.55080  Biso   1.000  C
  C37      1.0000 0.34340  0.44630  0.29180  Biso   1.000  C
  C38      1.0000 0.65660  0.55370  0.70820  Biso   1.000  C
  H29      1.0000 0.38950  0.44390  0.36470  Biso   1.000  H
  H30      1.0000 0.61050  0.55610  0.63530  Biso   1.000  H
  C39      1.0000 0.21450  0.44450  0.07580  Biso   1.000  C
  C40      1.0000 0.78550  0.55550  0.92420  Biso   1.000  C
  H31      1.0000 0.16900  0.44470  0.00180  Biso   1.000  H
  H32      1.0000 0.83100  0.55530  0.99820  Biso   1.000  H
  C41      1.0000 0.82910  0.90950  0.58510  Biso   1.000  C
  C42      1.0000 0.17090  0.09050  0.41490  Biso   1.000  C
  C43      1.0000 0.38560  0.40120  0.20160  Biso   1.000  C
  C44      1.0000 0.61440  0.59880  0.79840  Biso   1.000  C
  H33      1.0000 0.46040  0.36810  0.21610  Biso   1.000  H
  H34      1.0000 0.53960  0.63190  0.78390  Biso   1.000  H
  N15      1.0000 0.50520  0.16040  0.25180  Biso   1.000  N
  N16      1.0000 0.49480  0.83960  0.74820  Biso   1.000  N
  C45      1.0000 0.62920  0.01600  0.26490  Biso   1.000  C
  C46      1.0000 0.37080  0.98400  0.73510  Biso   1.000  C
  H35      1.0000 0.66230  0.95890  0.22600  Biso   1.000  H
  H36      1.0000 0.33770  0.04110  0.77400  Biso   1.000  H
  C47      1.0000 0.87690  0.87810  0.68990  Biso   1.000  C
  C48      1.0000 0.12310  0.12190  0.31010  Biso   1.000  C
  H37      1.0000 0.83080  0.79760  0.67160  Biso   1.000  H
  H38      1.0000 0.16920  0.20240  0.32840  Biso   1.000  H
  H39      1.0000 0.85280  0.92560  0.74970  Biso   1.000  H
  H40      1.0000 0.14720  0.07440  0.25030  Biso   1.000  H
  H41      1.0000 0.97820  0.89080  0.71630  Biso   1.000  H
  H42      1.0000 0.02180  0.10920  0.28370  Biso   1.000  H
  C49      1.0000 0.60030  0.12570  0.43030  Biso   1.000  C
  C50      1.0000 0.39970  0.87430  0.56970  Biso   1.000  C
  H43      1.0000 0.61210  0.14670  0.50820  Biso   1.000  H
  H44      1.0000 0.38790  0.85330  0.49180  Biso   1.000  H
  C51      1.0000 0.52660  0.18140  0.35920  Biso   1.000  C
  C52      1.0000 0.47340  0.81860  0.64080  Biso   1.000  C
  H45      1.0000 0.49040  0.23860  0.39400  Biso   1.000  H
  H46      1.0000 0.50960  0.76140  0.60600  Biso   1.000  H
  C53      1.0000 0.55490  0.07690  0.20570  Biso   1.000  C
  C54      1.0000 0.44510  0.92310  0.79430  Biso   1.000  C
  H47      1.0000 0.53910  0.05710  0.12720  Biso   1.000  H
  H48      1.0000 0.46090  0.94290  0.87280  Biso   1.000  H
  N17      1.0000 0.32640  0.40160  0.09440  Biso   1.000  N
  N18      1.0000 0.67360  0.59840  0.90560  Biso   1.000  N
