data_image0
_cell_length_a       9.4792
_cell_length_b       17.81
_cell_length_c       17.326
_cell_angle_alpha    90
_cell_angle_beta     97.412
_cell_angle_gamma    90

_symmetry_space_group_name_H-M    "P 1"
_symmetry_int_tables_number       1

loop_
  _symmetry_equiv_pos_as_xyz
  'x, y, z'

loop_
  _atom_site_label
  _atom_site_occupancy
  _atom_site_fract_x
  _atom_site_fract_y
  _atom_site_fract_z
  _atom_site_thermal_displace_type
  _atom_site_B_iso_or_equiv
  _atom_site_type_symbol
  Cu1      1.0000 0.74531  0.80687  0.14462  Biso   1.000  Cu
  Cu2      1.0000 0.75469  0.30687  0.35538  Biso   1.000  Cu
  Cu3      1.0000 0.25469  0.19313  0.85538  Biso   1.000  Cu
  Cu4      1.0000 0.24531  0.69313  0.64462  Biso   1.000  Cu
  Cu5      1.0000 0.78422  0.87957  0.83306  Biso   1.000  Cu
  Cu6      1.0000 0.71578  0.37957  0.66694  Biso   1.000  Cu
  Cu7      1.0000 0.21578  0.12043  0.16694  Biso   1.000  Cu
  Cu8      1.0000 0.28422  0.62043  0.33306  Biso   1.000  Cu
  C1       1.0000 0.78660  0.97070  0.17460  Biso   1.000  C
  C2       1.0000 0.71340  0.47070  0.32540  Biso   1.000  C
  C3       1.0000 0.21340  0.02930  0.82540  Biso   1.000  C
  C4       1.0000 0.28660  0.52930  0.67460  Biso   1.000  C
  C5       1.0000 0.70400  0.91400  0.26830  Biso   1.000  C
  C6       1.0000 0.79600  0.41400  0.23170  Biso   1.000  C
  C7       1.0000 0.29600  0.08600  0.73170  Biso   1.000  C
  C8       1.0000 0.20400  0.58600  0.76830  Biso   1.000  C
  C9       1.0000 0.72320  0.98880  0.29040  Biso   1.000  C
  C10      1.0000 0.77680  0.48880  0.20960  Biso   1.000  C
  C11      1.0000 0.27680  0.01120  0.70960  Biso   1.000  C
  C12      1.0000 0.22320  0.51120  0.79040  Biso   1.000  C
  C13      1.0000 0.69300  0.01550  0.36120  Biso   1.000  C
  C14      1.0000 0.80700  0.51550  0.13880  Biso   1.000  C
  C15      1.0000 0.30700  0.98450  0.63880  Biso   1.000  C
  C16      1.0000 0.19300  0.48450  0.86120  Biso   1.000  C
  H1       1.0000 0.70930  0.06520  0.37640  Biso   1.000  H
  H2       1.0000 0.79070  0.56520  0.12360  Biso   1.000  H
  H3       1.0000 0.29070  0.93480  0.62360  Biso   1.000  H
  H4       1.0000 0.20930  0.43480  0.87640  Biso   1.000  H
  C17      1.0000 0.63650  0.96310  0.40820  Biso   1.000  C
  C18      1.0000 0.86350  0.46310  0.09180  Biso   1.000  C
  C19      1.0000 0.36350  0.03690  0.59180  Biso   1.000  C
  C20      1.0000 0.13650  0.53690  0.90820  Biso   1.000  C
  H5       1.0000 0.61310  0.97830  0.45630  Biso   1.000  H
  H6       1.0000 0.88690  0.47830  0.04370  Biso   1.000  H
  H7       1.0000 0.38690  0.02170  0.54370  Biso   1.000  H
  H8       1.0000 0.11310  0.52170  0.95630  Biso   1.000  H
  C21      1.0000 0.61410  0.88940  0.38560  Biso   1.000  C
  C22      1.0000 0.88590  0.38940  0.11440  Biso   1.000  C
  C23      1.0000 0.38590  0.11060  0.61440  Biso   1.000  C
  C24      1.0000 0.11410  0.61060  0.88560  Biso   1.000  C
  H9       1.0000 0.57300  0.85670  0.41810  Biso   1.000  H
  H10      1.0000 0.92700  0.35670  0.08190  Biso   1.000  H
  H11      1.0000 0.42700  0.14330  0.58190  Biso   1.000  H
  H12      1.0000 0.07300  0.64330  0.91810  Biso   1.000  H
  C25      1.0000 0.65070  0.86270  0.31630  Biso   1.000  C
  C26      1.0000 0.84930  0.36270  0.18370  Biso   1.000  C
  C27      1.0000 0.34930  0.13730  0.68370  Biso   1.000  C
  C28      1.0000 0.15070  0.63730  0.81630  Biso   1.000  C
  H13      1.0000 0.63990  0.81230  0.30260  Biso   1.000  H
  H14      1.0000 0.86010  0.31230  0.19740  Biso   1.000  H
  H15      1.0000 0.36010  0.18770  0.69740  Biso   1.000  H
  H16      1.0000 0.13990  0.68770  0.80260  Biso   1.000  H
  C29      1.0000 0.83730  0.98690  0.09760  Biso   1.000  C
  C30      1.0000 0.66270  0.48690  0.40240  Biso   1.000  C
  C31      1.0000 0.16270  0.01310  0.90240  Biso   1.000  C
  C32      1.0000 0.33730  0.51310  0.59760  Biso   1.000  C
  H17      1.0000 0.89160  0.94420  0.08280  Biso   1.000  H
  H18      1.0000 0.60840  0.44420  0.41720  Biso   1.000  H
  H19      1.0000 0.10840  0.05580  0.91720  Biso   1.000  H
  H20      1.0000 0.39160  0.55580  0.58280  Biso   1.000  H
  H21      1.0000 0.90030  0.03000  0.10330  Biso   1.000  H
  H22      1.0000 0.59970  0.53000  0.39670  Biso   1.000  H
  H23      1.0000 0.09970  0.97000  0.89670  Biso   1.000  H
  H24      1.0000 0.40030  0.47000  0.60330  Biso   1.000  H
  C33      1.0000 0.71500  0.00270  0.03260  Biso   1.000  C
  C34      1.0000 0.78500  0.50270  0.46740  Biso   1.000  C
  C35      1.0000 0.28500  0.99730  0.96740  Biso   1.000  C
  C36      1.0000 0.21500  0.49730  0.53260  Biso   1.000  C
  H25      1.0000 0.65470  0.95870  0.02430  Biso   1.000  H
  H26      1.0000 0.84530  0.45870  0.47570  Biso   1.000  H
  H27      1.0000 0.34530  0.04130  0.97570  Biso   1.000  H
  H28      1.0000 0.15470  0.54130  0.52430  Biso   1.000  H
  H29      1.0000 0.65770  0.04380  0.04790  Biso   1.000  H
  H30      1.0000 0.84230  0.54380  0.45210  Biso   1.000  H
  H31      1.0000 0.34230  0.95620  0.95210  Biso   1.000  H
  H32      1.0000 0.15770  0.45620  0.54790  Biso   1.000  H
  C37      1.0000 0.77290  0.02260  0.95750  Biso   1.000  C
  C38      1.0000 0.72710  0.52260  0.54250  Biso   1.000  C
  C39      1.0000 0.22710  0.97740  0.04250  Biso   1.000  C
  C40      1.0000 0.27290  0.47740  0.45750  Biso   1.000  C
  H33      1.0000 0.83180  0.98170  0.94320  Biso   1.000  H
  H34      1.0000 0.66820  0.48170  0.55680  Biso   1.000  H
  H35      1.0000 0.16820  0.01830  0.05680  Biso   1.000  H
  H36      1.0000 0.33180  0.51830  0.44320  Biso   1.000  H
  H37      1.0000 0.83250  0.06690  0.96620  Biso   1.000  H
  H38      1.0000 0.66750  0.56690  0.53380  Biso   1.000  H
  H39      1.0000 0.16750  0.93310  0.03380  Biso   1.000  H
  H40      1.0000 0.33250  0.43310  0.46620  Biso   1.000  H
  C41      1.0000 0.65560  0.03790  0.89040  Biso   1.000  C
  C42      1.0000 0.84440  0.53790  0.60960  Biso   1.000  C
  C43      1.0000 0.34440  0.96210  0.10960  Biso   1.000  C
  C44      1.0000 0.15560  0.46210  0.39040  Biso   1.000  C
  H41      1.0000 0.58210  0.00000  0.89070  Biso   1.000  H
  H42      1.0000 0.91790  0.50000  0.60930  Biso   1.000  H
  H43      1.0000 0.41790  0.00000  0.10930  Biso   1.000  H
  H44      1.0000 0.08210  0.50000  0.39070  Biso   1.000  H
  H45      1.0000 0.61300  0.08630  0.89840  Biso   1.000  H
  H46      1.0000 0.88700  0.58630  0.60160  Biso   1.000  H
  H47      1.0000 0.38700  0.91370  0.10160  Biso   1.000  H
  H48      1.0000 0.11300  0.41370  0.39840  Biso   1.000  H
  C45      1.0000 0.70780  0.03750  0.81320  Biso   1.000  C
  C46      1.0000 0.79220  0.53750  0.68680  Biso   1.000  C
  C47      1.0000 0.29220  0.96250  0.18680  Biso   1.000  C
  C48      1.0000 0.20780  0.46250  0.31320  Biso   1.000  C
  C49      1.0000 0.80900  0.00020  0.71210  Biso   1.000  C
  C50      1.0000 0.69100  0.50020  0.78790  Biso   1.000  C
  C51      1.0000 0.19100  0.99980  0.28790  Biso   1.000  C
  C52      1.0000 0.30900  0.49980  0.21210  Biso   1.000  C
  C53      1.0000 0.76970  0.07530  0.69880  Biso   1.000  C
  C54      1.0000 0.73030  0.57530  0.80120  Biso   1.000  C
  C55      1.0000 0.23030  0.92470  0.30120  Biso   1.000  C
  C56      1.0000 0.26970  0.42470  0.19880  Biso   1.000  C
  C57      1.0000 0.79300  0.11260  0.63130  Biso   1.000  C
  C58      1.0000 0.70700  0.61260  0.86870  Biso   1.000  C
  C59      1.0000 0.20700  0.88740  0.36870  Biso   1.000  C
  C60      1.0000 0.29300  0.38740  0.13130  Biso   1.000  C
  H49      1.0000 0.76350  0.16190  0.62190  Biso   1.000  H
  H50      1.0000 0.73650  0.66190  0.87810  Biso   1.000  H
  H51      1.0000 0.23650  0.83810  0.37810  Biso   1.000  H
  H52      1.0000 0.26350  0.33810  0.12190  Biso   1.000  H
  C61      1.0000 0.86120  0.07350  0.57920  Biso   1.000  C
  C62      1.0000 0.63880  0.57350  0.92080  Biso   1.000  C
  C63      1.0000 0.13880  0.92650  0.42080  Biso   1.000  C
  C64      1.0000 0.36120  0.42650  0.07920  Biso   1.000  C
  H53      1.0000 0.88050  0.09720  0.53390  Biso   1.000  H
  H54      1.0000 0.61950  0.59720  0.96610  Biso   1.000  H
  H55      1.0000 0.11950  0.90280  0.46610  Biso   1.000  H
  H56      1.0000 0.38050  0.40280  0.03390  Biso   1.000  H
  C65      1.0000 0.90240  0.99930  0.59210  Biso   1.000  C
  C66      1.0000 0.59760  0.49930  0.90790  Biso   1.000  C
  C67      1.0000 0.09760  0.00070  0.40790  Biso   1.000  C
  C68      1.0000 0.40240  0.50070  0.09210  Biso   1.000  C
  H57      1.0000 0.94840  0.97450  0.55530  Biso   1.000  H
  H58      1.0000 0.55160  0.47450  0.94470  Biso   1.000  H
  H59      1.0000 0.05160  0.02550  0.44470  Biso   1.000  H
  H60      1.0000 0.44840  0.52550  0.05530  Biso   1.000  H
  C69      1.0000 0.87650  0.96180  0.65840  Biso   1.000  C
  C70      1.0000 0.62350  0.46180  0.84160  Biso   1.000  C
  C71      1.0000 0.12350  0.03820  0.34160  Biso   1.000  C
  C72      1.0000 0.37650  0.53820  0.15840  Biso   1.000  C
  H61      1.0000 0.90380  0.91190  0.66660  Biso   1.000  H
  H62      1.0000 0.59620  0.41190  0.83340  Biso   1.000  H
  H63      1.0000 0.09620  0.08810  0.33340  Biso   1.000  H
  H64      1.0000 0.40380  0.58810  0.16660  Biso   1.000  H
  C73      1.0000 0.66950  0.17500  0.78200  Biso   1.000  C
  C74      1.0000 0.83050  0.67500  0.71800  Biso   1.000  C
  C75      1.0000 0.33050  0.82500  0.21800  Biso   1.000  C
  C76      1.0000 0.16950  0.32500  0.28200  Biso   1.000  C
  H65      1.0000 0.58940  0.17550  0.81170  Biso   1.000  H
  H66      1.0000 0.91060  0.67550  0.68830  Biso   1.000  H
  H67      1.0000 0.41060  0.82450  0.18830  Biso   1.000  H
  H68      1.0000 0.08940  0.32450  0.31170  Biso   1.000  H
  H69      1.0000 0.64170  0.20190  0.73370  Biso   1.000  H
  H70      1.0000 0.85830  0.70190  0.76630  Biso   1.000  H
  H71      1.0000 0.35830  0.79810  0.26630  Biso   1.000  H
  H72      1.0000 0.14170  0.29810  0.23370  Biso   1.000  H
  C77      1.0000 0.79440  0.21450  0.82780  Biso   1.000  C
  C78      1.0000 0.70560  0.71450  0.67220  Biso   1.000  C
  C79      1.0000 0.20560  0.78550  0.17220  Biso   1.000  C
  C80      1.0000 0.29440  0.28550  0.32780  Biso   1.000  C
  C81      1.0000 0.77110  0.27670  0.87110  Biso   1.000  C
  C82      1.0000 0.72890  0.77670  0.62890  Biso   1.000  C
  C83      1.0000 0.22890  0.72330  0.12890  Biso   1.000  C
  C84      1.0000 0.27110  0.22330  0.37110  Biso   1.000  C
  H73      1.0000 0.67900  0.29320  0.87420  Biso   1.000  H
  H74      1.0000 0.82100  0.79320  0.62580  Biso   1.000  H
  H75      1.0000 0.32100  0.70680  0.12580  Biso   1.000  H
  H76      1.0000 0.17900  0.20680  0.37420  Biso   1.000  H
  C85      1.0000 0.88560  0.31430  0.90980  Biso   1.000  C
  C86      1.0000 0.61440  0.81430  0.59020  Biso   1.000  C
  C87      1.0000 0.11440  0.68570  0.09020  Biso   1.000  C
  C88      1.0000 0.38560  0.18570  0.40980  Biso   1.000  C
  H77      1.0000 0.87070  0.35720  0.93830  Biso   1.000  H
  H78      1.0000 0.62930  0.85720  0.56170  Biso   1.000  H
  H79      1.0000 0.12930  0.64280  0.06170  Biso   1.000  H
  H80      1.0000 0.37070  0.14280  0.43830  Biso   1.000  H
  C89      1.0000 0.02530  0.28850  0.90690  Biso   1.000  C
  C90      1.0000 0.47470  0.78850  0.59310  Biso   1.000  C
  C91      1.0000 0.97470  0.71150  0.09310  Biso   1.000  C
  C92      1.0000 0.52530  0.21150  0.40690  Biso   1.000  C
  H81      1.0000 0.10170  0.31440  0.93360  Biso   1.000  H
  H82      1.0000 0.39830  0.81440  0.56640  Biso   1.000  H
  H83      1.0000 0.89830  0.68560  0.06640  Biso   1.000  H
  H84      1.0000 0.60170  0.18560  0.43360  Biso   1.000  H
  C93      1.0000 0.93950  0.19330  0.82660  Biso   1.000  C
  C94      1.0000 0.56050  0.69330  0.67340  Biso   1.000  C
  C95      1.0000 0.06050  0.80670  0.17340  Biso   1.000  C
  C96      1.0000 0.43950  0.30670  0.32660  Biso   1.000  C
  H85      1.0000 0.95820  0.15260  0.79580  Biso   1.000  H
  H86      1.0000 0.54180  0.65260  0.70420  Biso   1.000  H
  H87      1.0000 0.04180  0.84740  0.20420  Biso   1.000  H
  H88      1.0000 0.45820  0.34740  0.29580  Biso   1.000  H
  C97      1.0000 0.79930  0.10510  0.22330  Biso   1.000  C
  C98      1.0000 0.70070  0.60510  0.27670  Biso   1.000  C
  C99      1.0000 0.20070  0.89490  0.77670  Biso   1.000  C
  C100     1.0000 0.29930  0.39490  0.72330  Biso   1.000  C
  H89      1.0000 0.88340  0.11400  0.19810  Biso   1.000  H
  H90      1.0000 0.61660  0.61400  0.30190  Biso   1.000  H
  H91      1.0000 0.11660  0.88600  0.80190  Biso   1.000  H
  H92      1.0000 0.38340  0.38600  0.69810  Biso   1.000  H
  H93      1.0000 0.81600  0.12660  0.27510  Biso   1.000  H
  H94      1.0000 0.68400  0.62660  0.22490  Biso   1.000  H
  H95      1.0000 0.18400  0.87340  0.72490  Biso   1.000  H
  H96      1.0000 0.31600  0.37340  0.77510  Biso   1.000  H
  C101     1.0000 0.67350  0.14380  0.17750  Biso   1.000  C
  C102     1.0000 0.82650  0.64380  0.32250  Biso   1.000  C
  C103     1.0000 0.32650  0.85620  0.82250  Biso   1.000  C
  C104     1.0000 0.17350  0.35620  0.67750  Biso   1.000  C
  C105     1.0000 0.68870  0.18990  0.11570  Biso   1.000  C
  C106     1.0000 0.81130  0.68990  0.38430  Biso   1.000  C
  C107     1.0000 0.31130  0.81010  0.88430  Biso   1.000  C
  C108     1.0000 0.18870  0.31010  0.61570  Biso   1.000  C
  H97      1.0000 0.77890  0.20030  0.10270  Biso   1.000  H
  H98      1.0000 0.72110  0.70030  0.39730  Biso   1.000  H
  H99      1.0000 0.22110  0.79970  0.89730  Biso   1.000  H
  H100     1.0000 0.27890  0.29970  0.60270  Biso   1.000  H
  C109     1.0000 0.57060  0.22090  0.07270  Biso   1.000  C
  C110     1.0000 0.92940  0.72090  0.42730  Biso   1.000  C
  C111     1.0000 0.42940  0.77910  0.92730  Biso   1.000  C
  C112     1.0000 0.07060  0.27910  0.57270  Biso   1.000  C
  H101     1.0000 0.58000  0.25320  0.03150  Biso   1.000  H
  H102     1.0000 0.92000  0.75320  0.46850  Biso   1.000  H
  H103     1.0000 0.42000  0.74680  0.96850  Biso   1.000  H
  H104     1.0000 0.08000  0.24680  0.53150  Biso   1.000  H
  C113     1.0000 0.44050  0.20330  0.09180  Biso   1.000  C
  C114     1.0000 0.05950  0.70330  0.40820  Biso   1.000  C
  C115     1.0000 0.55950  0.79670  0.90820  Biso   1.000  C
  C116     1.0000 0.94050  0.29670  0.59180  Biso   1.000  C
  H105     1.0000 0.36060  0.22310  0.06190  Biso   1.000  H
  H106     1.0000 0.13940  0.72310  0.43810  Biso   1.000  H
  H107     1.0000 0.63940  0.77690  0.93810  Biso   1.000  H
  H108     1.0000 0.86060  0.27690  0.56190  Biso   1.000  H
  C117     1.0000 0.53860  0.13060  0.19310  Biso   1.000  C
  C118     1.0000 0.96140  0.63060  0.30690  Biso   1.000  C
  C119     1.0000 0.46140  0.86940  0.80690  Biso   1.000  C
  C120     1.0000 0.03860  0.36940  0.69310  Biso   1.000  C
  H109     1.0000 0.52700  0.09990  0.23520  Biso   1.000  H
  H110     1.0000 0.97300  0.59990  0.26480  Biso   1.000  H
  H111     1.0000 0.47300  0.90010  0.76480  Biso   1.000  H
  H112     1.0000 0.02700  0.40010  0.73520  Biso   1.000  H
  N1       1.0000 0.76760  0.97790  0.78420  Biso   1.000  N
  N2       1.0000 0.73240  0.47790  0.71580  Biso   1.000  N
  N3       1.0000 0.23240  0.02210  0.21580  Biso   1.000  N
  N4       1.0000 0.26760  0.52210  0.28420  Biso   1.000  N
  N5       1.0000 0.70440  0.09740  0.76460  Biso   1.000  N
  N6       1.0000 0.79560  0.59740  0.73540  Biso   1.000  N
  N7       1.0000 0.29560  0.90260  0.23540  Biso   1.000  N
  N8       1.0000 0.20440  0.40260  0.26460  Biso   1.000  N
  N9       1.0000 0.77730  0.02460  0.22950  Biso   1.000  N
  N10      1.0000 0.72270  0.52460  0.27050  Biso   1.000  N
  N11      1.0000 0.22270  0.97540  0.77050  Biso   1.000  N
  N12      1.0000 0.27730  0.47540  0.72950  Biso   1.000  N
  N13      1.0000 0.74510  0.90390  0.19550  Biso   1.000  N
  N14      1.0000 0.75490  0.40390  0.30450  Biso   1.000  N
  N15      1.0000 0.25490  0.09610  0.80450  Biso   1.000  N
  N16      1.0000 0.24510  0.59610  0.69550  Biso   1.000  N
  N17      1.0000 0.42170  0.15870  0.15160  Biso   1.000  N
  N18      1.0000 0.07830  0.65870  0.34840  Biso   1.000  N
  N19      1.0000 0.57830  0.84130  0.84840  Biso   1.000  N
  N20      1.0000 0.92170  0.34130  0.65160  Biso   1.000  N
  N21      1.0000 0.04880  0.22770  0.86650  Biso   1.000  N
  N22      1.0000 0.45120  0.72770  0.63350  Biso   1.000  N
  N23      1.0000 0.95120  0.77230  0.13350  Biso   1.000  N
  N24      1.0000 0.54880  0.27230  0.36650  Biso   1.000  N
  Cl1      1.0000 0.60349  0.71402  0.10540  Biso   1.000  Cl
  Cl2      1.0000 0.89651  0.21402  0.39460  Biso   1.000  Cl
  Cl3      1.0000 0.39651  0.28598  0.89460  Biso   1.000  Cl
  Cl4      1.0000 0.10349  0.78598  0.60540  Biso   1.000  Cl
  Cl5      1.0000 0.93594  0.80208  0.89402  Biso   1.000  Cl
  Cl6      1.0000 0.56406  0.30208  0.60598  Biso   1.000  Cl
  Cl7      1.0000 0.06406  0.19792  0.10598  Biso   1.000  Cl
  Cl8      1.0000 0.43594  0.69792  0.39402  Biso   1.000  Cl
