data_image0
_cell_length_a       20.686
_cell_length_b       11.643
_cell_length_c       20.787
_cell_angle_alpha    90
_cell_angle_beta     116.222
_cell_angle_gamma    90

_symmetry_space_group_name_H-M    "P 1"
_symmetry_int_tables_number       1

loop_
  _symmetry_equiv_pos_as_xyz
  'x, y, z'

loop_
  _atom_site_label
  _atom_site_occupancy
  _atom_site_fract_x
  _atom_site_fract_y
  _atom_site_fract_z
  _atom_site_thermal_displace_type
  _atom_site_B_iso_or_equiv
  _atom_site_type_symbol
  Cu1      1.0000 0.53986  0.44624  0.82277  Biso   1.000  Cu
  Cu2      1.0000 0.46014  0.94624  0.67723  Biso   1.000  Cu
  Cu3      1.0000 0.46014  0.55376  0.17723  Biso   1.000  Cu
  Cu4      1.0000 0.53986  0.05376  0.32277  Biso   1.000  Cu
  Cu5      1.0000 0.15770  0.50204  0.31784  Biso   1.000  Cu
  Cu6      1.0000 0.84230  0.00204  0.18216  Biso   1.000  Cu
  Cu7      1.0000 0.84230  0.49796  0.68216  Biso   1.000  Cu
  Cu8      1.0000 0.15770  0.99796  0.81784  Biso   1.000  Cu
  Si1      1.0000 0.50000  0.50000  0.50000  Biso   1.000  Si
  Si2      1.0000 0.50000  0.00000  0.00000  Biso   1.000  Si
  Mo1      1.0000 0.33419  0.55547  0.50976  Biso   1.000  Mo
  Mo2      1.0000 0.66581  0.05547  0.99024  Biso   1.000  Mo
  Mo3      1.0000 0.66581  0.44453  0.49024  Biso   1.000  Mo
  Mo4      1.0000 0.33419  0.94453  0.00976  Biso   1.000  Mo
  Mo5      1.0000 0.50073  0.61545  0.65791  Biso   1.000  Mo
  Mo6      1.0000 0.49927  0.11545  0.84209  Biso   1.000  Mo
  Mo7      1.0000 0.49927  0.38455  0.34209  Biso   1.000  Mo
  Mo8      1.0000 0.50073  0.88455  0.15791  Biso   1.000  Mo
  Mo9      1.0000 0.33469  0.42048  0.35520  Biso   1.000  Mo
  Mo10     1.0000 0.66531  0.92048  0.14480  Biso   1.000  Mo
  Mo11     1.0000 0.66531  0.57952  0.64480  Biso   1.000  Mo
  Mo12     1.0000 0.33469  0.07952  0.85520  Biso   1.000  Mo
  Mo13     1.0000 0.55739  0.21485  0.49877  Biso   1.000  Mo
  Mo14     1.0000 0.44261  0.71485  0.00123  Biso   1.000  Mo
  Mo15     1.0000 0.44261  0.78515  0.50123  Biso   1.000  Mo
  Mo16     1.0000 0.55739  0.28515  0.99877  Biso   1.000  Mo
  Mo17     1.0000 0.39883  0.26659  0.52069  Biso   1.000  Mo
  Mo18     1.0000 0.60117  0.76659  0.97931  Biso   1.000  Mo
  Mo19     1.0000 0.60117  0.73341  0.47931  Biso   1.000  Mo
  Mo20     1.0000 0.39883  0.23341  0.02069  Biso   1.000  Mo
  Mo21     1.0000 0.57078  0.33377  0.66075  Biso   1.000  Mo
  Mo22     1.0000 0.42922  0.83377  0.83925  Biso   1.000  Mo
  Mo23     1.0000 0.42922  0.66623  0.33925  Biso   1.000  Mo
  Mo24     1.0000 0.57078  0.16623  0.16075  Biso   1.000  Mo
  C1       1.0000 0.38840  0.39960  0.72420  Biso   1.000  C
  C2       1.0000 0.61160  0.89960  0.77580  Biso   1.000  C
  C3       1.0000 0.61160  0.60040  0.27580  Biso   1.000  C
  C4       1.0000 0.38840  0.10040  0.22420  Biso   1.000  C
  H1       1.0000 0.39810  0.39080  0.68490  Biso   1.000  H
  H2       1.0000 0.60190  0.89080  0.81510  Biso   1.000  H
  H3       1.0000 0.60190  0.60920  0.31510  Biso   1.000  H
  H4       1.0000 0.39810  0.10920  0.18490  Biso   1.000  H
  C5       1.0000 0.40190  0.43270  0.82880  Biso   1.000  C
  C6       1.0000 0.59810  0.93270  0.67120  Biso   1.000  C
  C7       1.0000 0.59810  0.56730  0.17120  Biso   1.000  C
  C8       1.0000 0.40190  0.06730  0.32880  Biso   1.000  C
  H5       1.0000 0.42060  0.45170  0.87720  Biso   1.000  H
  H6       1.0000 0.57940  0.95170  0.62280  Biso   1.000  H
  H7       1.0000 0.57940  0.54830  0.12280  Biso   1.000  H
  H8       1.0000 0.42060  0.04830  0.37720  Biso   1.000  H
  C9       1.0000 0.27420  0.40340  0.80740  Biso   1.000  C
  C10      1.0000 0.72580  0.90340  0.69260  Biso   1.000  C
  C11      1.0000 0.72580  0.59660  0.19260  Biso   1.000  C
  C12      1.0000 0.27420  0.09660  0.30740  Biso   1.000  C
  H9       1.0000 0.23690  0.35280  0.77480  Biso   1.000  H
  H10      1.0000 0.76310  0.85280  0.72520  Biso   1.000  H
  H11      1.0000 0.76310  0.64720  0.22520  Biso   1.000  H
  H12      1.0000 0.23690  0.14720  0.27480  Biso   1.000  H
  H13      1.0000 0.29070  0.37280  0.85550  Biso   1.000  H
  H14      1.0000 0.70930  0.87280  0.64450  Biso   1.000  H
  H15      1.0000 0.70930  0.62720  0.14450  Biso   1.000  H
  H16      1.0000 0.29070  0.12720  0.35550  Biso   1.000  H
  C13      1.0000 0.24330  0.51900  0.80430  Biso   1.000  C
  C14      1.0000 0.75670  0.01900  0.69570  Biso   1.000  C
  C15      1.0000 0.75670  0.48100  0.19570  Biso   1.000  C
  C16      1.0000 0.24330  0.98100  0.30430  Biso   1.000  C
  C17      1.0000 0.24010  0.59680  0.74900  Biso   1.000  C
  C18      1.0000 0.75990  0.09680  0.75100  Biso   1.000  C
  C19      1.0000 0.75990  0.40320  0.25100  Biso   1.000  C
  C20      1.0000 0.24010  0.90320  0.24900  Biso   1.000  C
  H17      1.0000 0.21610  0.55870  0.70290  Biso   1.000  H
  H18      1.0000 0.78390  0.05870  0.79710  Biso   1.000  H
  H19      1.0000 0.78390  0.44130  0.29710  Biso   1.000  H
  H20      1.0000 0.21610  0.94130  0.20290  Biso   1.000  H
  H21      1.0000 0.28880  0.61490  0.75680  Biso   1.000  H
  H22      1.0000 0.71120  0.11490  0.74320  Biso   1.000  H
  H23      1.0000 0.71120  0.38510  0.24320  Biso   1.000  H
  H24      1.0000 0.28880  0.88510  0.25680  Biso   1.000  H
  C21      1.0000 0.11590  0.81590  0.70790  Biso   1.000  C
  C22      1.0000 0.88410  0.31590  0.79210  Biso   1.000  C
  C23      1.0000 0.88410  0.18410  0.29210  Biso   1.000  C
  C24      1.0000 0.11590  0.68410  0.20790  Biso   1.000  C
  H25      1.0000 0.07150  0.84880  0.67880  Biso   1.000  H
  H26      1.0000 0.92850  0.34880  0.82120  Biso   1.000  H
  H27      1.0000 0.92850  0.15120  0.32120  Biso   1.000  H
  H28      1.0000 0.07150  0.65120  0.17880  Biso   1.000  H
  C25      1.0000 0.21830  0.79120  0.79040  Biso   1.000  C
  C26      1.0000 0.78170  0.29120  0.70960  Biso   1.000  C
  C27      1.0000 0.78170  0.20880  0.20960  Biso   1.000  C
  C28      1.0000 0.21830  0.70880  0.29040  Biso   1.000  C
  H29      1.0000 0.26190  0.79980  0.83110  Biso   1.000  H
  H30      1.0000 0.73810  0.29980  0.66890  Biso   1.000  H
  H31      1.0000 0.73810  0.20020  0.16890  Biso   1.000  H
  H32      1.0000 0.26190  0.70020  0.33110  Biso   1.000  H
  C29      1.0000 0.17510  0.51650  0.81510  Biso   1.000  C
  C30      1.0000 0.82490  0.01650  0.68490  Biso   1.000  C
  C31      1.0000 0.82490  0.48350  0.18490  Biso   1.000  C
  C32      1.0000 0.17510  0.98350  0.31510  Biso   1.000  C
  C33      1.0000 0.17140  0.58240  0.86830  Biso   1.000  C
  C34      1.0000 0.82860  0.08240  0.63170  Biso   1.000  C
  C35      1.0000 0.82860  0.41760  0.13170  Biso   1.000  C
  C36      1.0000 0.17140  0.91760  0.36830  Biso   1.000  C
  H33      1.0000 0.21260  0.62180  0.89910  Biso   1.000  H
  H34      1.0000 0.78740  0.12180  0.60090  Biso   1.000  H
  H35      1.0000 0.78740  0.37820  0.10090  Biso   1.000  H
  H36      1.0000 0.21260  0.87820  0.39910  Biso   1.000  H
  C37      1.0000 0.11200  0.59320  0.87850  Biso   1.000  C
  C38      1.0000 0.88800  0.09320  0.62150  Biso   1.000  C
  C39      1.0000 0.88800  0.40680  0.12150  Biso   1.000  C
  C40      1.0000 0.11200  0.90680  0.37850  Biso   1.000  C
  H37      1.0000 0.11200  0.63950  0.91490  Biso   1.000  H
  H38      1.0000 0.88800  0.13950  0.58510  Biso   1.000  H
  H39      1.0000 0.88800  0.36050  0.08510  Biso   1.000  H
  H40      1.0000 0.11200  0.86050  0.41490  Biso   1.000  H
  C41      1.0000 0.05220  0.53500  0.83440  Biso   1.000  C
  C42      1.0000 0.94780  0.03500  0.66560  Biso   1.000  C
  C43      1.0000 0.94780  0.46500  0.16560  Biso   1.000  C
  C44      1.0000 0.05220  0.96500  0.33440  Biso   1.000  C
  C45      1.0000 0.05180  0.46780  0.78350  Biso   1.000  C
  C46      1.0000 0.94820  0.96780  0.71650  Biso   1.000  C
  C47      1.0000 0.94820  0.53220  0.21650  Biso   1.000  C
  C48      1.0000 0.05180  0.03220  0.28350  Biso   1.000  C
  H41      1.0000 0.01080  0.42670  0.75400  Biso   1.000  H
  H42      1.0000 0.98920  0.92670  0.74600  Biso   1.000  H
  H43      1.0000 0.98920  0.57330  0.24600  Biso   1.000  H
  H44      1.0000 0.01080  0.07330  0.25400  Biso   1.000  H
  C49      1.0000 0.11380  0.46050  0.77560  Biso   1.000  C
  C50      1.0000 0.88620  0.96050  0.72440  Biso   1.000  C
  C51      1.0000 0.88620  0.53950  0.22440  Biso   1.000  C
  C52      1.0000 0.11380  0.03950  0.27560  Biso   1.000  C
  C53      1.0000 0.69270  0.39530  0.90250  Biso   1.000  C
  C54      1.0000 0.30730  0.89530  0.59750  Biso   1.000  C
  C55      1.0000 0.30730  0.60470  0.09750  Biso   1.000  C
  C56      1.0000 0.69270  0.10470  0.40250  Biso   1.000  C
  H45      1.0000 0.68390  0.32690  0.92040  Biso   1.000  H
  H46      1.0000 0.31610  0.82690  0.57960  Biso   1.000  H
  H47      1.0000 0.31610  0.67310  0.07960  Biso   1.000  H
  H48      1.0000 0.68390  0.17310  0.42040  Biso   1.000  H
  C57      1.0000 0.67560  0.54840  0.84720  Biso   1.000  C
  C58      1.0000 0.32440  0.04840  0.65280  Biso   1.000  C
  C59      1.0000 0.32440  0.45160  0.15280  Biso   1.000  C
  C60      1.0000 0.67560  0.95160  0.34720  Biso   1.000  C
  H49      1.0000 0.65380  0.61200  0.81870  Biso   1.000  H
  H50      1.0000 0.34620  0.11200  0.68130  Biso   1.000  H
  H51      1.0000 0.34620  0.38800  0.18130  Biso   1.000  H
  H52      1.0000 0.65380  0.88800  0.31870  Biso   1.000  H
  C61      1.0000 0.80450  0.60260  0.88340  Biso   1.000  C
  C62      1.0000 0.19550  0.10260  0.61660  Biso   1.000  C
  C63      1.0000 0.19550  0.39740  0.11660  Biso   1.000  C
  C64      1.0000 0.80450  0.89740  0.38340  Biso   1.000  C
  H53      1.0000 0.79140  0.63600  0.83650  Biso   1.000  H
  H54      1.0000 0.20860  0.13600  0.66350  Biso   1.000  H
  H55      1.0000 0.20860  0.36400  0.16350  Biso   1.000  H
  H56      1.0000 0.79140  0.86400  0.33650  Biso   1.000  H
  H57      1.0000 0.84680  0.55500  0.89550  Biso   1.000  H
  H58      1.0000 0.15320  0.05500  0.60450  Biso   1.000  H
  H59      1.0000 0.15320  0.44500  0.10450  Biso   1.000  H
  H60      1.0000 0.84680  0.94500  0.39550  Biso   1.000  H
  C65      1.0000 0.82260  0.69930  0.93920  Biso   1.000  C
  C66      1.0000 0.17740  0.19930  0.56080  Biso   1.000  C
  C67      1.0000 0.17740  0.30070  0.06080  Biso   1.000  C
  C68      1.0000 0.82260  0.80070  0.43920  Biso   1.000  C
  C69      1.0000 0.83320  0.65140  0.01040  Biso   1.000  C
  C70      1.0000 0.16680  0.15140  0.48960  Biso   1.000  C
  C71      1.0000 0.16680  0.34860  0.98960  Biso   1.000  C
  C72      1.0000 0.83320  0.84860  0.51040  Biso   1.000  C
  H61      1.0000 0.78780  0.62070  0.00580  Biso   1.000  H
  H62      1.0000 0.21220  0.12070  0.49420  Biso   1.000  H
  H63      1.0000 0.21220  0.37930  0.99420  Biso   1.000  H
  H64      1.0000 0.78780  0.87930  0.50580  Biso   1.000  H
  H65      1.0000 0.86750  0.58870  0.02360  Biso   1.000  H
  H66      1.0000 0.13250  0.08870  0.47640  Biso   1.000  H
  H67      1.0000 0.13250  0.41130  0.97640  Biso   1.000  H
  H68      1.0000 0.86750  0.91130  0.52360  Biso   1.000  H
  C73      1.0000 0.82320  0.81460  0.08370  Biso   1.000  C
  C74      1.0000 0.17680  0.31460  0.41630  Biso   1.000  C
  C75      1.0000 0.17680  0.18540  0.91630  Biso   1.000  C
  C76      1.0000 0.82320  0.68540  0.58370  Biso   1.000  C
  H69      1.0000 0.77330  0.82190  0.06060  Biso   1.000  H
  H70      1.0000 0.22670  0.32190  0.43940  Biso   1.000  H
  H71      1.0000 0.22670  0.17810  0.93940  Biso   1.000  H
  H72      1.0000 0.77330  0.67810  0.56060  Biso   1.000  H
  C77      1.0000 0.93250  0.83620  0.15150  Biso   1.000  C
  C78      1.0000 0.06750  0.33620  0.34850  Biso   1.000  C
  C79      1.0000 0.06750  0.16380  0.84850  Biso   1.000  C
  C80      1.0000 0.93250  0.66380  0.65150  Biso   1.000  C
  H73      1.0000 0.97520  0.86520  0.18720  Biso   1.000  H
  H74      1.0000 0.02480  0.36520  0.31280  Biso   1.000  H
  H75      1.0000 0.02480  0.13480  0.81280  Biso   1.000  H
  H76      1.0000 0.97520  0.63480  0.68720  Biso   1.000  H
  C81      1.0000 0.89040  0.76370  0.94430  Biso   1.000  C
  C82      1.0000 0.10960  0.26370  0.55570  Biso   1.000  C
  C83      1.0000 0.10960  0.23630  0.05570  Biso   1.000  C
  C84      1.0000 0.89040  0.73630  0.44430  Biso   1.000  C
  C85      1.0000 0.88460  0.87840  0.92400  Biso   1.000  C
  C86      1.0000 0.11540  0.37840  0.57600  Biso   1.000  C
  C87      1.0000 0.11540  0.12160  0.07600  Biso   1.000  C
  C88      1.0000 0.88460  0.62160  0.42400  Biso   1.000  C
  H77      1.0000 0.84070  0.91640  0.90890  Biso   1.000  H
  H78      1.0000 0.15930  0.41640  0.59110  Biso   1.000  H
  H79      1.0000 0.15930  0.08360  0.09110  Biso   1.000  H
  H80      1.0000 0.84070  0.58360  0.40890  Biso   1.000  H
  C89      1.0000 0.94420  0.93640  0.92620  Biso   1.000  C
  C90      1.0000 0.05580  0.43640  0.57380  Biso   1.000  C
  C91      1.0000 0.05580  0.06360  0.07380  Biso   1.000  C
  C92      1.0000 0.94420  0.56360  0.42620  Biso   1.000  C
  H81      1.0000 0.94030  0.01320  0.91260  Biso   1.000  H
  H82      1.0000 0.05970  0.51320  0.58740  Biso   1.000  H
  H83      1.0000 0.05970  0.98680  0.08740  Biso   1.000  H
  H84      1.0000 0.94030  0.48680  0.41260  Biso   1.000  H
  C93      1.0000 0.00980  0.87960  0.94870  Biso   1.000  C
  C94      1.0000 0.99020  0.37960  0.55130  Biso   1.000  C
  C95      1.0000 0.99020  0.12040  0.05130  Biso   1.000  C
  C96      1.0000 0.00980  0.62040  0.44870  Biso   1.000  C
  C97      1.0000 0.01560  0.76490  0.96900  Biso   1.000  C
  C98      1.0000 0.98440  0.26490  0.53100  Biso   1.000  C
  C99      1.0000 0.98440  0.23510  0.03100  Biso   1.000  C
  C100     1.0000 0.01560  0.73510  0.46900  Biso   1.000  C
  H85      1.0000 0.05940  0.72690  0.98400  Biso   1.000  H
  H86      1.0000 0.94060  0.22690  0.51600  Biso   1.000  H
  H87      1.0000 0.94060  0.27310  0.01600  Biso   1.000  H
  H88      1.0000 0.05940  0.77310  0.48400  Biso   1.000  H
  C101     1.0000 0.95590  0.70690  0.96670  Biso   1.000  C
  C102     1.0000 0.04410  0.20690  0.53330  Biso   1.000  C
  C103     1.0000 0.04410  0.29310  0.03330  Biso   1.000  C
  C104     1.0000 0.95590  0.79310  0.46670  Biso   1.000  C
  O1       1.0000 0.43040  0.46120  0.48260  Biso   1.000  O
  O2       1.0000 0.56960  0.96120  0.01740  Biso   1.000  O
  O3       1.0000 0.56960  0.53880  0.51740  Biso   1.000  O
  O4       1.0000 0.43040  0.03880  0.98260  Biso   1.000  O
  O5       1.0000 0.45580  0.57360  0.52690  Biso   1.000  O
  O6       1.0000 0.54420  0.07360  0.97310  Biso   1.000  O
  O7       1.0000 0.54420  0.42640  0.47310  Biso   1.000  O
  O8       1.0000 0.45580  0.92640  0.02690  Biso   1.000  O
  O9       1.0000 0.45130  0.48720  0.41560  Biso   1.000  O
  O10      1.0000 0.54870  0.98720  0.08440  Biso   1.000  O
  O11      1.0000 0.54870  0.51280  0.58440  Biso   1.000  O
  O12      1.0000 0.45130  0.01280  0.91560  Biso   1.000  O
  O13      1.0000 0.49780  0.37290  0.52840  Biso   1.000  O
  O14      1.0000 0.50220  0.87290  0.97160  Biso   1.000  O
  O15      1.0000 0.50220  0.62710  0.47160  Biso   1.000  O
  O16      1.0000 0.49780  0.12710  0.02840  Biso   1.000  O
  O17      1.0000 0.34960  0.39040  0.53300  Biso   1.000  O
  O18      1.0000 0.65040  0.89040  0.96700  Biso   1.000  O
  O19      1.0000 0.65040  0.60960  0.46700  Biso   1.000  O
  O20      1.0000 0.34960  0.10960  0.03300  Biso   1.000  O
  O21      1.0000 0.30020  0.50930  0.41370  Biso   1.000  O
  O22      1.0000 0.69980  0.00930  0.08630  Biso   1.000  O
  O23      1.0000 0.69980  0.49070  0.58630  Biso   1.000  O
  O24      1.0000 0.30020  0.99070  0.91370  Biso   1.000  O
  O25      1.0000 0.35730  0.70010  0.48970  Biso   1.000  O
  O26      1.0000 0.64270  0.20010  0.01030  Biso   1.000  O
  O27      1.0000 0.64270  0.29990  0.51030  Biso   1.000  O
  O28      1.0000 0.35730  0.79990  0.98970  Biso   1.000  O
  O29      1.0000 0.40460  0.57520  0.60860  Biso   1.000  O
  O30      1.0000 0.59540  0.07520  0.89140  Biso   1.000  O
  O31      1.0000 0.59540  0.42480  0.39140  Biso   1.000  O
  O32      1.0000 0.40460  0.92480  0.10860  Biso   1.000  O
  O33      1.0000 0.48020  0.74830  0.59970  Biso   1.000  O
  O34      1.0000 0.51980  0.24830  0.90030  Biso   1.000  O
  O35      1.0000 0.51980  0.25170  0.40030  Biso   1.000  O
  O36      1.0000 0.48020  0.75170  0.09970  Biso   1.000  O
  O37      1.0000 0.59360  0.23950  0.60010  Biso   1.000  O
  O38      1.0000 0.40640  0.73950  0.89990  Biso   1.000  O
  O39      1.0000 0.40640  0.76050  0.39990  Biso   1.000  O
  O40      1.0000 0.59360  0.26050  0.10010  Biso   1.000  O
  O41      1.0000 0.64780  0.43050  0.67480  Biso   1.000  O
  O42      1.0000 0.35220  0.93050  0.82520  Biso   1.000  O
  O43      1.0000 0.35220  0.56950  0.32520  Biso   1.000  O
  O44      1.0000 0.64780  0.06950  0.17480  Biso   1.000  O
  O45      1.0000 0.34910  0.29930  0.41790  Biso   1.000  O
  O46      1.0000 0.65090  0.79930  0.08210  Biso   1.000  O
  O47      1.0000 0.65090  0.70070  0.58210  Biso   1.000  O
  O48      1.0000 0.34910  0.20070  0.91790  Biso   1.000  O
  O49      1.0000 0.47240  0.27460  0.61180  Biso   1.000  O
  O50      1.0000 0.52760  0.77460  0.88820  Biso   1.000  O
  O51      1.0000 0.52760  0.72540  0.38820  Biso   1.000  O
  O52      1.0000 0.47240  0.22540  0.11180  Biso   1.000  O
  O53      1.0000 0.52760  0.46210  0.68710  Biso   1.000  O
  O54      1.0000 0.47240  0.96210  0.81290  Biso   1.000  O
  O55      1.0000 0.47240  0.53790  0.31290  Biso   1.000  O
  O56      1.0000 0.52760  0.03790  0.18710  Biso   1.000  O
  O57      1.0000 0.50680  0.66990  0.73430  Biso   1.000  O
  O58      1.0000 0.49320  0.16990  0.76570  Biso   1.000  O
  O59      1.0000 0.49320  0.33010  0.26570  Biso   1.000  O
  O60      1.0000 0.50680  0.83010  0.23430  Biso   1.000  O
  O61      1.0000 0.60140  0.64010  0.67560  Biso   1.000  O
  O62      1.0000 0.39860  0.14010  0.82440  Biso   1.000  O
  O63      1.0000 0.39860  0.35990  0.32440  Biso   1.000  O
  O64      1.0000 0.60140  0.85990  0.17560  Biso   1.000  O
  O65      1.0000 0.46610  0.18900  0.49190  Biso   1.000  O
  O66      1.0000 0.53390  0.68900  0.00810  Biso   1.000  O
  O67      1.0000 0.53390  0.81100  0.50810  Biso   1.000  O
  O68      1.0000 0.46610  0.31100  0.99190  Biso   1.000  O
  O69      1.0000 0.58560  0.07810  0.49780  Biso   1.000  O
  O70      1.0000 0.41440  0.57810  0.00220  Biso   1.000  O
  O71      1.0000 0.41440  0.92190  0.50220  Biso   1.000  O
  O72      1.0000 0.58560  0.42190  0.99780  Biso   1.000  O
  O73      1.0000 0.25420  0.38580  0.28810  Biso   1.000  O
  O74      1.0000 0.74580  0.88580  0.21190  Biso   1.000  O
  O75      1.0000 0.74580  0.61420  0.71190  Biso   1.000  O
  O76      1.0000 0.25420  0.11420  0.78810  Biso   1.000  O
  O77      1.0000 0.34990  0.15650  0.52360  Biso   1.000  O
  O78      1.0000 0.65010  0.65650  0.97640  Biso   1.000  O
  O79      1.0000 0.65010  0.84350  0.47640  Biso   1.000  O
  O80      1.0000 0.34990  0.34350  0.02360  Biso   1.000  O
  O81      1.0000 0.60640  0.25710  0.73560  Biso   1.000  O
  O82      1.0000 0.39360  0.75710  0.76440  Biso   1.000  O
  O83      1.0000 0.39360  0.74290  0.26440  Biso   1.000  O
  O84      1.0000 0.60640  0.24290  0.23560  Biso   1.000  O
  O85      1.0000 0.25790  0.57710  0.51530  Biso   1.000  O
  O86      1.0000 0.74210  0.07710  0.98470  Biso   1.000  O
  O87      1.0000 0.74210  0.42290  0.48470  Biso   1.000  O
  O88      1.0000 0.25790  0.92290  0.01530  Biso   1.000  O
  O89      1.0000 0.30020  0.58130  0.86880  Biso   1.000  O
  O90      1.0000 0.69980  0.08130  0.63120  Biso   1.000  O
  O91      1.0000 0.69980  0.41870  0.13120  Biso   1.000  O
  O92      1.0000 0.30020  0.91870  0.36880  Biso   1.000  O
  H89      1.0000 0.30770  0.54570  0.90550  Biso   1.000  H
  H90      1.0000 0.69230  0.04570  0.59450  Biso   1.000  H
  H91      1.0000 0.69230  0.45430  0.09450  Biso   1.000  H
  H92      1.0000 0.30770  0.95430  0.40550  Biso   1.000  H
  O93      1.0000 0.76490  0.77590  0.91880  Biso   1.000  O
  O94      1.0000 0.23510  0.27590  0.58120  Biso   1.000  O
  O95      1.0000 0.23510  0.22410  0.08120  Biso   1.000  O
  O96      1.0000 0.76490  0.72410  0.41880  Biso   1.000  O
  H93      1.0000 0.75730  0.80540  0.88030  Biso   1.000  H
  H94      1.0000 0.24270  0.30540  0.61970  Biso   1.000  H
  H95      1.0000 0.24270  0.19460  0.11970  Biso   1.000  H
  H96      1.0000 0.75730  0.69460  0.38030  Biso   1.000  H
  N1       1.0000 0.33530  0.40460  0.78830  Biso   1.000  N
  N2       1.0000 0.66470  0.90460  0.71170  Biso   1.000  N
  N3       1.0000 0.66470  0.59540  0.21170  Biso   1.000  N
  N4       1.0000 0.33530  0.09540  0.28830  Biso   1.000  N
  N5       1.0000 0.32440  0.38360  0.72000  Biso   1.000  N
  N6       1.0000 0.67560  0.88360  0.78000  Biso   1.000  N
  N7       1.0000 0.67560  0.61640  0.28000  Biso   1.000  N
  N8       1.0000 0.32440  0.11640  0.22000  Biso   1.000  N
  N9       1.0000 0.43990  0.43010  0.78970  Biso   1.000  N
  N10      1.0000 0.56010  0.93010  0.71030  Biso   1.000  N
  N11      1.0000 0.56010  0.56990  0.21030  Biso   1.000  N
  N12      1.0000 0.43990  0.06990  0.28970  Biso   1.000  N
  N13      1.0000 0.20200  0.70380  0.74660  Biso   1.000  N
  N14      1.0000 0.79800  0.20380  0.75340  Biso   1.000  N
  N15      1.0000 0.79800  0.29620  0.25340  Biso   1.000  N
  N16      1.0000 0.20200  0.79620  0.24660  Biso   1.000  N
  N17      1.0000 0.13600  0.71740  0.69240  Biso   1.000  N
  N18      1.0000 0.86400  0.21740  0.80760  Biso   1.000  N
  N19      1.0000 0.86400  0.28260  0.30760  Biso   1.000  N
  N20      1.0000 0.13600  0.78260  0.19240  Biso   1.000  N
  N21      1.0000 0.16390  0.63320  0.26890  Biso   1.000  N
  N22      1.0000 0.83610  0.13320  0.23110  Biso   1.000  N
  N23      1.0000 0.83610  0.36680  0.73110  Biso   1.000  N
  N24      1.0000 0.16390  0.86680  0.76890  Biso   1.000  N
  N25      1.0000 0.64020  0.46300  0.85910  Biso   1.000  N
  N26      1.0000 0.35980  0.96300  0.64090  Biso   1.000  N
  N27      1.0000 0.35980  0.53700  0.14090  Biso   1.000  N
  N28      1.0000 0.64020  0.03700  0.35910  Biso   1.000  N
  N29      1.0000 0.74540  0.53160  0.88070  Biso   1.000  N
  N30      1.0000 0.25460  0.03160  0.61930  Biso   1.000  N
  N31      1.0000 0.25460  0.46840  0.11930  Biso   1.000  N
  N32      1.0000 0.74540  0.96840  0.38070  Biso   1.000  N
  N33      1.0000 0.75920  0.43200  0.91870  Biso   1.000  N
  N34      1.0000 0.24080  0.93200  0.58130  Biso   1.000  N
  N35      1.0000 0.24080  0.56800  0.08130  Biso   1.000  N
  N36      1.0000 0.75920  0.06800  0.41870  Biso   1.000  N
  N37      1.0000 0.85930  0.73840  0.06750  Biso   1.000  N
  N38      1.0000 0.14070  0.23840  0.43250  Biso   1.000  N
  N39      1.0000 0.14070  0.26160  0.93250  Biso   1.000  N
  N40      1.0000 0.85930  0.76160  0.56750  Biso   1.000  N
  N41      1.0000 0.93050  0.75100  0.11150  Biso   1.000  N
  N42      1.0000 0.06950  0.25100  0.38850  Biso   1.000  N
  N43      1.0000 0.06950  0.24900  0.88850  Biso   1.000  N
  N44      1.0000 0.93050  0.74900  0.61150  Biso   1.000  N
  N45      1.0000 0.13370  0.38060  0.36290  Biso   1.000  N
  N46      1.0000 0.86630  0.88060  0.13710  Biso   1.000  N
  N47      1.0000 0.86630  0.61940  0.63710  Biso   1.000  N
  N48      1.0000 0.13370  0.11940  0.86290  Biso   1.000  N
  F1       1.0000 0.11720  0.38430  0.73180  Biso   1.000  F
  F2       1.0000 0.88280  0.88430  0.76820  Biso   1.000  F
  F3       1.0000 0.88280  0.61570  0.26820  Biso   1.000  F
  F4       1.0000 0.11720  0.11570  0.23180  Biso   1.000  F
  F5       1.0000 0.98980  0.54830  0.84200  Biso   1.000  F
  F6       1.0000 0.01020  0.04830  0.65800  Biso   1.000  F
  F7       1.0000 0.01020  0.45170  0.15800  Biso   1.000  F
  F8       1.0000 0.98980  0.95170  0.34200  Biso   1.000  F
  F9       1.0000 0.06470  0.94200  0.94500  Biso   1.000  F
  F10      1.0000 0.93530  0.44200  0.55500  Biso   1.000  F
  F11      1.0000 0.93530  0.05800  0.05500  Biso   1.000  F
  F12      1.0000 0.06470  0.55800  0.44500  Biso   1.000  F
  F13      1.0000 0.96190  0.60150  0.99160  Biso   1.000  F
  F14      1.0000 0.03810  0.10150  0.50840  Biso   1.000  F
  F15      1.0000 0.03810  0.39850  0.00840  Biso   1.000  F
  F16      1.0000 0.96190  0.89850  0.49160  Biso   1.000  F
