data_image0
_cell_length_a       12.343
_cell_length_b       16.127
_cell_length_c       18.764
_cell_angle_alpha    90
_cell_angle_beta     98.296
_cell_angle_gamma    90

_symmetry_space_group_name_H-M    "P 1"
_symmetry_int_tables_number       1

loop_
  _symmetry_equiv_pos_as_xyz
  'x, y, z'

loop_
  _atom_site_label
  _atom_site_occupancy
  _atom_site_fract_x
  _atom_site_fract_y
  _atom_site_fract_z
  _atom_site_thermal_displace_type
  _atom_site_B_iso_or_equiv
  _atom_site_type_symbol
  Si1      1.0000 0.00000  0.00000  0.00000  Biso   1.000  Si
  Si2      1.0000 0.50000  0.50000  0.50000  Biso   1.000  Si
  Cu1      1.0000 0.30060  0.30177  0.14859  Biso   1.000  Cu
  Cu2      1.0000 0.19940  0.80177  0.35141  Biso   1.000  Cu
  Cu3      1.0000 0.69940  0.69823  0.85141  Biso   1.000  Cu
  Cu4      1.0000 0.80060  0.19823  0.64859  Biso   1.000  Cu
  W1       1.0000 0.21194  0.93689  0.90228  Biso   1.000  W
  W2       1.0000 0.28806  0.43689  0.59772  Biso   1.000  W
  W3       1.0000 0.78806  0.06311  0.09772  Biso   1.000  W
  W4       1.0000 0.71194  0.56311  0.40228  Biso   1.000  W
  W5       1.0000 0.04714  0.15882  0.13013  Biso   1.000  W
  W6       1.0000 0.45286  0.65882  0.36987  Biso   1.000  W
  W7       1.0000 0.95286  0.84118  0.86987  Biso   1.000  W
  W8       1.0000 0.54714  0.34118  0.63013  Biso   1.000  W
  W9       1.0000 0.12526  0.80486  0.03342  Biso   1.000  W
  W10      1.0000 0.37474  0.30486  0.46658  Biso   1.000  W
  W11      1.0000 0.87474  0.19514  0.96658  Biso   1.000  W
  W12      1.0000 0.62526  0.69514  0.53342  Biso   1.000  W
  W13      1.0000 0.17265  0.96291  0.16522  Biso   1.000  W
  W14      1.0000 0.32735  0.46291  0.33478  Biso   1.000  W
  W15      1.0000 0.82735  0.03709  0.83478  Biso   1.000  W
  W16      1.0000 0.67265  0.53709  0.66522  Biso   1.000  W
  W17      1.0000 0.25902  0.09482  0.03397  Biso   1.000  W
  W18      1.0000 0.24098  0.59482  0.46603  Biso   1.000  W
  W19      1.0000 0.74098  0.90518  0.96603  Biso   1.000  W
  W20      1.0000 0.75902  0.40518  0.53397  Biso   1.000  W
  W21      1.0000 0.91385  0.86732  0.13007  Biso   1.000  W
  W22      1.0000 0.58615  0.36732  0.36993  Biso   1.000  W
  W23      1.0000 0.08615  0.13268  0.86993  Biso   1.000  W
  W24      1.0000 0.41385  0.63268  0.63007  Biso   1.000  W
  F1       1.0000 0.55350  0.89880  0.38820  Biso   1.000  F
  F2       1.0000 0.94650  0.39880  0.11180  Biso   1.000  F
  F3       1.0000 0.44650  0.10120  0.61180  Biso   1.000  F
  F4       1.0000 0.05350  0.60120  0.88820  Biso   1.000  F
  F5       1.0000 0.89340  0.78710  0.35730  Biso   1.000  F
  F6       1.0000 0.60660  0.28710  0.14270  Biso   1.000  F
  F7       1.0000 0.10660  0.21290  0.64270  Biso   1.000  F
  F8       1.0000 0.39340  0.71290  0.85730  Biso   1.000  F
  C1       1.0000 0.22930  0.45400  0.07610  Biso   1.000  C
  C2       1.0000 0.27070  0.95400  0.42390  Biso   1.000  C
  C3       1.0000 0.77070  0.54600  0.92390  Biso   1.000  C
  C4       1.0000 0.72930  0.04600  0.57610  Biso   1.000  C
  H1       1.0000 0.26620  0.48650  0.11280  Biso   1.000  H
  H2       1.0000 0.23380  0.98650  0.38720  Biso   1.000  H
  H3       1.0000 0.73380  0.51350  0.88720  Biso   1.000  H
  H4       1.0000 0.76620  0.01350  0.61280  Biso   1.000  H
  C5       1.0000 0.16830  0.35030  0.01640  Biso   1.000  C
  C6       1.0000 0.33170  0.85030  0.48360  Biso   1.000  C
  C7       1.0000 0.83170  0.64970  0.98360  Biso   1.000  C
  C8       1.0000 0.66830  0.14970  0.51640  Biso   1.000  C
  H5       1.0000 0.15210  0.29640  0.00070  Biso   1.000  H
  H6       1.0000 0.34790  0.79640  0.49930  Biso   1.000  H
  H7       1.0000 0.84790  0.70360  0.99930  Biso   1.000  H
  H8       1.0000 0.65210  0.20360  0.50070  Biso   1.000  H
  C9       1.0000 0.55290  0.07650  0.41400  Biso   1.000  C
  C10      1.0000 0.94710  0.57650  0.08600  Biso   1.000  C
  C11      1.0000 0.44710  0.92350  0.58600  Biso   1.000  C
  C12      1.0000 0.05290  0.42350  0.91400  Biso   1.000  C
  H9       1.0000 0.50930  0.12670  0.40820  Biso   1.000  H
  H10      1.0000 0.99070  0.62670  0.09180  Biso   1.000  H
  H11      1.0000 0.49070  0.87330  0.59180  Biso   1.000  H
  H12      1.0000 0.00930  0.37330  0.90820  Biso   1.000  H
  H13      1.0000 0.50380  0.03030  0.41790  Biso   1.000  H
  H14      1.0000 0.99620  0.53030  0.08210  Biso   1.000  H
  H15      1.0000 0.49620  0.96970  0.58210  Biso   1.000  H
  H16      1.0000 0.00380  0.46970  0.91790  Biso   1.000  H
  C13      1.0000 0.60860  0.06440  0.34840  Biso   1.000  C
  C14      1.0000 0.89140  0.56440  0.15160  Biso   1.000  C
  C15      1.0000 0.39140  0.93560  0.65160  Biso   1.000  C
  C16      1.0000 0.10860  0.43560  0.84840  Biso   1.000  C
  C17      1.0000 0.52170  0.04950  0.27960  Biso   1.000  C
  C18      1.0000 0.97830  0.54950  0.22040  Biso   1.000  C
  C19      1.0000 0.47830  0.95050  0.72040  Biso   1.000  C
  C20      1.0000 0.02170  0.45050  0.77960  Biso   1.000  C
  H17      1.0000 0.55930  0.03920  0.23860  Biso   1.000  H
  H18      1.0000 0.94070  0.53920  0.26140  Biso   1.000  H
  H19      1.0000 0.44070  0.96080  0.76140  Biso   1.000  H
  H20      1.0000 0.05930  0.46080  0.73860  Biso   1.000  H
  H21      1.0000 0.47870  0.00070  0.28700  Biso   1.000  H
  H22      1.0000 0.02130  0.50070  0.21300  Biso   1.000  H
  H23      1.0000 0.52130  0.99930  0.71300  Biso   1.000  H
  H24      1.0000 0.97870  0.49930  0.78700  Biso   1.000  H
  C21      1.0000 0.44870  0.17310  0.21320  Biso   1.000  C
  C22      1.0000 0.05130  0.67310  0.28680  Biso   1.000  C
  C23      1.0000 0.55130  0.82690  0.78680  Biso   1.000  C
  C24      1.0000 0.94870  0.32690  0.71320  Biso   1.000  C
  H25      1.0000 0.49710  0.17590  0.17960  Biso   1.000  H
  H26      1.0000 0.00290  0.67590  0.32040  Biso   1.000  H
  H27      1.0000 0.50290  0.82410  0.82040  Biso   1.000  H
  H28      1.0000 0.99710  0.32410  0.67960  Biso   1.000  H
  C25      1.0000 0.32030  0.19700  0.27290  Biso   1.000  C
  C26      1.0000 0.17970  0.69700  0.22710  Biso   1.000  C
  C27      1.0000 0.67970  0.80300  0.72710  Biso   1.000  C
  C28      1.0000 0.82030  0.30300  0.77290  Biso   1.000  C
  H29      1.0000 0.26020  0.22230  0.28850  Biso   1.000  H
  H30      1.0000 0.23980  0.72230  0.21150  Biso   1.000  H
  H31      1.0000 0.73980  0.77770  0.71150  Biso   1.000  H
  H32      1.0000 0.76020  0.27770  0.78850  Biso   1.000  H
  C29      1.0000 0.68740  0.98570  0.35160  Biso   1.000  C
  C30      1.0000 0.81260  0.48570  0.14840  Biso   1.000  C
  C31      1.0000 0.31260  0.01430  0.64840  Biso   1.000  C
  C32      1.0000 0.18740  0.51430  0.85160  Biso   1.000  C
  C33      1.0000 0.79060  0.99340  0.33200  Biso   1.000  C
  C34      1.0000 0.70940  0.49340  0.16800  Biso   1.000  C
  C35      1.0000 0.20940  0.00660  0.66800  Biso   1.000  C
  C36      1.0000 0.29060  0.50660  0.83200  Biso   1.000  C
  H33      1.0000 0.81350  0.04480  0.31740  Biso   1.000  H
  H34      1.0000 0.68650  0.54480  0.18260  Biso   1.000  H
  H35      1.0000 0.18650  0.95520  0.68260  Biso   1.000  H
  H36      1.0000 0.31350  0.45520  0.81740  Biso   1.000  H
  C37      1.0000 0.86040  0.92630  0.33340  Biso   1.000  C
  C38      1.0000 0.63960  0.42630  0.16660  Biso   1.000  C
  C39      1.0000 0.13960  0.07370  0.66660  Biso   1.000  C
  C40      1.0000 0.36040  0.57370  0.83340  Biso   1.000  C
  H37      1.0000 0.93030  0.93150  0.32080  Biso   1.000  H
  H38      1.0000 0.56970  0.43150  0.17920  Biso   1.000  H
  H39      1.0000 0.06970  0.06850  0.67920  Biso   1.000  H
  H40      1.0000 0.43030  0.56850  0.82080  Biso   1.000  H
  C41      1.0000 0.82310  0.85350  0.35380  Biso   1.000  C
  C42      1.0000 0.67690  0.35350  0.14620  Biso   1.000  C
  C43      1.0000 0.17690  0.14650  0.64620  Biso   1.000  C
  C44      1.0000 0.32310  0.64650  0.85380  Biso   1.000  C
  C45      1.0000 0.72420  0.84180  0.37460  Biso   1.000  C
  C46      1.0000 0.77580  0.34180  0.12540  Biso   1.000  C
  C47      1.0000 0.27580  0.15820  0.62540  Biso   1.000  C
  C48      1.0000 0.22420  0.65820  0.87460  Biso   1.000  C
  H41      1.0000 0.70400  0.79040  0.39080  Biso   1.000  H
  H42      1.0000 0.79600  0.29040  0.10920  Biso   1.000  H
  H43      1.0000 0.29600  0.20960  0.60920  Biso   1.000  H
  H44      1.0000 0.20400  0.70960  0.89080  Biso   1.000  H
  C49      1.0000 0.65460  0.90790  0.37110  Biso   1.000  C
  C50      1.0000 0.84540  0.40790  0.12890  Biso   1.000  C
  C51      1.0000 0.34540  0.09210  0.62890  Biso   1.000  C
  C52      1.0000 0.15460  0.59210  0.87110  Biso   1.000  C
  C53      1.0000 0.38600  0.25300  0.87220  Biso   1.000  C
  C54      1.0000 0.11400  0.75300  0.62780  Biso   1.000  C
  C55      1.0000 0.61400  0.74700  0.12780  Biso   1.000  C
  C56      1.0000 0.88600  0.24700  0.37220  Biso   1.000  C
  H45      1.0000 0.35770  0.30300  0.89130  Biso   1.000  H
  H46      1.0000 0.14230  0.80300  0.60870  Biso   1.000  H
  H47      1.0000 0.64230  0.69700  0.10870  Biso   1.000  H
  H48      1.0000 0.85770  0.19700  0.39130  Biso   1.000  H
  H49      1.0000 0.34080  0.20700  0.88310  Biso   1.000  H
  H50      1.0000 0.15920  0.70700  0.61690  Biso   1.000  H
  H51      1.0000 0.65920  0.79300  0.11690  Biso   1.000  H
  H52      1.0000 0.84080  0.29300  0.38310  Biso   1.000  H
  C57      1.0000 0.37800  0.26100  0.79500  Biso   1.000  C
  C58      1.0000 0.12200  0.76100  0.70500  Biso   1.000  C
  C59      1.0000 0.62200  0.73900  0.20500  Biso   1.000  C
  C60      1.0000 0.87800  0.23900  0.29500  Biso   1.000  C
  H53      1.0000 0.30290  0.26670  0.77470  Biso   1.000  H
  H54      1.0000 0.19710  0.76670  0.72530  Biso   1.000  H
  H55      1.0000 0.69710  0.73330  0.22530  Biso   1.000  H
  H56      1.0000 0.80290  0.23330  0.27470  Biso   1.000  H
  H57      1.0000 0.40830  0.21220  0.77580  Biso   1.000  H
  H58      1.0000 0.09170  0.71220  0.72420  Biso   1.000  H
  H59      1.0000 0.59170  0.78780  0.22420  Biso   1.000  H
  H60      1.0000 0.90830  0.28780  0.27580  Biso   1.000  H
  H61      1.0000 0.41860  0.30880  0.78370  Biso   1.000  H
  H62      1.0000 0.08140  0.80880  0.71630  Biso   1.000  H
  H63      1.0000 0.58140  0.69120  0.21630  Biso   1.000  H
  H64      1.0000 0.91860  0.19120  0.28370  Biso   1.000  H
  C61      1.0000 0.48600  0.35900  0.98200  Biso   1.000  C
  C62      1.0000 0.01400  0.85900  0.51800  Biso   1.000  C
  C63      1.0000 0.51400  0.64100  0.01800  Biso   1.000  C
  C64      1.0000 0.98600  0.14100  0.48200  Biso   1.000  C
  H65      1.0000 0.53310  0.38110  0.02290  Biso   1.000  H
  H66      1.0000 0.96690  0.88110  0.47710  Biso   1.000  H
  H67      1.0000 0.46690  0.61890  0.97710  Biso   1.000  H
  H68      1.0000 0.03310  0.11890  0.52290  Biso   1.000  H
  H69      1.0000 0.41730  0.34380  0.99530  Biso   1.000  H
  H70      1.0000 0.08270  0.84380  0.50470  Biso   1.000  H
  H71      1.0000 0.58270  0.65620  0.00470  Biso   1.000  H
  H72      1.0000 0.91730  0.15620  0.49530  Biso   1.000  H
  H73      1.0000 0.47510  0.40120  0.94490  Biso   1.000  H
  H74      1.0000 0.02490  0.90120  0.55510  Biso   1.000  H
  H75      1.0000 0.52490  0.59880  0.05510  Biso   1.000  H
  H76      1.0000 0.97510  0.09880  0.44490  Biso   1.000  H
  C65      1.0000 0.53700  0.28800  0.95500  Biso   1.000  C
  C66      1.0000 0.96300  0.78800  0.54500  Biso   1.000  C
  C67      1.0000 0.46300  0.71200  0.04500  Biso   1.000  C
  C68      1.0000 0.03700  0.21200  0.45500  Biso   1.000  C
  H77      1.0000 0.60280  0.30890  0.93760  Biso   1.000  H
  H78      1.0000 0.89720  0.80890  0.56240  Biso   1.000  H
  H79      1.0000 0.39720  0.69110  0.06240  Biso   1.000  H
  H80      1.0000 0.10280  0.19110  0.43760  Biso   1.000  H
  H81      1.0000 0.56240  0.25440  0.99660  Biso   1.000  H
  H82      1.0000 0.93760  0.75440  0.50340  Biso   1.000  H
  H83      1.0000 0.43760  0.74560  0.00340  Biso   1.000  H
  H84      1.0000 0.06240  0.24560  0.49660  Biso   1.000  H
  C69      1.0000 0.55500  0.16200  0.89500  Biso   1.000  C
  C70      1.0000 0.94500  0.66200  0.60500  Biso   1.000  C
  C71      1.0000 0.44500  0.83800  0.10500  Biso   1.000  C
  C72      1.0000 0.05500  0.33800  0.39500  Biso   1.000  C
  H85      1.0000 0.61680  0.15620  0.93300  Biso   1.000  H
  H86      1.0000 0.88320  0.65620  0.56700  Biso   1.000  H
  H87      1.0000 0.38320  0.84380  0.06700  Biso   1.000  H
  H88      1.0000 0.11680  0.34380  0.43300  Biso   1.000  H
  H89      1.0000 0.58380  0.16790  0.85010  Biso   1.000  H
  H90      1.0000 0.91620  0.66790  0.64990  Biso   1.000  H
  H91      1.0000 0.41620  0.83210  0.14990  Biso   1.000  H
  H92      1.0000 0.08380  0.33210  0.35010  Biso   1.000  H
  C73      1.0000 0.49200  0.08200  0.89200  Biso   1.000  C
  C74      1.0000 0.00800  0.58200  0.60800  Biso   1.000  C
  C75      1.0000 0.50800  0.91800  0.10800  Biso   1.000  C
  C76      1.0000 0.99200  0.41800  0.39200  Biso   1.000  C
  H93      1.0000 0.54190  0.03630  0.89220  Biso   1.000  H
  H94      1.0000 0.95810  0.53630  0.60780  Biso   1.000  H
  H95      1.0000 0.45810  0.96370  0.10780  Biso   1.000  H
  H96      1.0000 0.04190  0.46370  0.39220  Biso   1.000  H
  H97      1.0000 0.44080  0.08070  0.84800  Biso   1.000  H
  H98      1.0000 0.05920  0.58070  0.65200  Biso   1.000  H
  H99      1.0000 0.55920  0.91930  0.15200  Biso   1.000  H
  H100     1.0000 0.94080  0.41930  0.34800  Biso   1.000  H
  H101     1.0000 0.45330  0.07840  0.93230  Biso   1.000  H
  H102     1.0000 0.04670  0.57840  0.56770  Biso   1.000  H
  H103     1.0000 0.54670  0.92160  0.06770  Biso   1.000  H
  H104     1.0000 0.95330  0.42160  0.43230  Biso   1.000  H
  N1       1.0000 0.36330  0.22510  0.21760  Biso   1.000  N
  N2       1.0000 0.13670  0.72510  0.28240  Biso   1.000  N
  N3       1.0000 0.63670  0.77490  0.78240  Biso   1.000  N
  N4       1.0000 0.86330  0.27490  0.71760  Biso   1.000  N
  N5       1.0000 0.45070  0.11840  0.26460  Biso   1.000  N
  N6       1.0000 0.04930  0.61840  0.23540  Biso   1.000  N
  N7       1.0000 0.54930  0.88160  0.73540  Biso   1.000  N
  N8       1.0000 0.95070  0.38160  0.76460  Biso   1.000  N
  N9       1.0000 0.36590  0.13250  0.30400  Biso   1.000  N
  N10      1.0000 0.13410  0.63250  0.19600  Biso   1.000  N
  N11      1.0000 0.63410  0.86750  0.69600  Biso   1.000  N
  N12      1.0000 0.86590  0.36750  0.80400  Biso   1.000  N
  N13      1.0000 0.23250  0.37150  0.07840  Biso   1.000  N
  N14      1.0000 0.26750  0.87150  0.42160  Biso   1.000  N
  N15      1.0000 0.76750  0.62850  0.92160  Biso   1.000  N
  N16      1.0000 0.73250  0.12850  0.57840  Biso   1.000  N
  N17      1.0000 0.63310  0.08270  0.48250  Biso   1.000  N
  N18      1.0000 0.86690  0.58270  0.01750  Biso   1.000  N
  N19      1.0000 0.36690  0.91730  0.51750  Biso   1.000  N
  N20      1.0000 0.13310  0.41730  0.98250  Biso   1.000  N
  N21      1.0000 0.16980  0.48760  0.01780  Biso   1.000  N
  N22      1.0000 0.33020  0.98760  0.48220  Biso   1.000  N
  N23      1.0000 0.83020  0.51240  0.98220  Biso   1.000  N
  N24      1.0000 0.66980  0.01240  0.51780  Biso   1.000  N
  N25      1.0000 0.49600  0.23940  0.90830  Biso   1.000  N
  N26      1.0000 0.00400  0.73940  0.59170  Biso   1.000  N
  N27      1.0000 0.50400  0.76060  0.09170  Biso   1.000  N
  N28      1.0000 0.99600  0.26060  0.40830  Biso   1.000  N
  O1       1.0000 0.18770  0.71120  0.04930  Biso   1.000  O
  O2       1.0000 0.31230  0.21120  0.45070  Biso   1.000  O
  O3       1.0000 0.81230  0.28880  0.95070  Biso   1.000  O
  O4       1.0000 0.68770  0.78880  0.54930  Biso   1.000  O
  O5       1.0000 0.10930  0.06590  0.18300  Biso   1.000  O
  O6       1.0000 0.39070  0.56590  0.31700  Biso   1.000  O
  O7       1.0000 0.89070  0.93410  0.81700  Biso   1.000  O
  O8       1.0000 0.60930  0.43410  0.68300  Biso   1.000  O
  O9       1.0000 0.14300  0.12900  0.34800  Biso   1.000  O
  O10      1.0000 0.35700  0.62900  0.15200  Biso   1.000  O
  O11      1.0000 0.85700  0.87100  0.65200  Biso   1.000  O
  O12      1.0000 0.64300  0.37100  0.84800  Biso   1.000  O
  O13      1.0000 0.00460  0.79150  0.08490  Biso   1.000  O
  O14      1.0000 0.49540  0.29150  0.41510  Biso   1.000  O
  O15      1.0000 0.99540  0.20850  0.91510  Biso   1.000  O
  O16      1.0000 0.50460  0.70850  0.58490  Biso   1.000  O
  O17      1.0000 0.19720  0.86830  0.11220  Biso   1.000  O
  O18      1.0000 0.30280  0.36830  0.38780  Biso   1.000  O
  O19      1.0000 0.80280  0.13170  0.88780  Biso   1.000  O
  O20      1.0000 0.69720  0.63170  0.61220  Biso   1.000  O
  O21      1.0000 0.04140  0.91300  0.18150  Biso   1.000  O
  O22      1.0000 0.45860  0.41300  0.31850  Biso   1.000  O
  O23      1.0000 0.95860  0.08700  0.81850  Biso   1.000  O
  O24      1.0000 0.54140  0.58700  0.68150  Biso   1.000  O
  O25      1.0000 0.25580  0.94440  0.24210  Biso   1.000  O
  O26      1.0000 0.24420  0.44440  0.25790  Biso   1.000  O
  O27      1.0000 0.74420  0.05560  0.75790  Biso   1.000  O
  O28      1.0000 0.75580  0.55560  0.74210  Biso   1.000  O
  O29      1.0000 0.97540  0.21740  0.04900  Biso   1.000  O
  O30      1.0000 0.52460  0.71740  0.45100  Biso   1.000  O
  O31      1.0000 0.02460  0.78260  0.95100  Biso   1.000  O
  O32      1.0000 0.47540  0.28260  0.54900  Biso   1.000  O
  O33      1.0000 0.21900  0.85070  0.97420  Biso   1.000  O
  O34      1.0000 0.28100  0.35070  0.52580  Biso   1.000  O
  O35      1.0000 0.78100  0.14930  0.02580  Biso   1.000  O
  O36      1.0000 0.71900  0.64930  0.47420  Biso   1.000  O
  O37      1.0000 0.07300  0.23450  0.19210  Biso   1.000  O
  O38      1.0000 0.42700  0.73450  0.30790  Biso   1.000  O
  O39      1.0000 0.92700  0.76550  0.80790  Biso   1.000  O
  O40      1.0000 0.57300  0.26550  0.69210  Biso   1.000  O
  O41      1.0000 0.90980  0.11840  0.14800  Biso   1.000  O
  O42      1.0000 0.59020  0.61840  0.35200  Biso   1.000  O
  O43      1.0000 0.09020  0.88160  0.85200  Biso   1.000  O
  O44      1.0000 0.40980  0.38160  0.64800  Biso   1.000  O
  O45      1.0000 0.31310  0.90940  0.85690  Biso   1.000  O
  O46      1.0000 0.18690  0.40940  0.64310  Biso   1.000  O
  O47      1.0000 0.68690  0.09060  0.14310  Biso   1.000  O
  O48      1.0000 0.81310  0.59060  0.35690  Biso   1.000  O
  O49      1.0000 0.84050  0.96480  0.14850  Biso   1.000  O
  O50      1.0000 0.65950  0.46480  0.35150  Biso   1.000  O
  O51      1.0000 0.15950  0.03520  0.85150  Biso   1.000  O
  O52      1.0000 0.34050  0.53520  0.64850  Biso   1.000  O
  O53      1.0000 0.87270  0.80070  0.19000  Biso   1.000  O
  O54      1.0000 0.62730  0.30070  0.31000  Biso   1.000  O
  O55      1.0000 0.12730  0.19930  0.81000  Biso   1.000  O
  O56      1.0000 0.37270  0.69930  0.69000  Biso   1.000  O
  O57      1.0000 0.19640  0.15130  0.94950  Biso   1.000  O
  O58      1.0000 0.30360  0.65130  0.55050  Biso   1.000  O
  O59      1.0000 0.80360  0.84870  0.05050  Biso   1.000  O
  O60      1.0000 0.69640  0.34870  0.44950  Biso   1.000  O
  O61      1.0000 0.38400  0.14120  0.04940  Biso   1.000  O
  O62      1.0000 0.11600  0.64120  0.45060  Biso   1.000  O
  O63      1.0000 0.61600  0.85880  0.95060  Biso   1.000  O
  O64      1.0000 0.88400  0.35880  0.54940  Biso   1.000  O
  O65      1.0000 0.27180  0.02070  0.11250  Biso   1.000  O
  O66      1.0000 0.22820  0.52070  0.38750  Biso   1.000  O
  O67      1.0000 0.72820  0.97930  0.88750  Biso   1.000  O
  O68      1.0000 0.77180  0.47930  0.61250  Biso   1.000  O
  O69      1.0000 0.29410  0.00640  0.97420  Biso   1.000  O
  O70      1.0000 0.20590  0.50640  0.52580  Biso   1.000  O
  O71      1.0000 0.70590  0.99360  0.02580  Biso   1.000  O
  O72      1.0000 0.79410  0.49360  0.47420  Biso   1.000  O
  O73      1.0000 0.17590  0.16510  0.08520  Biso   1.000  O
  O74      1.0000 0.32410  0.66510  0.41480  Biso   1.000  O
  O75      1.0000 0.82410  0.83490  0.91480  Biso   1.000  O
  O76      1.0000 0.67590  0.33490  0.58520  Biso   1.000  O
  O77      1.0000 0.08940  0.04360  0.06230  Biso   1.000  O
  O78      1.0000 0.41060  0.54360  0.43770  Biso   1.000  O
  O79      1.0000 0.91060  0.95640  0.93770  Biso   1.000  O
  O80      1.0000 0.58940  0.45640  0.56230  Biso   1.000  O
  O81      1.0000 0.05370  0.92730  0.96270  Biso   1.000  O
  O82      1.0000 0.44630  0.42730  0.53730  Biso   1.000  O
  O83      1.0000 0.94630  0.07270  0.03730  Biso   1.000  O
  O84      1.0000 0.55370  0.57270  0.46270  Biso   1.000  O
  O85      1.0000 0.96010  0.06950  0.93970  Biso   1.000  O
  O86      1.0000 0.53990  0.56950  0.56030  Biso   1.000  O
  O87      1.0000 0.03990  0.93050  0.06030  Biso   1.000  O
  O88      1.0000 0.46010  0.43050  0.43970  Biso   1.000  O
  O89      1.0000 0.10580  0.03050  0.96450  Biso   1.000  O
  O90      1.0000 0.39420  0.53050  0.53550  Biso   1.000  O
  O91      1.0000 0.89420  0.96950  0.03550  Biso   1.000  O
  O92      1.0000 0.60580  0.46950  0.46450  Biso   1.000  O
  O93      1.0000 0.67530  0.13340  0.33830  Biso   1.000  O
  O94      1.0000 0.82470  0.63340  0.16170  Biso   1.000  O
  O95      1.0000 0.32470  0.86660  0.66170  Biso   1.000  O
  O96      1.0000 0.17530  0.36660  0.83830  Biso   1.000  O
  H105     1.0000 0.63740  0.17530  0.33240  Biso   1.000  H
  H106     1.0000 0.86260  0.67530  0.16760  Biso   1.000  H
  H107     1.0000 0.36260  0.82470  0.66760  Biso   1.000  H
  H108     1.0000 0.13740  0.32470  0.83240  Biso   1.000  H
