data_image0
_cell_length_a       12.614
_cell_length_b       13.824
_cell_length_c       13.983
_cell_angle_alpha    89.79
_cell_angle_beta     79.34
_cell_angle_gamma    63.57

_symmetry_space_group_name_H-M    "P 1"
_symmetry_int_tables_number       1

loop_
  _symmetry_equiv_pos_as_xyz
  'x, y, z'

loop_
  _atom_site_label
  _atom_site_occupancy
  _atom_site_fract_x
  _atom_site_fract_y
  _atom_site_fract_z
  _atom_site_thermal_displace_type
  _atom_site_B_iso_or_equiv
  _atom_site_type_symbol
  Mo1      1.0000 0.22841  0.73533  0.46441  Biso   1.000  Mo
  Mo2      1.0000 0.77159  0.26467  0.53559  Biso   1.000  Mo
  Mo3      1.0000 0.41191  0.51418  0.32414  Biso   1.000  Mo
  Mo4      1.0000 0.58809  0.48582  0.67586  Biso   1.000  Mo
  Mo5      1.0000 0.44996  0.71666  0.56157  Biso   1.000  Mo
  Mo6      1.0000 0.55004  0.28334  0.43843  Biso   1.000  Mo
  Mo7      1.0000 0.62970  0.49730  0.42196  Biso   1.000  Mo
  Mo8      1.0000 0.37030  0.50270  0.57804  Biso   1.000  Mo
  Mo9      1.0000 0.48760  0.80032  0.97005  Biso   1.000  Mo
  Mo10     1.0000 0.51240  0.19968  0.02995  Biso   1.000  Mo
  Mo11     1.0000 0.37705  0.02858  0.09911  Biso   1.000  Mo
  Mo12     1.0000 0.62295  0.97142  0.90089  Biso   1.000  Mo
  Mo13     1.0000 0.63783  0.96994  0.14719  Biso   1.000  Mo
  Mo14     1.0000 0.36217  0.03006  0.85281  Biso   1.000  Mo
  Mo15     1.0000 0.75078  0.74026  0.01745  Biso   1.000  Mo
  Mo16     1.0000 0.24922  0.25974  0.98255  Biso   1.000  Mo
  K1       1.0000 0.49570  0.76630  0.26575  Biso   1.000  K
  K2       1.0000 0.50430  0.23370  0.73425  Biso   1.000  K
  O1       1.0000 0.45370  0.59040  0.24290  Biso   1.000  O
  O2       1.0000 0.54630  0.40960  0.75710  Biso   1.000  O
  O3       1.0000 0.66080  0.57350  0.33640  Biso   1.000  O
  O4       1.0000 0.33920  0.42650  0.66360  Biso   1.000  O
  O5       1.0000 0.49170  0.77940  0.46650  Biso   1.000  O
  O6       1.0000 0.50830  0.22060  0.53350  Biso   1.000  O
  O7       1.0000 0.28080  0.79900  0.37820  Biso   1.000  O
  O8       1.0000 0.71920  0.20100  0.62180  Biso   1.000  O
  O9       1.0000 0.46460  0.77370  0.66150  Biso   1.000  O
  O10      1.0000 0.53540  0.22630  0.33850  Biso   1.000  O
  O11      1.0000 0.38610  0.42940  0.25630  Biso   1.000  O
  O12      1.0000 0.61390  0.57060  0.74370  Biso   1.000  O
  O13      1.0000 0.07550  0.81220  0.49530  Biso   1.000  O
  O14      1.0000 0.92450  0.18780  0.50470  Biso   1.000  O
  O15      1.0000 0.23120  0.60990  0.56960  Biso   1.000  O
  O16      1.0000 0.76880  0.39010  0.43040  Biso   1.000  O
  O17      1.0000 0.28160  0.77640  0.57170  Biso   1.000  O
  O18      1.0000 0.71840  0.22360  0.42830  Biso   1.000  O
  O19      1.0000 0.24840  0.61440  0.38160  Biso   1.000  O
  O20      1.0000 0.75160  0.38560  0.61840  Biso   1.000  O
  O21      1.0000 0.39100  0.41880  0.45890  Biso   1.000  O
  O22      1.0000 0.60900  0.58120  0.54110  Biso   1.000  O
  O23      1.0000 0.57670  0.41380  0.34620  Biso   1.000  O
  O24      1.0000 0.42330  0.58620  0.65380  Biso   1.000  O
  O25      1.0000 0.43800  0.59340  0.45720  Biso   1.000  O
  O26      1.0000 0.56200  0.40660  0.54280  Biso   1.000  O
  O27      1.0000 0.44920  0.75340  0.07640  Biso   1.000  O
  O28      1.0000 0.55080  0.24660  0.92360  Biso   1.000  O
  O29      1.0000 0.34780  0.96620  0.19720  Biso   1.000  O
  O30      1.0000 0.65220  0.03380  0.80280  Biso   1.000  O
  O31      1.0000 0.59390  0.90840  0.24110  Biso   1.000  O
  O32      1.0000 0.40610  0.09160  0.75890  Biso   1.000  O
  O33      1.0000 0.70390  0.69350  0.12110  Biso   1.000  O
  O34      1.0000 0.29610  0.30650  0.87890  Biso   1.000  O
  O35      1.0000 0.89440  0.64330  0.97040  Biso   1.000  O
  O36      1.0000 0.10560  0.35670  0.02960  Biso   1.000  O
  O37      1.0000 0.43740  0.75170  0.88770  Biso   1.000  O
  O38      1.0000 0.56260  0.24830  0.11230  Biso   1.000  O
  O39      1.0000 0.70140  0.03820  0.19560  Biso   1.000  O
  O40      1.0000 0.29860  0.96180  0.80440  Biso   1.000  O
  O41      1.0000 0.65480  0.71540  0.93680  Biso   1.000  O
  O42      1.0000 0.34520  0.28460  0.06320  Biso   1.000  O
  O43      1.0000 0.77640  0.85070  0.07570  Biso   1.000  O
  O44      1.0000 0.22360  0.14930  0.92430  Biso   1.000  O
  O45      1.0000 0.24460  0.15160  0.10730  Biso   1.000  O
  O46      1.0000 0.75540  0.84840  0.89270  Biso   1.000  O
  O47      1.0000 0.35030  0.95260  0.99900  Biso   1.000  O
  O48      1.0000 0.64970  0.04740  0.00100  Biso   1.000  O
  O49      1.0000 0.52620  0.91000  0.85370  Biso   1.000  O
  O50      1.0000 0.47380  0.09000  0.14630  Biso   1.000  O
  O51      1.0000 0.55710  0.90570  0.04130  Biso   1.000  O
  O52      1.0000 0.44290  0.09430  0.95870  Biso   1.000  O
  C1       1.0000 0.30570  0.52390  0.89640  Biso   1.000  C
  C2       1.0000 0.69430  0.47610  0.10360  Biso   1.000  C
  C3       1.0000 0.35620  0.56510  0.94930  Biso   1.000  C
  C4       1.0000 0.64380  0.43490  0.05070  Biso   1.000  C
  C5       1.0000 0.16420  0.62100  0.02310  Biso   1.000  C
  C6       1.0000 0.83580  0.37900  0.97690  Biso   1.000  C
  C7       1.0000 0.10260  0.35240  0.73820  Biso   1.000  C
  C8       1.0000 0.89740  0.64760  0.26180  Biso   1.000  C
  C9       1.0000 0.02870  0.33060  0.68970  Biso   1.000  C
  C10      1.0000 0.97130  0.66940  0.31030  Biso   1.000  C
  C11      1.0000 0.91870  0.48210  0.78910  Biso   1.000  C
  C12      1.0000 0.08130  0.51790  0.21090  Biso   1.000  C
  C13      1.0000 0.99440  0.13800  0.08650  Biso   1.000  C
  C14      1.0000 0.00560  0.86200  0.91350  Biso   1.000  C
  C15      1.0000 0.89220  0.13440  0.07530  Biso   1.000  C
  C16      1.0000 0.10780  0.86560  0.92470  Biso   1.000  C
  C17      1.0000 0.84080  0.24500  0.20470  Biso   1.000  C
  C18      1.0000 0.15920  0.75500  0.79530  Biso   1.000  C
  C19      1.0000 0.22630  0.29790  0.30490  Biso   1.000  C
  C20      1.0000 0.77370  0.70210  0.69510  Biso   1.000  C
  C21      1.0000 0.23990  0.34510  0.38430  Biso   1.000  C
  C22      1.0000 0.76010  0.65490  0.61570  Biso   1.000  C
  C23      1.0000 0.06160  0.34290  0.41270  Biso   1.000  C
  C24      1.0000 0.93840  0.65710  0.58730  Biso   1.000  C
  C25      1.0000 0.12780  0.88670  0.21090  Biso   1.000  C
  C26      1.0000 0.87220  0.11330  0.78910  Biso   1.000  C
  C27      1.0000 0.03000  0.88320  0.18880  Biso   1.000  C
  C28      1.0000 0.97000  0.11680  0.81120  Biso   1.000  C
  C29      1.0000 0.96820  0.01820  0.29930  Biso   1.000  C
  C30      1.0000 0.03180  0.98180  0.70070  Biso   1.000  C
  C31      1.0000 0.35200  0.07550  0.40160  Biso   1.000  C
  C32      1.0000 0.64800  0.92450  0.59840  Biso   1.000  C
  C33      1.0000 0.38140  0.10380  0.48670  Biso   1.000  C
  C34      1.0000 0.61860  0.89620  0.51330  Biso   1.000  C
  C35      1.0000 0.23120  0.06120  0.52770  Biso   1.000  C
  C36      1.0000 0.76880  0.93880  0.47230  Biso   1.000  C
  N1       1.0000 0.19270  0.55620  0.93580  Biso   1.000  N
  N2       1.0000 0.80730  0.44380  0.06420  Biso   1.000  N
  N3       1.0000 0.26970  0.62150  0.02810  Biso   1.000  N
  N4       1.0000 0.73030  0.37850  0.97190  Biso   1.000  N
  N5       1.0000 0.03010  0.44980  0.80010  Biso   1.000  N
  N6       1.0000 0.96990  0.55020  0.19990  Biso   1.000  N
  N7       1.0000 0.91640  0.41090  0.72040  Biso   1.000  N
  N8       1.0000 0.08360  0.58910  0.27960  Biso   1.000  N
  N9       1.0000 0.95920  0.20960  0.16990  Biso   1.000  N
  N10      1.0000 0.04080  0.79040  0.83010  Biso   1.000  N
  N11      1.0000 0.79710  0.19990  0.14440  Biso   1.000  N
  N12      1.0000 0.20290  0.80010  0.85560  Biso   1.000  N
  N13      1.0000 0.12070  0.29600  0.31960  Biso   1.000  N
  N14      1.0000 0.87930  0.70400  0.68040  Biso   1.000  N
  N15      1.0000 0.13390  0.37320  0.45140  Biso   1.000  N
  N16      1.0000 0.86610  0.62680  0.54860  Biso   1.000  N
  N17      1.0000 0.08650  0.97260  0.28300  Biso   1.000  N
  N18      1.0000 0.91350  0.02740  0.71700  Biso   1.000  N
  N19      1.0000 0.92810  0.96670  0.24380  Biso   1.000  N
  N20      1.0000 0.07190  0.03330  0.75620  Biso   1.000  N
  N21      1.0000 0.26400  0.04880  0.42650  Biso   1.000  N
  N22      1.0000 0.73600  0.95120  0.57350  Biso   1.000  N
  N23      1.0000 0.30490  0.09440  0.56090  Biso   1.000  N
  N24      1.0000 0.69510  0.90560  0.43910  Biso   1.000  N
  Cu1      1.0000 0.09236  0.51475  0.87817  Biso   1.000  Cu
  Cu2      1.0000 0.90764  0.48525  0.12183  Biso   1.000  Cu
  Cu3      1.0000 0.18349  0.00896  0.34670  Biso   1.000  Cu
  Cu4      1.0000 0.81651  0.99104  0.65330  Biso   1.000  Cu
  Cu5      1.0000 0.05511  0.24461  0.23512  Biso   1.000  Cu
  Cu6      1.0000 0.94489  0.75539  0.76488  Biso   1.000  Cu
