data_image0
_cell_length_a       14.1935
_cell_length_b       13.7879
_cell_length_c       22.222
_cell_angle_alpha    90
_cell_angle_beta     107.888
_cell_angle_gamma    90

_symmetry_space_group_name_H-M    "P 1"
_symmetry_int_tables_number       1

loop_
  _symmetry_equiv_pos_as_xyz
  'x, y, z'

loop_
  _atom_site_label
  _atom_site_occupancy
  _atom_site_fract_x
  _atom_site_fract_y
  _atom_site_fract_z
  _atom_site_thermal_displace_type
  _atom_site_B_iso_or_equiv
  _atom_site_type_symbol
  I1       1.0000 0.06470  0.94190  0.25140  Biso   1.000  I
  I2       1.0000 0.43530  0.44190  0.24860  Biso   1.000  I
  I3       1.0000 0.93530  0.05810  0.74860  Biso   1.000  I
  I4       1.0000 0.56470  0.55810  0.75140  Biso   1.000  I
  I5       1.0000 0.98760  0.22960  0.30890  Biso   1.000  I
  I6       1.0000 0.51240  0.72960  0.19110  Biso   1.000  I
  I7       1.0000 0.01240  0.77040  0.69110  Biso   1.000  I
  I8       1.0000 0.48760  0.27040  0.80890  Biso   1.000  I
  Cu1      1.0000 0.12030  0.08960  0.32930  Biso   1.000  Cu
  Cu2      1.0000 0.37970  0.58960  0.17070  Biso   1.000  Cu
  Cu3      1.0000 0.87970  0.91040  0.67070  Biso   1.000  Cu
  Cu4      1.0000 0.62030  0.41040  0.82930  Biso   1.000  Cu
  Cu5      1.0000 0.93440  0.08340  0.22930  Biso   1.000  Cu
  Cu6      1.0000 0.56560  0.58340  0.27070  Biso   1.000  Cu
  Cu7      1.0000 0.06560  0.91660  0.77070  Biso   1.000  Cu
  Cu8      1.0000 0.43440  0.41660  0.72930  Biso   1.000  Cu
  S1       1.0000 0.77570  0.03070  0.21720  Biso   1.000  S
  S2       1.0000 0.72430  0.53070  0.28280  Biso   1.000  S
  S3       1.0000 0.22430  0.96930  0.78280  Biso   1.000  S
  S4       1.0000 0.27570  0.46930  0.71720  Biso   1.000  S
  S5       1.0000 0.27630  0.15000  0.33260  Biso   1.000  S
  S6       1.0000 0.22370  0.65000  0.16740  Biso   1.000  S
  S7       1.0000 0.72370  0.85000  0.66740  Biso   1.000  S
  S8       1.0000 0.77630  0.35000  0.83260  Biso   1.000  S
  S9       1.0000 0.43570  0.34430  0.63390  Biso   1.000  S
  S10      1.0000 0.06430  0.84430  0.86610  Biso   1.000  S
  S11      1.0000 0.56430  0.65570  0.36610  Biso   1.000  S
  S12      1.0000 0.93570  0.15570  0.13390  Biso   1.000  S
  S13      1.0000 0.85310  0.97090  0.56670  Biso   1.000  S
  S14      1.0000 0.64690  0.47090  0.93330  Biso   1.000  S
  S15      1.0000 0.14690  0.02910  0.43330  Biso   1.000  S
  S16      1.0000 0.35310  0.52910  0.06670  Biso   1.000  S
  C1       1.0000 0.72620  0.10390  0.26810  Biso   1.000  C
  C2       1.0000 0.77380  0.60390  0.23190  Biso   1.000  C
  C3       1.0000 0.27380  0.89610  0.73190  Biso   1.000  C
  C4       1.0000 0.22620  0.39610  0.76810  Biso   1.000  C
  C5       1.0000 0.62130  0.08100  0.26830  Biso   1.000  C
  C6       1.0000 0.87870  0.58100  0.23170  Biso   1.000  C
  C7       1.0000 0.37870  0.91900  0.73170  Biso   1.000  C
  C8       1.0000 0.12130  0.41900  0.76830  Biso   1.000  C
  C9       1.0000 0.54300  0.10560  0.20690  Biso   1.000  C
  C10      1.0000 0.95700  0.60560  0.29310  Biso   1.000  C
  C11      1.0000 0.45700  0.89440  0.79310  Biso   1.000  C
  C12      1.0000 0.04300  0.39440  0.70690  Biso   1.000  C
  C13      1.0000 0.43920  0.07970  0.21070  Biso   1.000  C
  C14      1.0000 0.06080  0.57970  0.28930  Biso   1.000  C
  C15      1.0000 0.56080  0.92030  0.78930  Biso   1.000  C
  C16      1.0000 0.93920  0.42030  0.71070  Biso   1.000  C
  C17      1.0000 0.41610  0.13120  0.26580  Biso   1.000  C
  C18      1.0000 0.08390  0.63120  0.23420  Biso   1.000  C
  C19      1.0000 0.58390  0.86880  0.73420  Biso   1.000  C
  C20      1.0000 0.91610  0.36880  0.76580  Biso   1.000  C
  C21      1.0000 0.49680  0.10640  0.32630  Biso   1.000  C
  C22      1.0000 0.00320  0.60640  0.17370  Biso   1.000  C
  C23      1.0000 0.50320  0.89360  0.67370  Biso   1.000  C
  C24      1.0000 0.99680  0.39360  0.82630  Biso   1.000  C
  C25      1.0000 0.60060  0.13150  0.32310  Biso   1.000  C
  C26      1.0000 0.89940  0.63150  0.17690  Biso   1.000  C
  C27      1.0000 0.39940  0.86850  0.67690  Biso   1.000  C
  C28      1.0000 0.10060  0.36850  0.82310  Biso   1.000  C
  C29      1.0000 0.31290  0.10340  0.26680  Biso   1.000  C
  C30      1.0000 0.18710  0.60340  0.23320  Biso   1.000  C
  C31      1.0000 0.68710  0.89660  0.73320  Biso   1.000  C
  C32      1.0000 0.81290  0.39660  0.76680  Biso   1.000  C
  C33      1.0000 0.27030  0.28150  0.32080  Biso   1.000  C
  C34      1.0000 0.22970  0.78150  0.17920  Biso   1.000  C
  C35      1.0000 0.72970  0.71850  0.67920  Biso   1.000  C
  C36      1.0000 0.77030  0.21850  0.82080  Biso   1.000  C
  C37      1.0000 0.30420  0.32940  0.38450  Biso   1.000  C
  C38      1.0000 0.19580  0.82940  0.11550  Biso   1.000  C
  C39      1.0000 0.69580  0.67060  0.61550  Biso   1.000  C
  C40      1.0000 0.80420  0.17060  0.88450  Biso   1.000  C
  C41      1.0000 0.23890  0.35230  0.41690  Biso   1.000  C
  C42      1.0000 0.26110  0.85230  0.08310  Biso   1.000  C
  C43      1.0000 0.76110  0.64770  0.58310  Biso   1.000  C
  C44      1.0000 0.73890  0.14770  0.91690  Biso   1.000  C
  C45      1.0000 0.27220  0.38920  0.47780  Biso   1.000  C
  C46      1.0000 0.22780  0.88920  0.02220  Biso   1.000  C
  C47      1.0000 0.72780  0.61080  0.52220  Biso   1.000  C
  C48      1.0000 0.77220  0.11080  0.97780  Biso   1.000  C
  C49      1.0000 0.37110  0.40540  0.50750  Biso   1.000  C
  C50      1.0000 0.12890  0.90540  0.99250  Biso   1.000  C
  C51      1.0000 0.62890  0.59460  0.49250  Biso   1.000  C
  C52      1.0000 0.87110  0.09460  0.00750  Biso   1.000  C
  C53      1.0000 0.43770  0.38460  0.47460  Biso   1.000  C
  C54      1.0000 0.06230  0.88460  0.02540  Biso   1.000  C
  C55      1.0000 0.56230  0.61540  0.52540  Biso   1.000  C
  C56      1.0000 0.93770  0.11540  0.97460  Biso   1.000  C
  C57      1.0000 0.40380  0.34750  0.41450  Biso   1.000  C
  C58      1.0000 0.09620  0.84750  0.08550  Biso   1.000  C
  C59      1.0000 0.59620  0.65250  0.58550  Biso   1.000  C
  C60      1.0000 0.90380  0.15250  0.91450  Biso   1.000  C
  C61      1.0000 0.40630  0.44070  0.57510  Biso   1.000  C
  C62      1.0000 0.09370  0.94070  0.92490  Biso   1.000  C
  C63      1.0000 0.59370  0.55930  0.42490  Biso   1.000  C
  C64      1.0000 0.90630  0.05930  0.07510  Biso   1.000  C
  C65      1.0000 0.56630  0.32310  0.64580  Biso   1.000  C
  C66      1.0000 0.93370  0.82310  0.85420  Biso   1.000  C
  C67      1.0000 0.43370  0.67690  0.35420  Biso   1.000  C
  C68      1.0000 0.06630  0.17690  0.14580  Biso   1.000  C
  C69      1.0000 0.59200  0.25070  0.60210  Biso   1.000  C
  C70      1.0000 0.90800  0.75070  0.89790  Biso   1.000  C
  C71      1.0000 0.40800  0.74930  0.39790  Biso   1.000  C
  C72      1.0000 0.09200  0.24930  0.10210  Biso   1.000  C
  C73      1.0000 0.70390  0.24410  0.61550  Biso   1.000  C
  C74      1.0000 0.79610  0.74410  0.88450  Biso   1.000  C
  C75      1.0000 0.29610  0.75590  0.38450  Biso   1.000  C
  C76      1.0000 0.20390  0.25590  0.11550  Biso   1.000  C
  C77      1.0000 0.73540  0.17120  0.57410  Biso   1.000  C
  C78      1.0000 0.76460  0.67120  0.92590  Biso   1.000  C
  C79      1.0000 0.26460  0.82880  0.42590  Biso   1.000  C
  C80      1.0000 0.23540  0.32880  0.07410  Biso   1.000  C
  C81      1.0000 0.69220  0.07150  0.57780  Biso   1.000  C
  C82      1.0000 0.80780  0.57150  0.92220  Biso   1.000  C
  C83      1.0000 0.30780  0.92850  0.42220  Biso   1.000  C
  C84      1.0000 0.19220  0.42850  0.07780  Biso   1.000  C
  C85      1.0000 0.58070  0.07820  0.56400  Biso   1.000  C
  C86      1.0000 0.91930  0.57820  0.93600  Biso   1.000  C
  C87      1.0000 0.41930  0.92180  0.43600  Biso   1.000  C
  C88      1.0000 0.08070  0.42180  0.06400  Biso   1.000  C
  C89      1.0000 0.55140  0.15010  0.60580  Biso   1.000  C
  C90      1.0000 0.94860  0.65010  0.89420  Biso   1.000  C
  C91      1.0000 0.44860  0.84990  0.39420  Biso   1.000  C
  C92      1.0000 0.05140  0.34990  0.10580  Biso   1.000  C
  C93      1.0000 0.72210  0.99710  0.53680  Biso   1.000  C
  C94      1.0000 0.77790  0.49710  0.96320  Biso   1.000  C
  C95      1.0000 0.27790  0.00290  0.46320  Biso   1.000  C
  C96      1.0000 0.22210  0.50290  0.03680  Biso   1.000  C
  C97      1.0000 0.86110  0.86420  0.52160  Biso   1.000  C
  C98      1.0000 0.63890  0.36420  0.97840  Biso   1.000  C
  C99      1.0000 0.13890  0.13580  0.47840  Biso   1.000  C
  C100     1.0000 0.36110  0.63580  0.02160  Biso   1.000  C
  C101     1.0000 0.83960  0.87790  0.45160  Biso   1.000  C
  C102     1.0000 0.66040  0.37790  0.04840  Biso   1.000  C
  C103     1.0000 0.16040  0.12210  0.54840  Biso   1.000  C
  C104     1.0000 0.33960  0.62210  0.95160  Biso   1.000  C
  C105     1.0000 0.90460  0.92290  0.42640  Biso   1.000  C
  C106     1.0000 0.59540  0.42290  0.07360  Biso   1.000  C
  C107     1.0000 0.09540  0.07710  0.57360  Biso   1.000  C
  C108     1.0000 0.40460  0.57710  0.92640  Biso   1.000  C
  C109     1.0000 0.88710  0.93400  0.36280  Biso   1.000  C
  C110     1.0000 0.61290  0.43400  0.13720  Biso   1.000  C
  C111     1.0000 0.11290  0.06600  0.63720  Biso   1.000  C
  C112     1.0000 0.38710  0.56600  0.86280  Biso   1.000  C
  C113     1.0000 0.79950  0.89980  0.32010  Biso   1.000  C
  C114     1.0000 0.70050  0.39980  0.17990  Biso   1.000  C
  C115     1.0000 0.20050  0.10020  0.67990  Biso   1.000  C
  C116     1.0000 0.29950  0.60020  0.82010  Biso   1.000  C
  C117     1.0000 0.73280  0.85540  0.34560  Biso   1.000  C
  C118     1.0000 0.76720  0.35540  0.15440  Biso   1.000  C
  C119     1.0000 0.26720  0.14460  0.65440  Biso   1.000  C
  C120     1.0000 0.23280  0.64460  0.84560  Biso   1.000  C
  C121     1.0000 0.75140  0.84470  0.40960  Biso   1.000  C
  C122     1.0000 0.74860  0.34470  0.09040  Biso   1.000  C
  C123     1.0000 0.24860  0.15530  0.59040  Biso   1.000  C
  C124     1.0000 0.25140  0.65530  0.90960  Biso   1.000  C
  C125     1.0000 0.77630  0.90940  0.24910  Biso   1.000  C
  C126     1.0000 0.72370  0.40940  0.25090  Biso   1.000  C
  C127     1.0000 0.22370  0.09060  0.75090  Biso   1.000  C
  C128     1.0000 0.27630  0.59060  0.74910  Biso   1.000  C
  C129     1.0000 0.70900  0.82800  0.06980  Biso   1.000  C
  C130     1.0000 0.79100  0.32800  0.43020  Biso   1.000  C
  C131     1.0000 0.29100  0.17200  0.93020  Biso   1.000  C
  C132     1.0000 0.20900  0.67200  0.56980  Biso   1.000  C
  C133     1.0000 0.63000  0.76000  0.03900  Biso   1.000  C
  C134     1.0000 0.87000  0.26000  0.46100  Biso   1.000  C
  C135     1.0000 0.37000  0.24000  0.96100  Biso   1.000  C
  C136     1.0000 0.13000  0.74000  0.53900  Biso   1.000  C
  C137     1.0000 0.63500  0.88400  0.98700  Biso   1.000  C
  C138     1.0000 0.86500  0.38400  0.51300  Biso   1.000  C
  C139     1.0000 0.36500  0.11600  0.01300  Biso   1.000  C
  C140     1.0000 0.13500  0.61600  0.48700  Biso   1.000  C
  C141     1.0000 0.53300  0.84700  0.00100  Biso   1.000  C
  C142     1.0000 0.96700  0.34700  0.49900  Biso   1.000  C
  C143     1.0000 0.46700  0.15300  0.99900  Biso   1.000  C
  C144     1.0000 0.03300  0.65300  0.50100  Biso   1.000  C
  O1       1.0000 0.64600  0.91900  0.04600  Biso   1.000  O
  O2       1.0000 0.85400  0.41900  0.45400  Biso   1.000  O
  O3       1.0000 0.35400  0.08100  0.95400  Biso   1.000  O
  O4       1.0000 0.14600  0.58100  0.54600  Biso   1.000  O
  H1       1.0000 0.77000  0.09750  0.31110  Biso   1.000  H
  H2       1.0000 0.73000  0.59750  0.18890  Biso   1.000  H
  H3       1.0000 0.23000  0.90250  0.68890  Biso   1.000  H
  H4       1.0000 0.27000  0.40250  0.81110  Biso   1.000  H
  H5       1.0000 0.72810  0.17120  0.25590  Biso   1.000  H
  H6       1.0000 0.77190  0.67120  0.24410  Biso   1.000  H
  H7       1.0000 0.27190  0.82880  0.74410  Biso   1.000  H
  H8       1.0000 0.22810  0.32880  0.75590  Biso   1.000  H
  H9       1.0000 0.61780  0.01100  0.27500  Biso   1.000  H
  H10      1.0000 0.88220  0.51100  0.22500  Biso   1.000  H
  H11      1.0000 0.38220  0.98900  0.72500  Biso   1.000  H
  H12      1.0000 0.11780  0.48900  0.77500  Biso   1.000  H
  H13      1.0000 0.55560  0.06990  0.17250  Biso   1.000  H
  H14      1.0000 0.94440  0.56990  0.32750  Biso   1.000  H
  H15      1.0000 0.44440  0.93010  0.82750  Biso   1.000  H
  H16      1.0000 0.05560  0.43010  0.67250  Biso   1.000  H
  H17      1.0000 0.54580  0.17430  0.19820  Biso   1.000  H
  H18      1.0000 0.95420  0.67430  0.30180  Biso   1.000  H
  H19      1.0000 0.45420  0.82570  0.80180  Biso   1.000  H
  H20      1.0000 0.04580  0.32570  0.69820  Biso   1.000  H
  H21      1.0000 0.38990  0.09780  0.17140  Biso   1.000  H
  H22      1.0000 0.11010  0.59780  0.32860  Biso   1.000  H
  H23      1.0000 0.61010  0.90220  0.82860  Biso   1.000  H
  H24      1.0000 0.88990  0.40220  0.67140  Biso   1.000  H
  H25      1.0000 0.43510  0.01010  0.21580  Biso   1.000  H
  H26      1.0000 0.06490  0.51010  0.28420  Biso   1.000  H
  H27      1.0000 0.56490  0.98990  0.78420  Biso   1.000  H
  H28      1.0000 0.93510  0.48990  0.71580  Biso   1.000  H
  H29      1.0000 0.41740  0.20130  0.25900  Biso   1.000  H
  H30      1.0000 0.08260  0.70130  0.24100  Biso   1.000  H
  H31      1.0000 0.58260  0.79870  0.74100  Biso   1.000  H
  H32      1.0000 0.91740  0.29870  0.75900  Biso   1.000  H
  H33      1.0000 0.49400  0.03770  0.33480  Biso   1.000  H
  H34      1.0000 0.00600  0.53770  0.16520  Biso   1.000  H
  H35      1.0000 0.50600  0.96230  0.66520  Biso   1.000  H
  H36      1.0000 0.99400  0.46230  0.83480  Biso   1.000  H
  H37      1.0000 0.48510  0.14160  0.36110  Biso   1.000  H
  H38      1.0000 0.01490  0.64160  0.13890  Biso   1.000  H
  H39      1.0000 0.51490  0.85840  0.63890  Biso   1.000  H
  H40      1.0000 0.98510  0.35840  0.86110  Biso   1.000  H
  H41      1.0000 0.60570  0.20110  0.31860  Biso   1.000  H
  H42      1.0000 0.89430  0.70110  0.18140  Biso   1.000  H
  H43      1.0000 0.39430  0.79890  0.68140  Biso   1.000  H
  H44      1.0000 0.10570  0.29890  0.81860  Biso   1.000  H
  H45      1.0000 0.64970  0.11220  0.36230  Biso   1.000  H
  H46      1.0000 0.85030  0.61220  0.13770  Biso   1.000  H
  H47      1.0000 0.35030  0.88780  0.63770  Biso   1.000  H
  H48      1.0000 0.14970  0.38780  0.86230  Biso   1.000  H
  H49      1.0000 0.30860  0.03320  0.26710  Biso   1.000  H
  H50      1.0000 0.19140  0.53320  0.23290  Biso   1.000  H
  H51      1.0000 0.69140  0.96680  0.73290  Biso   1.000  H
  H52      1.0000 0.80860  0.46680  0.76710  Biso   1.000  H
  H53      1.0000 0.26540  0.12600  0.22790  Biso   1.000  H
  H54      1.0000 0.23460  0.62600  0.27210  Biso   1.000  H
  H55      1.0000 0.73460  0.87400  0.77210  Biso   1.000  H
  H56      1.0000 0.76540  0.37400  0.72790  Biso   1.000  H
  H57      1.0000 0.31260  0.30080  0.29590  Biso   1.000  H
  H58      1.0000 0.18740  0.80080  0.20410  Biso   1.000  H
  H59      1.0000 0.68740  0.69920  0.70410  Biso   1.000  H
  H60      1.0000 0.81260  0.19920  0.79590  Biso   1.000  H
  H61      1.0000 0.20300  0.30100  0.29840  Biso   1.000  H
  H62      1.0000 0.29700  0.80100  0.20160  Biso   1.000  H
  H63      1.0000 0.79700  0.69900  0.70160  Biso   1.000  H
  H64      1.0000 0.70300  0.19900  0.79840  Biso   1.000  H
  H65      1.0000 0.17140  0.34290  0.39780  Biso   1.000  H
  H66      1.0000 0.32860  0.84290  0.10220  Biso   1.000  H
  H67      1.0000 0.82860  0.65710  0.60220  Biso   1.000  H
  H68      1.0000 0.67140  0.15710  0.89780  Biso   1.000  H
  H69      1.0000 0.22670  0.40340  0.49900  Biso   1.000  H
  H70      1.0000 0.27330  0.90340  0.00100  Biso   1.000  H
  H71      1.0000 0.77330  0.59660  0.50100  Biso   1.000  H
  H72      1.0000 0.72670  0.09660  0.99900  Biso   1.000  H
  H73      1.0000 0.50490  0.39580  0.49330  Biso   1.000  H
  H74      1.0000 0.99510  0.89580  0.00670  Biso   1.000  H
  H75      1.0000 0.49510  0.60420  0.50670  Biso   1.000  H
  H76      1.0000 0.00490  0.10420  0.99330  Biso   1.000  H
  H77      1.0000 0.44930  0.33400  0.39310  Biso   1.000  H
  H78      1.0000 0.05070  0.83400  0.10690  Biso   1.000  H
  H79      1.0000 0.55070  0.66600  0.60690  Biso   1.000  H
  H80      1.0000 0.94930  0.16600  0.89310  Biso   1.000  H
  H81      1.0000 0.35530  0.48150  0.58260  Biso   1.000  H
  H82      1.0000 0.14470  0.98150  0.91740  Biso   1.000  H
  H83      1.0000 0.64470  0.51850  0.41740  Biso   1.000  H
  H84      1.0000 0.85530  0.01850  0.08260  Biso   1.000  H
  H85      1.0000 0.46480  0.48050  0.58090  Biso   1.000  H
  H86      1.0000 0.03520  0.98050  0.91910  Biso   1.000  H
  H87      1.0000 0.53520  0.51950  0.41910  Biso   1.000  H
  H88      1.0000 0.96480  0.01950  0.08090  Biso   1.000  H
  H89      1.0000 0.59670  0.38460  0.64150  Biso   1.000  H
  H90      1.0000 0.90330  0.88460  0.85850  Biso   1.000  H
  H91      1.0000 0.40330  0.61540  0.35850  Biso   1.000  H
  H92      1.0000 0.09670  0.11540  0.14150  Biso   1.000  H
  H93      1.0000 0.59620  0.30120  0.68900  Biso   1.000  H
  H94      1.0000 0.90380  0.80120  0.81100  Biso   1.000  H
  H95      1.0000 0.40380  0.69880  0.31100  Biso   1.000  H
  H96      1.0000 0.09620  0.19880  0.18900  Biso   1.000  H
  H97      1.0000 0.56330  0.27410  0.55870  Biso   1.000  H
  H98      1.0000 0.93670  0.77410  0.94130  Biso   1.000  H
  H99      1.0000 0.43670  0.72590  0.44130  Biso   1.000  H
  H100     1.0000 0.06330  0.22590  0.05870  Biso   1.000  H
  H101     1.0000 0.72880  0.30760  0.60930  Biso   1.000  H
  H102     1.0000 0.77120  0.80760  0.89070  Biso   1.000  H
  H103     1.0000 0.27120  0.69240  0.39070  Biso   1.000  H
  H104     1.0000 0.22880  0.19240  0.10930  Biso   1.000  H
  H105     1.0000 0.73410  0.22640  0.65950  Biso   1.000  H
  H106     1.0000 0.76590  0.72640  0.84050  Biso   1.000  H
  H107     1.0000 0.26590  0.77360  0.34050  Biso   1.000  H
  H108     1.0000 0.23410  0.27360  0.15950  Biso   1.000  H
  H109     1.0000 0.80710  0.16690  0.58750  Biso   1.000  H
  H110     1.0000 0.69290  0.66690  0.91250  Biso   1.000  H
  H111     1.0000 0.19290  0.83310  0.41250  Biso   1.000  H
  H112     1.0000 0.30710  0.33310  0.08750  Biso   1.000  H
  H113     1.0000 0.71370  0.19350  0.53060  Biso   1.000  H
  H114     1.0000 0.78630  0.69350  0.96940  Biso   1.000  H
  H115     1.0000 0.28630  0.80650  0.46940  Biso   1.000  H
  H116     1.0000 0.21370  0.30650  0.03060  Biso   1.000  H
  H117     1.0000 0.71960  0.04960  0.62170  Biso   1.000  H
  H118     1.0000 0.78040  0.54960  0.87830  Biso   1.000  H
  H119     1.0000 0.28040  0.95040  0.37830  Biso   1.000  H
  H120     1.0000 0.21960  0.45040  0.12170  Biso   1.000  H
  H121     1.0000 0.55070  0.09690  0.52020  Biso   1.000  H
  H122     1.0000 0.94930  0.59690  0.97980  Biso   1.000  H
  H123     1.0000 0.44930  0.90310  0.47980  Biso   1.000  H
  H124     1.0000 0.05070  0.40310  0.02020  Biso   1.000  H
  H125     1.0000 0.55510  0.01480  0.56980  Biso   1.000  H
  H126     1.0000 0.94490  0.51480  0.93020  Biso   1.000  H
  H127     1.0000 0.44490  0.98520  0.43020  Biso   1.000  H
  H128     1.0000 0.05510  0.48520  0.06980  Biso   1.000  H
  H129     1.0000 0.57520  0.12750  0.64920  Biso   1.000  H
  H130     1.0000 0.92480  0.62750  0.85080  Biso   1.000  H
  H131     1.0000 0.42480  0.87250  0.35080  Biso   1.000  H
  H132     1.0000 0.07520  0.37250  0.14920  Biso   1.000  H
  H133     1.0000 0.47980  0.15340  0.59370  Biso   1.000  H
  H134     1.0000 0.02020  0.65340  0.90630  Biso   1.000  H
  H135     1.0000 0.52020  0.84660  0.40630  Biso   1.000  H
  H136     1.0000 0.97980  0.34660  0.09370  Biso   1.000  H
  H137     1.0000 0.70630  0.02160  0.49390  Biso   1.000  H
  H138     1.0000 0.79370  0.52160  0.00610  Biso   1.000  H
  H139     1.0000 0.29370  0.97840  0.50610  Biso   1.000  H
  H140     1.0000 0.20630  0.47840  0.99390  Biso   1.000  H
  H141     1.0000 0.68480  0.93790  0.53570  Biso   1.000  H
  H142     1.0000 0.81520  0.43790  0.96430  Biso   1.000  H
  H143     1.0000 0.31520  0.06210  0.46430  Biso   1.000  H
  H144     1.0000 0.18480  0.56210  0.03570  Biso   1.000  H
  H145     1.0000 0.92730  0.83770  0.53850  Biso   1.000  H
  H146     1.0000 0.57270  0.33770  0.96150  Biso   1.000  H
  H147     1.0000 0.07270  0.16230  0.46150  Biso   1.000  H
  H148     1.0000 0.42730  0.66230  0.03850  Biso   1.000  H
  H149     1.0000 0.81540  0.81620  0.52830  Biso   1.000  H
  H150     1.0000 0.68460  0.31620  0.97170  Biso   1.000  H
  H151     1.0000 0.18460  0.18380  0.47170  Biso   1.000  H
  H152     1.0000 0.31540  0.68380  0.02830  Biso   1.000  H
  H153     1.0000 0.96340  0.94700  0.45380  Biso   1.000  H
  H154     1.0000 0.53660  0.44700  0.04620  Biso   1.000  H
  H155     1.0000 0.03660  0.05300  0.54620  Biso   1.000  H
  H156     1.0000 0.46340  0.55300  0.95380  Biso   1.000  H
  H157     1.0000 0.93390  0.96460  0.34790  Biso   1.000  H
  H158     1.0000 0.56610  0.46460  0.15210  Biso   1.000  H
  H159     1.0000 0.06610  0.03540  0.65210  Biso   1.000  H
  H160     1.0000 0.43390  0.53540  0.84790  Biso   1.000  H
  H161     1.0000 0.67340  0.83200  0.31840  Biso   1.000  H
  H162     1.0000 0.82660  0.33200  0.18160  Biso   1.000  H
  H163     1.0000 0.32660  0.16800  0.68160  Biso   1.000  H
  H164     1.0000 0.17340  0.66800  0.81840  Biso   1.000  H
  H165     1.0000 0.70460  0.81500  0.42490  Biso   1.000  H
  H166     1.0000 0.79540  0.31500  0.07510  Biso   1.000  H
  H167     1.0000 0.29540  0.18500  0.57510  Biso   1.000  H
  H168     1.0000 0.20460  0.68500  0.92490  Biso   1.000  H
  H169     1.0000 0.71170  0.88080  0.22940  Biso   1.000  H
  H170     1.0000 0.78830  0.38080  0.27060  Biso   1.000  H
  H171     1.0000 0.28830  0.11920  0.77060  Biso   1.000  H
  H172     1.0000 0.21170  0.61920  0.72940  Biso   1.000  H
  H173     1.0000 0.82420  0.87100  0.23640  Biso   1.000  H
  H174     1.0000 0.67580  0.37100  0.26360  Biso   1.000  H
  H175     1.0000 0.17580  0.12900  0.76360  Biso   1.000  H
  H176     1.0000 0.32420  0.62900  0.73640  Biso   1.000  H
  H177     1.0000 0.73000  0.82220  0.11550  Biso   1.000  H
  H178     1.0000 0.77000  0.32220  0.38450  Biso   1.000  H
  H179     1.0000 0.27000  0.17780  0.88450  Biso   1.000  H
  H180     1.0000 0.23000  0.67780  0.61550  Biso   1.000  H
  H181     1.0000 0.76520  0.82400  0.05410  Biso   1.000  H
  H182     1.0000 0.73480  0.32400  0.44590  Biso   1.000  H
  H183     1.0000 0.23480  0.17600  0.94590  Biso   1.000  H
  H184     1.0000 0.26520  0.67600  0.55410  Biso   1.000  H
  H185     1.0000 0.61200  0.71940  0.06910  Biso   1.000  H
  H186     1.0000 0.88800  0.21940  0.43090  Biso   1.000  H
  H187     1.0000 0.38800  0.28060  0.93090  Biso   1.000  H
  H188     1.0000 0.11200  0.78060  0.56910  Biso   1.000  H
  H189     1.0000 0.64830  0.71960  0.00840  Biso   1.000  H
  H190     1.0000 0.85170  0.21960  0.49160  Biso   1.000  H
  H191     1.0000 0.35170  0.28040  0.99160  Biso   1.000  H
  H192     1.0000 0.14830  0.78040  0.50840  Biso   1.000  H
  H193     1.0000 0.62710  0.93230  0.95450  Biso   1.000  H
  H194     1.0000 0.87290  0.43230  0.54550  Biso   1.000  H
  H195     1.0000 0.37290  0.06770  0.04550  Biso   1.000  H
  H196     1.0000 0.12710  0.56770  0.45450  Biso   1.000  H
  H197     1.0000 0.68150  0.83310  0.98500  Biso   1.000  H
  H198     1.0000 0.81850  0.33310  0.51500  Biso   1.000  H
  H199     1.0000 0.31850  0.16690  0.01500  Biso   1.000  H
  H200     1.0000 0.18150  0.66690  0.48500  Biso   1.000  H
  H201     1.0000 0.48060  0.82370  0.96410  Biso   1.000  H
  H202     1.0000 0.01940  0.32370  0.53590  Biso   1.000  H
  H203     1.0000 0.51940  0.17630  0.03590  Biso   1.000  H
  H204     1.0000 0.98060  0.67630  0.46410  Biso   1.000  H
  H205     1.0000 0.50850  0.88740  0.02840  Biso   1.000  H
  H206     1.0000 0.99150  0.38740  0.47160  Biso   1.000  H
  H207     1.0000 0.49150  0.11260  0.97160  Biso   1.000  H
  H208     1.0000 0.00850  0.61260  0.52840  Biso   1.000  H
