data_image0
_cell_length_a       6.827
_cell_length_b       14.9985
_cell_length_c       21.8388
_cell_angle_alpha    90
_cell_angle_beta     90
_cell_angle_gamma    90

_symmetry_space_group_name_H-M    "P 1"
_symmetry_int_tables_number       1

loop_
  _symmetry_equiv_pos_as_xyz
  'x, y, z'

loop_
  _atom_site_label
  _atom_site_occupancy
  _atom_site_fract_x
  _atom_site_fract_y
  _atom_site_fract_z
  _atom_site_thermal_displace_type
  _atom_site_B_iso_or_equiv
  _atom_site_type_symbol
  Cu1      1.0000 0.00000  0.14426  0.25000  Biso   1.000  Cu
  Cu2      1.0000 0.50000  0.35574  0.75000  Biso   1.000  Cu
  Cu3      1.0000 0.00000  0.85574  0.75000  Biso   1.000  Cu
  Cu4      1.0000 0.50000  0.64426  0.25000  Biso   1.000  Cu
  Cu5      1.0000 0.22447  0.08704  0.45740  Biso   1.000  Cu
  Cu6      1.0000 0.27553  0.41296  0.95740  Biso   1.000  Cu
  Cu7      1.0000 0.77553  0.08704  0.04260  Biso   1.000  Cu
  Cu8      1.0000 0.72447  0.41296  0.54260  Biso   1.000  Cu
  Cu9      1.0000 0.77553  0.91296  0.54260  Biso   1.000  Cu
  Cu10     1.0000 0.72447  0.58704  0.04260  Biso   1.000  Cu
  Cu11     1.0000 0.22447  0.91296  0.95740  Biso   1.000  Cu
  Cu12     1.0000 0.27553  0.58704  0.45740  Biso   1.000  Cu
  N1       1.0000 0.10920  0.10330  0.37850  Biso   1.000  N
  N2       1.0000 0.39080  0.39670  0.87850  Biso   1.000  N
  N3       1.0000 0.89080  0.10330  0.12150  Biso   1.000  N
  N4       1.0000 0.60920  0.39670  0.62150  Biso   1.000  N
  N5       1.0000 0.89080  0.89670  0.62150  Biso   1.000  N
  N6       1.0000 0.60920  0.60330  0.12150  Biso   1.000  N
  N7       1.0000 0.10920  0.89670  0.87850  Biso   1.000  N
  N8       1.0000 0.39080  0.60330  0.37850  Biso   1.000  N
  C1       1.0000 0.05960  0.11390  0.32877  Biso   1.000  C
  C2       1.0000 0.44040  0.38610  0.82877  Biso   1.000  C
  C3       1.0000 0.94040  0.11390  0.17123  Biso   1.000  C
  C4       1.0000 0.55960  0.38610  0.67123  Biso   1.000  C
  C5       1.0000 0.94040  0.88610  0.67123  Biso   1.000  C
  C6       1.0000 0.55960  0.61390  0.17123  Biso   1.000  C
  C7       1.0000 0.05960  0.88610  0.82877  Biso   1.000  C
  C8       1.0000 0.44040  0.61390  0.32877  Biso   1.000  C
  N9       1.0000 0.13290  0.84090  0.03223  Biso   1.000  N
  N10      1.0000 0.36710  0.65910  0.53223  Biso   1.000  N
  N11      1.0000 0.86710  0.84090  0.46777  Biso   1.000  N
  N12      1.0000 0.63290  0.65910  0.96777  Biso   1.000  N
  N13      1.0000 0.86710  0.15910  0.96777  Biso   1.000  N
  N14      1.0000 0.63290  0.34090  0.46777  Biso   1.000  N
  N15      1.0000 0.13290  0.15910  0.53223  Biso   1.000  N
  N16      1.0000 0.36710  0.34090  0.03223  Biso   1.000  N
  C9       1.0000 0.11530  0.70450  0.08839  Biso   1.000  C
  C10      1.0000 0.38470  0.79550  0.58839  Biso   1.000  C
  C11      1.0000 0.88470  0.70450  0.41161  Biso   1.000  C
  C12      1.0000 0.61530  0.79550  0.91161  Biso   1.000  C
  C13      1.0000 0.88470  0.29550  0.91161  Biso   1.000  C
  C14      1.0000 0.61530  0.20450  0.41161  Biso   1.000  C
  C15      1.0000 0.11530  0.29550  0.58839  Biso   1.000  C
  C16      1.0000 0.38470  0.20450  0.08839  Biso   1.000  C
  H1       1.0000 0.12610  0.64270  0.08830  Biso   1.000  H
  H2       1.0000 0.37390  0.85730  0.58830  Biso   1.000  H
  H3       1.0000 0.87390  0.64270  0.41170  Biso   1.000  H
  H4       1.0000 0.62610  0.85730  0.91170  Biso   1.000  H
  H5       1.0000 0.87390  0.35730  0.91170  Biso   1.000  H
  H6       1.0000 0.62610  0.14270  0.41170  Biso   1.000  H
  H7       1.0000 0.12610  0.35730  0.58830  Biso   1.000  H
  H8       1.0000 0.37390  0.14270  0.08830  Biso   1.000  H
  C17      1.0000 0.06860  0.74940  0.14144  Biso   1.000  C
  C18      1.0000 0.43140  0.75060  0.64144  Biso   1.000  C
  C19      1.0000 0.93140  0.74940  0.35856  Biso   1.000  C
  C20      1.0000 0.56860  0.75060  0.85856  Biso   1.000  C
  C21      1.0000 0.93140  0.25060  0.85856  Biso   1.000  C
  C22      1.0000 0.56860  0.24940  0.35856  Biso   1.000  C
  C23      1.0000 0.06860  0.25060  0.64144  Biso   1.000  C
  C24      1.0000 0.43140  0.24940  0.14144  Biso   1.000  C
  C25      1.0000 0.08830  0.88390  0.08380  Biso   1.000  C
  C26      1.0000 0.41170  0.61610  0.58380  Biso   1.000  C
  C27      1.0000 0.91170  0.88390  0.41620  Biso   1.000  C
  C28      1.0000 0.58830  0.61610  0.91620  Biso   1.000  C
  C29      1.0000 0.91170  0.11610  0.91620  Biso   1.000  C
  C30      1.0000 0.58830  0.38390  0.41620  Biso   1.000  C
  C31      1.0000 0.08830  0.11610  0.58380  Biso   1.000  C
  C32      1.0000 0.41170  0.38390  0.08380  Biso   1.000  C
  H9       1.0000 0.08130  0.94580  0.08270  Biso   1.000  H
  H10      1.0000 0.41870  0.55420  0.58270  Biso   1.000  H
  H11      1.0000 0.91870  0.94580  0.41730  Biso   1.000  H
  H12      1.0000 0.58130  0.55420  0.91730  Biso   1.000  H
  H13      1.0000 0.91870  0.05420  0.91730  Biso   1.000  H
  H14      1.0000 0.58130  0.44580  0.41730  Biso   1.000  H
  H15      1.0000 0.08130  0.05420  0.58270  Biso   1.000  H
  H16      1.0000 0.41870  0.44580  0.08270  Biso   1.000  H
  C33      1.0000 0.14560  0.75230  0.03553  Biso   1.000  C
  C34      1.0000 0.35440  0.74770  0.53553  Biso   1.000  C
  C35      1.0000 0.85440  0.75230  0.46447  Biso   1.000  C
  C36      1.0000 0.64560  0.74770  0.96447  Biso   1.000  C
  C37      1.0000 0.85440  0.24770  0.96447  Biso   1.000  C
  C38      1.0000 0.64560  0.25230  0.46447  Biso   1.000  C
  C39      1.0000 0.14560  0.24770  0.53553  Biso   1.000  C
  C40      1.0000 0.35440  0.25230  0.03553  Biso   1.000  C
  H17      1.0000 0.17680  0.72100  0.00000  Biso   1.000  H
  H18      1.0000 0.32320  0.77900  0.50000  Biso   1.000  H
  H19      1.0000 0.82320  0.72100  0.50000  Biso   1.000  H
  H20      1.0000 0.67680  0.77900  0.00000  Biso   1.000  H
  H21      1.0000 0.82320  0.27900  0.00000  Biso   1.000  H
  H22      1.0000 0.67680  0.22100  0.50000  Biso   1.000  H
  H23      1.0000 0.17680  0.27900  0.50000  Biso   1.000  H
  H24      1.0000 0.32320  0.22100  0.00000  Biso   1.000  H
  C41      1.0000 0.05200  0.84170  0.13870  Biso   1.000  C
  C42      1.0000 0.44800  0.65830  0.63870  Biso   1.000  C
  C43      1.0000 0.94800  0.84170  0.36130  Biso   1.000  C
  C44      1.0000 0.55200  0.65830  0.86130  Biso   1.000  C
  C45      1.0000 0.94800  0.15830  0.86130  Biso   1.000  C
  C46      1.0000 0.55200  0.34170  0.36130  Biso   1.000  C
  C47      1.0000 0.05200  0.15830  0.63870  Biso   1.000  C
  C48      1.0000 0.44800  0.34170  0.13870  Biso   1.000  C
  H25      1.0000 0.01700  0.87440  0.17320  Biso   1.000  H
  H26      1.0000 0.48300  0.62560  0.67320  Biso   1.000  H
  H27      1.0000 0.98300  0.87440  0.32680  Biso   1.000  H
  H28      1.0000 0.51700  0.62560  0.82680  Biso   1.000  H
  H29      1.0000 0.98300  0.12560  0.82680  Biso   1.000  H
  H30      1.0000 0.51700  0.37440  0.32680  Biso   1.000  H
  H31      1.0000 0.01700  0.12560  0.67320  Biso   1.000  H
  H32      1.0000 0.48300  0.37440  0.17320  Biso   1.000  H
  C49      1.0000 0.43370  0.01730  0.48970  Biso   1.000  C
  C50      1.0000 0.06630  0.48270  0.98970  Biso   1.000  C
  C51      1.0000 0.56630  0.01730  0.01030  Biso   1.000  C
  C52      1.0000 0.93370  0.48270  0.51030  Biso   1.000  C
  C53      1.0000 0.56630  0.98270  0.51030  Biso   1.000  C
  C54      1.0000 0.93370  0.51730  0.01030  Biso   1.000  C
  C55      1.0000 0.43370  0.98270  0.98970  Biso   1.000  C
  C56      1.0000 0.06630  0.51730  0.48970  Biso   1.000  C
  C57      1.0000 0.03410  0.70060  0.19960  Biso   1.000  C
  C58      1.0000 0.46590  0.79940  0.69960  Biso   1.000  C
  C59      1.0000 0.96590  0.70060  0.30040  Biso   1.000  C
  C60      1.0000 0.53410  0.79940  0.80040  Biso   1.000  C
  C61      1.0000 0.96590  0.29940  0.80040  Biso   1.000  C
  C62      1.0000 0.53410  0.20060  0.30040  Biso   1.000  C
  C63      1.0000 0.03410  0.29940  0.69960  Biso   1.000  C
  C64      1.0000 0.46590  0.20060  0.19960  Biso   1.000  C
  N17      1.0000 0.00000  0.74860  0.25000  Biso   1.000  N
  N18      1.0000 0.50000  0.75140  0.75000  Biso   1.000  N
  N19      1.0000 0.00000  0.25140  0.75000  Biso   1.000  N
  N20      1.0000 0.50000  0.24860  0.25000  Biso   1.000  N
  N21      1.0000 0.04050  0.61180  0.19724  Biso   1.000  N
  N22      1.0000 0.45950  0.88820  0.69724  Biso   1.000  N
  N23      1.0000 0.95950  0.61180  0.30276  Biso   1.000  N
  N24      1.0000 0.54050  0.88820  0.80276  Biso   1.000  N
  N25      1.0000 0.95950  0.38820  0.80276  Biso   1.000  N
  N26      1.0000 0.54050  0.11180  0.30276  Biso   1.000  N
  N27      1.0000 0.04050  0.38820  0.69724  Biso   1.000  N
  N28      1.0000 0.45950  0.11180  0.19724  Biso   1.000  N
  N29      1.0000 0.00000  0.28740  0.25000  Biso   1.000  N
  N30      1.0000 0.50000  0.21260  0.75000  Biso   1.000  N
  N31      1.0000 0.00000  0.71260  0.75000  Biso   1.000  N
  N32      1.0000 0.50000  0.78740  0.25000  Biso   1.000  N
  C65      1.0000 0.03130  0.33380  0.30150  Biso   1.000  C
  C66      1.0000 0.46870  0.16620  0.80150  Biso   1.000  C
  C67      1.0000 0.96870  0.33380  0.19850  Biso   1.000  C
  C68      1.0000 0.53130  0.16620  0.69850  Biso   1.000  C
  C69      1.0000 0.96870  0.66620  0.69850  Biso   1.000  C
  C70      1.0000 0.53130  0.83380  0.19850  Biso   1.000  C
  C71      1.0000 0.03130  0.66620  0.80150  Biso   1.000  C
  C72      1.0000 0.46870  0.83380  0.30150  Biso   1.000  C
  H33      1.0000 0.05460  0.30240  0.33750  Biso   1.000  H
  H34      1.0000 0.44540  0.19760  0.83750  Biso   1.000  H
  H35      1.0000 0.94540  0.30240  0.16250  Biso   1.000  H
  H36      1.0000 0.55460  0.19760  0.66250  Biso   1.000  H
  H37      1.0000 0.94540  0.69760  0.66250  Biso   1.000  H
  H38      1.0000 0.55460  0.80240  0.16250  Biso   1.000  H
  H39      1.0000 0.05460  0.69760  0.83750  Biso   1.000  H
  H40      1.0000 0.44540  0.80240  0.33750  Biso   1.000  H
  C73      1.0000 0.00000  0.47250  0.25000  Biso   1.000  C
  C74      1.0000 0.50000  0.02750  0.75000  Biso   1.000  C
  C75      1.0000 0.00000  0.52750  0.75000  Biso   1.000  C
  C76      1.0000 0.50000  0.97250  0.25000  Biso   1.000  C
  C77      1.0000 0.00000  0.57100  0.25000  Biso   1.000  C
  C78      1.0000 0.50000  0.92900  0.75000  Biso   1.000  C
  C79      1.0000 0.00000  0.42900  0.75000  Biso   1.000  C
  C80      1.0000 0.50000  0.07100  0.25000  Biso   1.000  C
  C81      1.0000 0.03070  0.42470  0.30393  Biso   1.000  C
  C82      1.0000 0.46930  0.07530  0.80393  Biso   1.000  C
  C83      1.0000 0.96930  0.42470  0.19607  Biso   1.000  C
  C84      1.0000 0.53070  0.07530  0.69607  Biso   1.000  C
  C85      1.0000 0.96930  0.57530  0.69607  Biso   1.000  C
  C86      1.0000 0.53070  0.92470  0.19607  Biso   1.000  C
  C87      1.0000 0.03070  0.57530  0.80393  Biso   1.000  C
  C88      1.0000 0.46930  0.92470  0.30393  Biso   1.000  C
  H41      1.0000 0.05040  0.45420  0.34090  Biso   1.000  H
  H42      1.0000 0.44960  0.04580  0.84090  Biso   1.000  H
  H43      1.0000 0.94960  0.45420  0.15910  Biso   1.000  H
  H44      1.0000 0.55040  0.04580  0.65910  Biso   1.000  H
  H45      1.0000 0.94960  0.54580  0.65910  Biso   1.000  H
  H46      1.0000 0.55040  0.95420  0.15910  Biso   1.000  H
  H47      1.0000 0.05040  0.54580  0.84090  Biso   1.000  H
  H48      1.0000 0.44960  0.95420  0.34090  Biso   1.000  H
