data_image0
_cell_length_a       22.7672
_cell_length_b       13.1972
_cell_length_c       13.3665
_cell_angle_alpha    90
_cell_angle_beta     100.02
_cell_angle_gamma    90

_symmetry_space_group_name_H-M    "P 1"
_symmetry_int_tables_number       1

loop_
  _symmetry_equiv_pos_as_xyz
  'x, y, z'

loop_
  _atom_site_label
  _atom_site_occupancy
  _atom_site_fract_x
  _atom_site_fract_y
  _atom_site_fract_z
  _atom_site_thermal_displace_type
  _atom_site_B_iso_or_equiv
  _atom_site_type_symbol
  Cu1      1.0000 0.09288  0.65995  0.14752  Biso   1.000  Cu
  Cu2      1.0000 0.59288  0.15995  0.14752  Biso   1.000  Cu
  Cu3      1.0000 0.90712  0.65995  0.35248  Biso   1.000  Cu
  Cu4      1.0000 0.40712  0.15995  0.35248  Biso   1.000  Cu
  Cu5      1.0000 0.90712  0.34005  0.85248  Biso   1.000  Cu
  Cu6      1.0000 0.40712  0.84005  0.85248  Biso   1.000  Cu
  Cu7      1.0000 0.09288  0.34005  0.64752  Biso   1.000  Cu
  Cu8      1.0000 0.59288  0.84005  0.64752  Biso   1.000  Cu
  C1       1.0000 0.86656  0.16249  0.11530  Biso   1.000  C
  C2       1.0000 0.36656  0.66249  0.11530  Biso   1.000  C
  C3       1.0000 0.13344  0.16249  0.38470  Biso   1.000  C
  C4       1.0000 0.63344  0.66249  0.38470  Biso   1.000  C
  C5       1.0000 0.13344  0.83751  0.88470  Biso   1.000  C
  C6       1.0000 0.63344  0.33751  0.88470  Biso   1.000  C
  C7       1.0000 0.86656  0.83751  0.61530  Biso   1.000  C
  C8       1.0000 0.36656  0.33751  0.61530  Biso   1.000  C
  C9       1.0000 0.95353  0.24495  0.12170  Biso   1.000  C
  C10      1.0000 0.45353  0.74495  0.12170  Biso   1.000  C
  C11      1.0000 0.04647  0.24495  0.37830  Biso   1.000  C
  C12      1.0000 0.54647  0.74495  0.37830  Biso   1.000  C
  C13      1.0000 0.04647  0.75505  0.87830  Biso   1.000  C
  C14      1.0000 0.54647  0.25505  0.87830  Biso   1.000  C
  C15      1.0000 0.95353  0.75505  0.62170  Biso   1.000  C
  C16      1.0000 0.45353  0.25505  0.62170  Biso   1.000  C
  C17      1.0000 0.95149  0.07460  0.11890  Biso   1.000  C
  C18      1.0000 0.45149  0.57460  0.11890  Biso   1.000  C
  C19      1.0000 0.04851  0.07460  0.38110  Biso   1.000  C
  C20      1.0000 0.54851  0.57460  0.38110  Biso   1.000  C
  C21      1.0000 0.04851  0.92540  0.88110  Biso   1.000  C
  C22      1.0000 0.54851  0.42540  0.88110  Biso   1.000  C
  C23      1.0000 0.95149  0.92540  0.61890  Biso   1.000  C
  C24      1.0000 0.45149  0.42540  0.61890  Biso   1.000  C
  C25      1.0000 0.98738  0.34129  0.12310  Biso   1.000  C
  C26      1.0000 0.48738  0.84129  0.12310  Biso   1.000  C
  C27      1.0000 0.01262  0.34129  0.37690  Biso   1.000  C
  C28      1.0000 0.51262  0.84129  0.37690  Biso   1.000  C
  C29      1.0000 0.01262  0.65871  0.87690  Biso   1.000  C
  C30      1.0000 0.51262  0.15871  0.87690  Biso   1.000  C
  C31      1.0000 0.98738  0.65871  0.62310  Biso   1.000  C
  C32      1.0000 0.48738  0.15871  0.62310  Biso   1.000  C
  C33      1.0000 0.95816  0.43340  0.12070  Biso   1.000  C
  C34      1.0000 0.45816  0.93340  0.12070  Biso   1.000  C
  C35      1.0000 0.04184  0.43340  0.37930  Biso   1.000  C
  C36      1.0000 0.54184  0.93340  0.37930  Biso   1.000  C
  C37      1.0000 0.04184  0.56660  0.87930  Biso   1.000  C
  C38      1.0000 0.54184  0.06660  0.87930  Biso   1.000  C
  C39      1.0000 0.95816  0.56660  0.62070  Biso   1.000  C
  C40      1.0000 0.45816  0.06660  0.62070  Biso   1.000  C
  H1       1.0000 0.91690  0.43570  0.11600  Biso   1.000  H
  H2       1.0000 0.41690  0.93570  0.11600  Biso   1.000  H
  H3       1.0000 0.08310  0.43570  0.38400  Biso   1.000  H
  H4       1.0000 0.58310  0.93570  0.38400  Biso   1.000  H
  H5       1.0000 0.08310  0.56430  0.88400  Biso   1.000  H
  H6       1.0000 0.58310  0.06430  0.88400  Biso   1.000  H
  H7       1.0000 0.91690  0.56430  0.61600  Biso   1.000  H
  H8       1.0000 0.41690  0.06430  0.61600  Biso   1.000  H
  C41      1.0000 0.99073  0.52150  0.12530  Biso   1.000  C
  C42      1.0000 0.49073  0.02150  0.12530  Biso   1.000  C
  C43      1.0000 0.00927  0.52150  0.37470  Biso   1.000  C
  C44      1.0000 0.50927  0.02150  0.37470  Biso   1.000  C
  C45      1.0000 0.00927  0.47850  0.87470  Biso   1.000  C
  C46      1.0000 0.50927  0.97850  0.87470  Biso   1.000  C
  C47      1.0000 0.99073  0.47850  0.62530  Biso   1.000  C
  C48      1.0000 0.49073  0.97850  0.62530  Biso   1.000  C
  H9       1.0000 0.97030  0.58270  0.12280  Biso   1.000  H
  H10      1.0000 0.47030  0.08270  0.12280  Biso   1.000  H
  H11      1.0000 0.02970  0.58270  0.37720  Biso   1.000  H
  H12      1.0000 0.52970  0.08270  0.37720  Biso   1.000  H
  H13      1.0000 0.02970  0.41730  0.87720  Biso   1.000  H
  H14      1.0000 0.52970  0.91730  0.87720  Biso   1.000  H
  H15      1.0000 0.97030  0.41730  0.62280  Biso   1.000  H
  H16      1.0000 0.47030  0.91730  0.62280  Biso   1.000  H
  C49      1.0000 0.07818  0.43490  0.13630  Biso   1.000  C
  C50      1.0000 0.57818  0.93490  0.13630  Biso   1.000  C
  C51      1.0000 0.92182  0.43490  0.36370  Biso   1.000  C
  C52      1.0000 0.42182  0.93490  0.36370  Biso   1.000  C
  C53      1.0000 0.92182  0.56510  0.86370  Biso   1.000  C
  C54      1.0000 0.42182  0.06510  0.86370  Biso   1.000  C
  C55      1.0000 0.07818  0.56510  0.63630  Biso   1.000  C
  C56      1.0000 0.57818  0.06510  0.63630  Biso   1.000  C
  H17      1.0000 0.11950  0.43480  0.14290  Biso   1.000  H
  H18      1.0000 0.61950  0.93480  0.14290  Biso   1.000  H
  H19      1.0000 0.88050  0.43480  0.35710  Biso   1.000  H
  H20      1.0000 0.38050  0.93480  0.35710  Biso   1.000  H
  H21      1.0000 0.88050  0.56520  0.85710  Biso   1.000  H
  H22      1.0000 0.38050  0.06520  0.85710  Biso   1.000  H
  H23      1.0000 0.11950  0.56520  0.64290  Biso   1.000  H
  H24      1.0000 0.61950  0.06520  0.64290  Biso   1.000  H
  C57      1.0000 0.04908  0.34280  0.13050  Biso   1.000  C
  C58      1.0000 0.54908  0.84280  0.13050  Biso   1.000  C
  C59      1.0000 0.95092  0.34280  0.36950  Biso   1.000  C
  C60      1.0000 0.45092  0.84280  0.36950  Biso   1.000  C
  C61      1.0000 0.95092  0.65720  0.86950  Biso   1.000  C
  C62      1.0000 0.45092  0.15720  0.86950  Biso   1.000  C
  C63      1.0000 0.04908  0.65720  0.63050  Biso   1.000  C
  C64      1.0000 0.54908  0.15720  0.63050  Biso   1.000  C
  H25      1.0000 0.07040  0.28260  0.13150  Biso   1.000  H
  H26      1.0000 0.57040  0.78260  0.13150  Biso   1.000  H
  H27      1.0000 0.92960  0.28260  0.36850  Biso   1.000  H
  H28      1.0000 0.42960  0.78260  0.36850  Biso   1.000  H
  H29      1.0000 0.92960  0.71740  0.86850  Biso   1.000  H
  H30      1.0000 0.42960  0.21740  0.86850  Biso   1.000  H
  H31      1.0000 0.07040  0.71740  0.63150  Biso   1.000  H
  H32      1.0000 0.57040  0.21740  0.63150  Biso   1.000  H
  C65      1.0000 0.98389  0.97656  0.12120  Biso   1.000  C
  C66      1.0000 0.48389  0.47656  0.12120  Biso   1.000  C
  C67      1.0000 0.01611  0.97656  0.37880  Biso   1.000  C
  C68      1.0000 0.51611  0.47656  0.37880  Biso   1.000  C
  C69      1.0000 0.01611  0.02344  0.87880  Biso   1.000  C
  C70      1.0000 0.51611  0.52344  0.87880  Biso   1.000  C
  C71      1.0000 0.98389  0.02344  0.62120  Biso   1.000  C
  C72      1.0000 0.48389  0.52344  0.62120  Biso   1.000  C
  C73      1.0000 0.04528  0.97450  0.12850  Biso   1.000  C
  C74      1.0000 0.54528  0.47450  0.12850  Biso   1.000  C
  C75      1.0000 0.95472  0.97450  0.37150  Biso   1.000  C
  C76      1.0000 0.45472  0.47450  0.37150  Biso   1.000  C
  C77      1.0000 0.95472  0.02550  0.87150  Biso   1.000  C
  C78      1.0000 0.45472  0.52550  0.87150  Biso   1.000  C
  C79      1.0000 0.04528  0.02550  0.62850  Biso   1.000  C
  C80      1.0000 0.54528  0.52550  0.62850  Biso   1.000  C
  H33      1.0000 0.06690  0.03450  0.13130  Biso   1.000  H
  H34      1.0000 0.56690  0.53450  0.13130  Biso   1.000  H
  H35      1.0000 0.93310  0.03450  0.36870  Biso   1.000  H
  H36      1.0000 0.43310  0.53450  0.36870  Biso   1.000  H
  H37      1.0000 0.93310  0.96550  0.86870  Biso   1.000  H
  H38      1.0000 0.43310  0.46550  0.86870  Biso   1.000  H
  H39      1.0000 0.06690  0.96550  0.63130  Biso   1.000  H
  H40      1.0000 0.56690  0.46550  0.63130  Biso   1.000  H
  C81      1.0000 0.07376  0.88220  0.13170  Biso   1.000  C
  C82      1.0000 0.57376  0.38220  0.13170  Biso   1.000  C
  C83      1.0000 0.92624  0.88220  0.36830  Biso   1.000  C
  C84      1.0000 0.42624  0.38220  0.36830  Biso   1.000  C
  C85      1.0000 0.92624  0.11780  0.86830  Biso   1.000  C
  C86      1.0000 0.42624  0.61780  0.86830  Biso   1.000  C
  C87      1.0000 0.07376  0.11780  0.63170  Biso   1.000  C
  C88      1.0000 0.57376  0.61780  0.63170  Biso   1.000  C
  H41      1.0000 0.11490  0.88210  0.13560  Biso   1.000  H
  H42      1.0000 0.61490  0.38210  0.13560  Biso   1.000  H
  H43      1.0000 0.88510  0.88210  0.36440  Biso   1.000  H
  H44      1.0000 0.38510  0.38210  0.36440  Biso   1.000  H
  H45      1.0000 0.88510  0.11790  0.86440  Biso   1.000  H
  H46      1.0000 0.38510  0.61790  0.86440  Biso   1.000  H
  H47      1.0000 0.11490  0.11790  0.63560  Biso   1.000  H
  H48      1.0000 0.61490  0.61790  0.63560  Biso   1.000  H
  C89      1.0000 0.95412  0.88540  0.11830  Biso   1.000  C
  C90      1.0000 0.45412  0.38540  0.11830  Biso   1.000  C
  C91      1.0000 0.04588  0.88540  0.38170  Biso   1.000  C
  C92      1.0000 0.54588  0.38540  0.38170  Biso   1.000  C
  C93      1.0000 0.04588  0.11460  0.88170  Biso   1.000  C
  C94      1.0000 0.54588  0.61460  0.88170  Biso   1.000  C
  C95      1.0000 0.95412  0.11460  0.61830  Biso   1.000  C
  C96      1.0000 0.45412  0.61460  0.61830  Biso   1.000  C
  H49      1.0000 0.91290  0.88370  0.11370  Biso   1.000  H
  H50      1.0000 0.41290  0.38370  0.11370  Biso   1.000  H
  H51      1.0000 0.08710  0.88370  0.38630  Biso   1.000  H
  H52      1.0000 0.58710  0.38370  0.38630  Biso   1.000  H
  H53      1.0000 0.08710  0.11630  0.88630  Biso   1.000  H
  H54      1.0000 0.58710  0.61630  0.88630  Biso   1.000  H
  H55      1.0000 0.91290  0.11630  0.61370  Biso   1.000  H
  H56      1.0000 0.41290  0.61630  0.61370  Biso   1.000  H
  C97      1.0000 0.98648  0.79700  0.12240  Biso   1.000  C
  C98      1.0000 0.48648  0.29700  0.12240  Biso   1.000  C
  C99      1.0000 0.01352  0.79700  0.37760  Biso   1.000  C
  C100     1.0000 0.51352  0.29700  0.37760  Biso   1.000  C
  C101     1.0000 0.01352  0.20300  0.87760  Biso   1.000  C
  C102     1.0000 0.51352  0.70300  0.87760  Biso   1.000  C
  C103     1.0000 0.98648  0.20300  0.62240  Biso   1.000  C
  C104     1.0000 0.48648  0.70300  0.62240  Biso   1.000  C
  H57      1.0000 0.96570  0.73610  0.12010  Biso   1.000  H
  H58      1.0000 0.46570  0.23610  0.12010  Biso   1.000  H
  H59      1.0000 0.03430  0.73610  0.37990  Biso   1.000  H
  H60      1.0000 0.53430  0.23610  0.37990  Biso   1.000  H
  H61      1.0000 0.03430  0.26390  0.87990  Biso   1.000  H
  H62      1.0000 0.53430  0.76390  0.87990  Biso   1.000  H
  H63      1.0000 0.96570  0.26390  0.62010  Biso   1.000  H
  H64      1.0000 0.46570  0.76390  0.62010  Biso   1.000  H
  C105     1.0000 0.80123  0.16588  0.11410  Biso   1.000  C
  C106     1.0000 0.30123  0.66588  0.11410  Biso   1.000  C
  C107     1.0000 0.19877  0.16588  0.38590  Biso   1.000  C
  C108     1.0000 0.69877  0.66588  0.38590  Biso   1.000  C
  C109     1.0000 0.19877  0.83412  0.88590  Biso   1.000  C
  C110     1.0000 0.69877  0.33412  0.88590  Biso   1.000  C
  C111     1.0000 0.80123  0.83412  0.61410  Biso   1.000  C
  C112     1.0000 0.30123  0.33412  0.61410  Biso   1.000  C
  C113     1.0000 0.77607  0.24680  0.15680  Biso   1.000  C
  C114     1.0000 0.27607  0.74680  0.15680  Biso   1.000  C
  C115     1.0000 0.22393  0.24680  0.34320  Biso   1.000  C
  C116     1.0000 0.72393  0.74680  0.34320  Biso   1.000  C
  C117     1.0000 0.22393  0.75320  0.84320  Biso   1.000  C
  C118     1.0000 0.72393  0.25320  0.84320  Biso   1.000  C
  C119     1.0000 0.77607  0.75320  0.65680  Biso   1.000  C
  C120     1.0000 0.27607  0.25320  0.65680  Biso   1.000  C
  H65      1.0000 0.79920  0.30210  0.18240  Biso   1.000  H
  H66      1.0000 0.29920  0.80210  0.18240  Biso   1.000  H
  H67      1.0000 0.20080  0.30210  0.31760  Biso   1.000  H
  H68      1.0000 0.70080  0.80210  0.31760  Biso   1.000  H
  H69      1.0000 0.20080  0.69790  0.81760  Biso   1.000  H
  H70      1.0000 0.70080  0.19790  0.81760  Biso   1.000  H
  H71      1.0000 0.79920  0.69790  0.68240  Biso   1.000  H
  H72      1.0000 0.29920  0.19790  0.68240  Biso   1.000  H
  C121     1.0000 0.76418  0.08810  0.07400  Biso   1.000  C
  C122     1.0000 0.26418  0.58810  0.07400  Biso   1.000  C
  C123     1.0000 0.23582  0.08810  0.42600  Biso   1.000  C
  C124     1.0000 0.73582  0.58810  0.42600  Biso   1.000  C
  C125     1.0000 0.23582  0.91190  0.92600  Biso   1.000  C
  C126     1.0000 0.73582  0.41190  0.92600  Biso   1.000  C
  C127     1.0000 0.76418  0.91190  0.57400  Biso   1.000  C
  C128     1.0000 0.26418  0.41190  0.57400  Biso   1.000  C
  H73      1.0000 0.77960  0.03190  0.04550  Biso   1.000  H
  H74      1.0000 0.27960  0.53190  0.04550  Biso   1.000  H
  H75      1.0000 0.22040  0.03190  0.45450  Biso   1.000  H
  H76      1.0000 0.72040  0.53190  0.45450  Biso   1.000  H
  H77      1.0000 0.22040  0.96810  0.95450  Biso   1.000  H
  H78      1.0000 0.72040  0.46810  0.95450  Biso   1.000  H
  H79      1.0000 0.77960  0.96810  0.54550  Biso   1.000  H
  H80      1.0000 0.27960  0.46810  0.54550  Biso   1.000  H
  C129     1.0000 0.70413  0.09440  0.07640  Biso   1.000  C
  C130     1.0000 0.20413  0.59440  0.07640  Biso   1.000  C
  C131     1.0000 0.29587  0.09440  0.42360  Biso   1.000  C
  C132     1.0000 0.79587  0.59440  0.42360  Biso   1.000  C
  C133     1.0000 0.29587  0.90560  0.92360  Biso   1.000  C
  C134     1.0000 0.79587  0.40560  0.92360  Biso   1.000  C
  C135     1.0000 0.70413  0.90560  0.57640  Biso   1.000  C
  C136     1.0000 0.20413  0.40560  0.57640  Biso   1.000  C
  H81      1.0000 0.67940  0.04340  0.04480  Biso   1.000  H
  H82      1.0000 0.17940  0.54340  0.04480  Biso   1.000  H
  H83      1.0000 0.32060  0.04340  0.45520  Biso   1.000  H
  H84      1.0000 0.82060  0.54340  0.45520  Biso   1.000  H
  H85      1.0000 0.32060  0.95660  0.95520  Biso   1.000  H
  H86      1.0000 0.82060  0.45660  0.95520  Biso   1.000  H
  H87      1.0000 0.67940  0.95660  0.54480  Biso   1.000  H
  H88      1.0000 0.17940  0.45660  0.54480  Biso   1.000  H
  C137     1.0000 0.71599  0.24390  0.16060  Biso   1.000  C
  C138     1.0000 0.21599  0.74390  0.16060  Biso   1.000  C
  C139     1.0000 0.28401  0.24390  0.33940  Biso   1.000  C
  C140     1.0000 0.78401  0.74390  0.33940  Biso   1.000  C
  C141     1.0000 0.28401  0.75610  0.83940  Biso   1.000  C
  C142     1.0000 0.78401  0.25610  0.83940  Biso   1.000  C
  C143     1.0000 0.71599  0.75610  0.66060  Biso   1.000  C
  C144     1.0000 0.21599  0.25610  0.66060  Biso   1.000  C
  H89      1.0000 0.70000  0.29730  0.19250  Biso   1.000  H
  H90      1.0000 0.20000  0.79730  0.19250  Biso   1.000  H
  H91      1.0000 0.30000  0.29730  0.30750  Biso   1.000  H
  H92      1.0000 0.80000  0.79730  0.30750  Biso   1.000  H
  H93      1.0000 0.30000  0.70270  0.80750  Biso   1.000  H
  H94      1.0000 0.80000  0.20270  0.80750  Biso   1.000  H
  H95      1.0000 0.70000  0.70270  0.69250  Biso   1.000  H
  H96      1.0000 0.20000  0.20270  0.69250  Biso   1.000  H
  C145     1.0000 0.16981  0.62120  0.35880  Biso   1.000  C
  C146     1.0000 0.66981  0.12120  0.35880  Biso   1.000  C
  C147     1.0000 0.83019  0.62120  0.14120  Biso   1.000  C
  C148     1.0000 0.33019  0.12120  0.14120  Biso   1.000  C
  C149     1.0000 0.83019  0.37880  0.64120  Biso   1.000  C
  C150     1.0000 0.33019  0.87880  0.64120  Biso   1.000  C
  C151     1.0000 0.16981  0.37880  0.85880  Biso   1.000  C
  C152     1.0000 0.66981  0.87880  0.85880  Biso   1.000  C
  C153     1.0000 0.21405  0.68450  0.43170  Biso   1.000  C
  C154     1.0000 0.71405  0.18450  0.43170  Biso   1.000  C
  C155     1.0000 0.78595  0.68450  0.06830  Biso   1.000  C
  C156     1.0000 0.28595  0.18450  0.06830  Biso   1.000  C
  C157     1.0000 0.78595  0.31550  0.56830  Biso   1.000  C
  C158     1.0000 0.28595  0.81550  0.56830  Biso   1.000  C
  C159     1.0000 0.21405  0.31550  0.93170  Biso   1.000  C
  C160     1.0000 0.71405  0.81550  0.93170  Biso   1.000  C
  C161     1.0000 0.18978  0.75050  0.49360  Biso   1.000  C
  C162     1.0000 0.68978  0.25050  0.49360  Biso   1.000  C
  C163     1.0000 0.81022  0.75050  0.00640  Biso   1.000  C
  C164     1.0000 0.31022  0.25050  0.00640  Biso   1.000  C
  C165     1.0000 0.81022  0.24950  0.50640  Biso   1.000  C
  C166     1.0000 0.31022  0.74950  0.50640  Biso   1.000  C
  C167     1.0000 0.18978  0.24950  0.99360  Biso   1.000  C
  C168     1.0000 0.68978  0.74950  0.99360  Biso   1.000  C
  H97      1.0000 0.14860  0.75110  0.48930  Biso   1.000  H
  H98      1.0000 0.64860  0.25110  0.48930  Biso   1.000  H
  H99      1.0000 0.85140  0.75110  0.01070  Biso   1.000  H
  H100     1.0000 0.35140  0.25110  0.01070  Biso   1.000  H
  H101     1.0000 0.85140  0.24890  0.51070  Biso   1.000  H
  H102     1.0000 0.35140  0.74890  0.51070  Biso   1.000  H
  H103     1.0000 0.14860  0.24890  0.98930  Biso   1.000  H
  H104     1.0000 0.64860  0.74890  0.98930  Biso   1.000  H
  C169     1.0000 0.27641  0.68400  0.43790  Biso   1.000  C
  C170     1.0000 0.77641  0.18400  0.43790  Biso   1.000  C
  C171     1.0000 0.72359  0.68400  0.06210  Biso   1.000  C
  C172     1.0000 0.22359  0.18400  0.06210  Biso   1.000  C
  C173     1.0000 0.72359  0.31600  0.56210  Biso   1.000  C
  C174     1.0000 0.22359  0.81600  0.56210  Biso   1.000  C
  C175     1.0000 0.27641  0.31600  0.93790  Biso   1.000  C
  C176     1.0000 0.77641  0.81600  0.93790  Biso   1.000  C
  C177     1.0000 0.31212  0.61910  0.37730  Biso   1.000  C
  C178     1.0000 0.81212  0.11910  0.37730  Biso   1.000  C
  C179     1.0000 0.68788  0.61910  0.12270  Biso   1.000  C
  C180     1.0000 0.18788  0.11910  0.12270  Biso   1.000  C
  C181     1.0000 0.68788  0.38090  0.62270  Biso   1.000  C
  C182     1.0000 0.18788  0.88090  0.62270  Biso   1.000  C
  C183     1.0000 0.31212  0.38090  0.87730  Biso   1.000  C
  C184     1.0000 0.81212  0.88090  0.87730  Biso   1.000  C
  N1       1.0000 0.89223  0.07190  0.11256  Biso   1.000  N
  N2       1.0000 0.39223  0.57190  0.11256  Biso   1.000  N
  N3       1.0000 0.10777  0.07190  0.38744  Biso   1.000  N
  N4       1.0000 0.60777  0.57190  0.38744  Biso   1.000  N
  N5       1.0000 0.10777  0.92810  0.88744  Biso   1.000  N
  N6       1.0000 0.60777  0.42810  0.88744  Biso   1.000  N
  N7       1.0000 0.89223  0.92810  0.61256  Biso   1.000  N
  N8       1.0000 0.39223  0.42810  0.61256  Biso   1.000  N
  N9       1.0000 0.89502  0.25144  0.11940  Biso   1.000  N
  N10      1.0000 0.39502  0.75144  0.11940  Biso   1.000  N
  N11      1.0000 0.10498  0.25144  0.38060  Biso   1.000  N
  N12      1.0000 0.60498  0.75144  0.38060  Biso   1.000  N
  N13      1.0000 0.10498  0.74856  0.88060  Biso   1.000  N
  N14      1.0000 0.60498  0.24856  0.88060  Biso   1.000  N
  N15      1.0000 0.89502  0.74856  0.61940  Biso   1.000  N
  N16      1.0000 0.39502  0.24856  0.61940  Biso   1.000  N
  N17      1.0000 0.98450  0.15871  0.12381  Biso   1.000  N
  N18      1.0000 0.48450  0.65871  0.12381  Biso   1.000  N
  N19      1.0000 0.01550  0.15871  0.37619  Biso   1.000  N
  N20      1.0000 0.51550  0.65871  0.37619  Biso   1.000  N
  N21      1.0000 0.01550  0.84129  0.87619  Biso   1.000  N
  N22      1.0000 0.51550  0.34129  0.87619  Biso   1.000  N
  N23      1.0000 0.98450  0.84129  0.62381  Biso   1.000  N
  N24      1.0000 0.48450  0.34129  0.62381  Biso   1.000  N
  N25      1.0000 0.05023  0.52453  0.13311  Biso   1.000  N
  N26      1.0000 0.55023  0.02453  0.13311  Biso   1.000  N
  N27      1.0000 0.94977  0.52453  0.36689  Biso   1.000  N
  N28      1.0000 0.44977  0.02453  0.36689  Biso   1.000  N
  N29      1.0000 0.94977  0.47547  0.86689  Biso   1.000  N
  N30      1.0000 0.44977  0.97547  0.86689  Biso   1.000  N
  N31      1.0000 0.05023  0.47547  0.63311  Biso   1.000  N
  N32      1.0000 0.55023  0.97547  0.63311  Biso   1.000  N
  N33      1.0000 0.04596  0.79237  0.12945  Biso   1.000  N
  N34      1.0000 0.54596  0.29237  0.12945  Biso   1.000  N
  N35      1.0000 0.95404  0.79237  0.37055  Biso   1.000  N
  N36      1.0000 0.45404  0.29237  0.37055  Biso   1.000  N
  N37      1.0000 0.95404  0.20763  0.87055  Biso   1.000  N
  N38      1.0000 0.45404  0.70763  0.87055  Biso   1.000  N
  N39      1.0000 0.04596  0.20763  0.62945  Biso   1.000  N
  N40      1.0000 0.54596  0.70763  0.62945  Biso   1.000  N
  N41      1.0000 0.67916  0.16953  0.12150  Biso   1.000  N
  N42      1.0000 0.17916  0.66953  0.12150  Biso   1.000  N
  N43      1.0000 0.32084  0.16953  0.37850  Biso   1.000  N
  N44      1.0000 0.82084  0.66953  0.37850  Biso   1.000  N
  N45      1.0000 0.32084  0.83047  0.87850  Biso   1.000  N
  N46      1.0000 0.82084  0.33047  0.87850  Biso   1.000  N
  N47      1.0000 0.67916  0.83047  0.62150  Biso   1.000  N
  N48      1.0000 0.17916  0.33047  0.62150  Biso   1.000  N
  O1       1.0000 0.12149  0.66071  0.32516  Biso   1.000  O
  O2       1.0000 0.62149  0.16071  0.32516  Biso   1.000  O
  O3       1.0000 0.87851  0.66071  0.17484  Biso   1.000  O
  O4       1.0000 0.37851  0.16071  0.17484  Biso   1.000  O
  O5       1.0000 0.87851  0.33929  0.67484  Biso   1.000  O
  O6       1.0000 0.37851  0.83929  0.67484  Biso   1.000  O
  O7       1.0000 0.12149  0.33929  0.82516  Biso   1.000  O
  O8       1.0000 0.62149  0.83929  0.82516  Biso   1.000  O
  O9       1.0000 0.18459  0.53191  0.33822  Biso   1.000  O
  O10      1.0000 0.68459  0.03191  0.33822  Biso   1.000  O
  O11      1.0000 0.81541  0.53191  0.16178  Biso   1.000  O
  O12      1.0000 0.31541  0.03191  0.16178  Biso   1.000  O
  O13      1.0000 0.81541  0.46809  0.66178  Biso   1.000  O
  O14      1.0000 0.31541  0.96809  0.66178  Biso   1.000  O
  O15      1.0000 0.18459  0.46809  0.83822  Biso   1.000  O
  O16      1.0000 0.68459  0.96809  0.83822  Biso   1.000  O
  O17      1.0000 0.29148  0.53082  0.34477  Biso   1.000  O
  O18      1.0000 0.79148  0.03082  0.34477  Biso   1.000  O
  O19      1.0000 0.70852  0.53082  0.15523  Biso   1.000  O
  O20      1.0000 0.20852  0.03082  0.15523  Biso   1.000  O
  O21      1.0000 0.70852  0.46918  0.65523  Biso   1.000  O
  O22      1.0000 0.20852  0.96918  0.65523  Biso   1.000  O
  O23      1.0000 0.29148  0.46918  0.84477  Biso   1.000  O
  O24      1.0000 0.79148  0.96918  0.84477  Biso   1.000  O
  H105     1.0000 0.25570  0.52810  0.34630  Biso   1.000  H
  H106     1.0000 0.75570  0.02810  0.34630  Biso   1.000  H
  H107     1.0000 0.74430  0.52810  0.15370  Biso   1.000  H
  H108     1.0000 0.24430  0.02810  0.15370  Biso   1.000  H
  H109     1.0000 0.74430  0.47190  0.65370  Biso   1.000  H
  H110     1.0000 0.24430  0.97190  0.65370  Biso   1.000  H
  H111     1.0000 0.25570  0.47190  0.84630  Biso   1.000  H
  H112     1.0000 0.75570  0.97190  0.84630  Biso   1.000  H
  O25      1.0000 0.36015  0.64957  0.36184  Biso   1.000  O
  O26      1.0000 0.86015  0.14957  0.36184  Biso   1.000  O
  O27      1.0000 0.63985  0.64957  0.13816  Biso   1.000  O
  O28      1.0000 0.13985  0.14957  0.13816  Biso   1.000  O
  O29      1.0000 0.63985  0.35043  0.63816  Biso   1.000  O
  O30      1.0000 0.13985  0.85043  0.63816  Biso   1.000  O
  O31      1.0000 0.36015  0.35043  0.86184  Biso   1.000  O
  O32      1.0000 0.86015  0.85043  0.86184  Biso   1.000  O
