data_image0
_cell_length_a       29.5408
_cell_length_b       4.0795
_cell_length_c       14.3164
_cell_angle_alpha    90
_cell_angle_beta     111.712
_cell_angle_gamma    90

_symmetry_space_group_name_H-M    "P 1"
_symmetry_int_tables_number       1

loop_
  _symmetry_equiv_pos_as_xyz
  'x, y, z'

loop_
  _atom_site_label
  _atom_site_occupancy
  _atom_site_fract_x
  _atom_site_fract_y
  _atom_site_fract_z
  _atom_site_thermal_displace_type
  _atom_site_B_iso_or_equiv
  _atom_site_type_symbol
  I1       1.0000 0.22019  0.31394  0.10164  Biso   1.000  I
  I2       1.0000 0.72019  0.81394  0.10164  Biso   1.000  I
  I3       1.0000 0.77981  0.31394  0.39836  Biso   1.000  I
  I4       1.0000 0.27981  0.81394  0.39836  Biso   1.000  I
  I5       1.0000 0.77981  0.68606  0.89836  Biso   1.000  I
  I6       1.0000 0.27981  0.18606  0.89836  Biso   1.000  I
  I7       1.0000 0.22019  0.68606  0.60164  Biso   1.000  I
  I8       1.0000 0.72019  0.18606  0.60164  Biso   1.000  I
  Cu1      1.0000 0.26837  0.80730  0.20718  Biso   1.000  Cu
  Cu2      1.0000 0.76836  0.30730  0.20718  Biso   1.000  Cu
  Cu3      1.0000 0.73164  0.80730  0.29282  Biso   1.000  Cu
  Cu4      1.0000 0.23163  0.30730  0.29282  Biso   1.000  Cu
  Cu5      1.0000 0.73164  0.19270  0.79282  Biso   1.000  Cu
  Cu6      1.0000 0.23163  0.69270  0.79282  Biso   1.000  Cu
  Cu7      1.0000 0.26836  0.19270  0.70718  Biso   1.000  Cu
  Cu8      1.0000 0.76836  0.69270  0.70718  Biso   1.000  Cu
  N1       1.0000 0.33830  0.85640  0.21040  Biso   1.000  N
  N2       1.0000 0.83830  0.35640  0.21040  Biso   1.000  N
  N3       1.0000 0.66170  0.85640  0.28960  Biso   1.000  N
  N4       1.0000 0.16170  0.35640  0.28960  Biso   1.000  N
  N5       1.0000 0.66170  0.14360  0.78960  Biso   1.000  N
  N6       1.0000 0.16170  0.64360  0.78960  Biso   1.000  N
  N7       1.0000 0.33830  0.14360  0.71040  Biso   1.000  N
  N8       1.0000 0.83830  0.64360  0.71040  Biso   1.000  N
  C1       1.0000 0.37134  0.01820  0.28690  Biso   1.000  C
  C2       1.0000 0.87134  0.51820  0.28690  Biso   1.000  C
  C3       1.0000 0.62866  0.01820  0.21310  Biso   1.000  C
  C4       1.0000 0.12866  0.51820  0.21310  Biso   1.000  C
  C5       1.0000 0.62866  0.98180  0.71310  Biso   1.000  C
  C6       1.0000 0.12866  0.48180  0.71310  Biso   1.000  C
  C7       1.0000 0.37134  0.98180  0.78690  Biso   1.000  C
  C8       1.0000 0.87134  0.48180  0.78690  Biso   1.000  C
  C9       1.0000 0.41814  0.07480  0.28960  Biso   1.000  C
  C10      1.0000 0.91814  0.57480  0.28960  Biso   1.000  C
  C11      1.0000 0.58186  0.07480  0.21040  Biso   1.000  C
  C12      1.0000 0.08186  0.57480  0.21040  Biso   1.000  C
  C13      1.0000 0.58186  0.92520  0.71040  Biso   1.000  C
  C14      1.0000 0.08186  0.42520  0.71040  Biso   1.000  C
  C15      1.0000 0.41814  0.92520  0.78960  Biso   1.000  C
  C16      1.0000 0.91814  0.42520  0.78960  Biso   1.000  C
  N9       1.0000 0.43237  0.97790  0.21560  Biso   1.000  N
  N10      1.0000 0.93237  0.47790  0.21560  Biso   1.000  N
  N11      1.0000 0.56763  0.97790  0.28440  Biso   1.000  N
  N12      1.0000 0.06763  0.47790  0.28440  Biso   1.000  N
  N13      1.0000 0.56763  0.02210  0.78440  Biso   1.000  N
  N14      1.0000 0.06763  0.52210  0.78440  Biso   1.000  N
  N15      1.0000 0.43237  0.02210  0.71560  Biso   1.000  N
  N16      1.0000 0.93237  0.52210  0.71560  Biso   1.000  N
  C17      1.0000 0.39912  0.82160  0.13900  Biso   1.000  C
  C18      1.0000 0.89912  0.32160  0.13900  Biso   1.000  C
  C19      1.0000 0.60088  0.82160  0.36100  Biso   1.000  C
  C20      1.0000 0.10088  0.32160  0.36100  Biso   1.000  C
  C21      1.0000 0.60088  0.17840  0.86100  Biso   1.000  C
  C22      1.0000 0.10088  0.67840  0.86100  Biso   1.000  C
  C23      1.0000 0.39912  0.17840  0.63900  Biso   1.000  C
  C24      1.0000 0.89912  0.67840  0.63900  Biso   1.000  C
  C25      1.0000 0.35231  0.75800  0.13660  Biso   1.000  C
  C26      1.0000 0.85231  0.25800  0.13660  Biso   1.000  C
  C27      1.0000 0.64769  0.75800  0.36340  Biso   1.000  C
  C28      1.0000 0.14769  0.25800  0.36340  Biso   1.000  C
  C29      1.0000 0.64769  0.24200  0.86340  Biso   1.000  C
  C30      1.0000 0.14769  0.74200  0.86340  Biso   1.000  C
  C31      1.0000 0.35231  0.24200  0.63660  Biso   1.000  C
  C32      1.0000 0.85231  0.74200  0.63660  Biso   1.000  C
  C33      1.0000 0.45324  0.25450  0.37890  Biso   1.000  C
  C34      1.0000 0.95324  0.75450  0.37890  Biso   1.000  C
  C35      1.0000 0.54676  0.25450  0.12110  Biso   1.000  C
  C36      1.0000 0.04676  0.75450  0.12110  Biso   1.000  C
  C37      1.0000 0.54676  0.74550  0.62110  Biso   1.000  C
  C38      1.0000 0.04676  0.24550  0.62110  Biso   1.000  C
  C39      1.0000 0.45324  0.74550  0.87890  Biso   1.000  C
  C40      1.0000 0.95324  0.24550  0.87890  Biso   1.000  C
  O1       1.0000 0.43762  0.38790  0.43870  Biso   1.000  O
  O2       1.0000 0.93762  0.88790  0.43870  Biso   1.000  O
  O3       1.0000 0.56238  0.38790  0.06130  Biso   1.000  O
  O4       1.0000 0.06238  0.88790  0.06130  Biso   1.000  O
  O5       1.0000 0.56238  0.61210  0.56130  Biso   1.000  O
  O6       1.0000 0.06238  0.11210  0.56130  Biso   1.000  O
  O7       1.0000 0.43762  0.61210  0.93870  Biso   1.000  O
  O8       1.0000 0.93762  0.11210  0.93870  Biso   1.000  O
  N17      1.0000 0.49934  0.25860  0.38740  Biso   1.000  N
  N18      1.0000 0.99934  0.75860  0.38740  Biso   1.000  N
  N19      1.0000 0.50066  0.25860  0.11260  Biso   1.000  N
  N20      1.0000 0.00066  0.75860  0.11260  Biso   1.000  N
  N21      1.0000 0.50066  0.74140  0.61260  Biso   1.000  N
  N22      1.0000 0.00066  0.24140  0.61260  Biso   1.000  N
  N23      1.0000 0.49934  0.74140  0.88740  Biso   1.000  N
  N24      1.0000 0.99934  0.24140  0.88740  Biso   1.000  N
  H1       1.0000 0.36250  0.09510  0.33970  Biso   1.000  H
  H2       1.0000 0.86250  0.59510  0.33970  Biso   1.000  H
  H3       1.0000 0.63750  0.09510  0.16030  Biso   1.000  H
  H4       1.0000 0.13750  0.59510  0.16030  Biso   1.000  H
  H5       1.0000 0.63750  0.90490  0.66030  Biso   1.000  H
  H6       1.0000 0.13750  0.40490  0.66030  Biso   1.000  H
  H7       1.0000 0.36250  0.90490  0.83970  Biso   1.000  H
  H8       1.0000 0.86250  0.40490  0.83970  Biso   1.000  H
  H9       1.0000 0.40760  0.75450  0.08530  Biso   1.000  H
  H10      1.0000 0.90760  0.25450  0.08530  Biso   1.000  H
  H11      1.0000 0.59240  0.75450  0.41470  Biso   1.000  H
  H12      1.0000 0.09240  0.25450  0.41470  Biso   1.000  H
  H13      1.0000 0.59240  0.24550  0.91470  Biso   1.000  H
  H14      1.0000 0.09240  0.74550  0.91470  Biso   1.000  H
  H15      1.0000 0.40760  0.24550  0.58530  Biso   1.000  H
  H16      1.0000 0.90760  0.74550  0.58530  Biso   1.000  H
  H17      1.0000 0.33050  0.64490  0.08250  Biso   1.000  H
  H18      1.0000 0.83050  0.14490  0.08250  Biso   1.000  H
  H19      1.0000 0.66950  0.64490  0.41750  Biso   1.000  H
  H20      1.0000 0.16950  0.14490  0.41750  Biso   1.000  H
  H21      1.0000 0.66950  0.35510  0.91750  Biso   1.000  H
  H22      1.0000 0.16950  0.85510  0.91750  Biso   1.000  H
  H23      1.0000 0.33050  0.35510  0.58250  Biso   1.000  H
  H24      1.0000 0.83050  0.85510  0.58250  Biso   1.000  H
  H25      1.0000 0.52040  0.35470  0.43650  Biso   1.000  H
  H26      1.0000 0.02040  0.85470  0.43650  Biso   1.000  H
  H27      1.0000 0.47960  0.35470  0.06350  Biso   1.000  H
  H28      1.0000 0.97960  0.85470  0.06350  Biso   1.000  H
  H29      1.0000 0.47960  0.64530  0.56350  Biso   1.000  H
  H30      1.0000 0.97960  0.14530  0.56350  Biso   1.000  H
  H31      1.0000 0.52040  0.64530  0.93650  Biso   1.000  H
  H32      1.0000 0.02040  0.14530  0.93650  Biso   1.000  H
  H33      1.0000 0.50940  0.15270  0.34640  Biso   1.000  H
  H34      1.0000 0.00940  0.65270  0.34640  Biso   1.000  H
  H35      1.0000 0.49060  0.15270  0.15360  Biso   1.000  H
  H36      1.0000 0.99060  0.65270  0.15360  Biso   1.000  H
  H37      1.0000 0.49060  0.84730  0.65360  Biso   1.000  H
  H38      1.0000 0.99060  0.34730  0.65360  Biso   1.000  H
  H39      1.0000 0.50940  0.84730  0.84640  Biso   1.000  H
  H40      1.0000 0.00940  0.34730  0.84640  Biso   1.000  H
