data_image0
_cell_length_a       16.8933
_cell_length_b       11.9388
_cell_length_c       11.1723
_cell_angle_alpha    90
_cell_angle_beta     102.943
_cell_angle_gamma    90

_symmetry_space_group_name_H-M    "P 1"
_symmetry_int_tables_number       1

loop_
  _symmetry_equiv_pos_as_xyz
  'x, y, z'

loop_
  _atom_site_label
  _atom_site_occupancy
  _atom_site_fract_x
  _atom_site_fract_y
  _atom_site_fract_z
  _atom_site_thermal_displace_type
  _atom_site_B_iso_or_equiv
  _atom_site_type_symbol
  C1       1.0000 0.18243  0.78602  0.45746  Biso   1.000  C
  C2       1.0000 0.81757  0.28602  0.04254  Biso   1.000  C
  C3       1.0000 0.81757  0.21398  0.54254  Biso   1.000  C
  C4       1.0000 0.18243  0.71398  0.95746  Biso   1.000  C
  C5       1.0000 0.19590  0.89707  0.43036  Biso   1.000  C
  C6       1.0000 0.80410  0.39707  0.06964  Biso   1.000  C
  C7       1.0000 0.80410  0.10293  0.56964  Biso   1.000  C
  C8       1.0000 0.19590  0.60293  0.93036  Biso   1.000  C
  C9       1.0000 0.14343  0.95047  0.33357  Biso   1.000  C
  C10      1.0000 0.85657  0.45047  0.16643  Biso   1.000  C
  C11      1.0000 0.85657  0.04953  0.66643  Biso   1.000  C
  C12      1.0000 0.14343  0.54953  0.83357  Biso   1.000  C
  C13      1.0000 0.07749  0.89282  0.26388  Biso   1.000  C
  C14      1.0000 0.92251  0.39282  0.23612  Biso   1.000  C
  C15      1.0000 0.92251  0.10718  0.73612  Biso   1.000  C
  C16      1.0000 0.07749  0.60718  0.76388  Biso   1.000  C
  C17      1.0000 0.06403  0.78177  0.29098  Biso   1.000  C
  C18      1.0000 0.93597  0.28177  0.20902  Biso   1.000  C
  C19      1.0000 0.93597  0.21823  0.70902  Biso   1.000  C
  C20      1.0000 0.06403  0.71823  0.79098  Biso   1.000  C
  C21      1.0000 0.11650  0.72837  0.38777  Biso   1.000  C
  C22      1.0000 0.88350  0.22837  0.11223  Biso   1.000  C
  C23      1.0000 0.88350  0.27163  0.61223  Biso   1.000  C
  C24      1.0000 0.11650  0.77163  0.88777  Biso   1.000  C
  H1       1.0000 0.24096  0.93647  0.47799  Biso   1.000  H
  H2       1.0000 0.75904  0.43647  0.02201  Biso   1.000  H
  H3       1.0000 0.75904  0.06353  0.52201  Biso   1.000  H
  H4       1.0000 0.24096  0.56353  0.97799  Biso   1.000  H
  H5       1.0000 0.10730  0.65247  0.40629  Biso   1.000  H
  H6       1.0000 0.89270  0.15247  0.09371  Biso   1.000  H
  H7       1.0000 0.89270  0.34753  0.59371  Biso   1.000  H
  H8       1.0000 0.10730  0.84753  0.90629  Biso   1.000  H
  H9       1.0000 0.15263  0.02637  0.31505  Biso   1.000  H
  H10      1.0000 0.84737  0.52637  0.18495  Biso   1.000  H
  H11      1.0000 0.84737  0.97363  0.68495  Biso   1.000  H
  H12      1.0000 0.15263  0.47363  0.81505  Biso   1.000  H
  H13      1.0000 0.01897  0.74237  0.24335  Biso   1.000  H
  H14      1.0000 0.98103  0.24237  0.25665  Biso   1.000  H
  H15      1.0000 0.98103  0.25763  0.75665  Biso   1.000  H
  H16      1.0000 0.01897  0.75763  0.74335  Biso   1.000  H
  C25      1.0000 0.02503  0.94623  0.16710  Biso   1.000  C
  C26      1.0000 0.97497  0.44623  0.33290  Biso   1.000  C
  C27      1.0000 0.97497  0.05377  0.83290  Biso   1.000  C
  C28      1.0000 0.02503  0.55377  0.66710  Biso   1.000  C
  H17      1.0000 0.02684  0.02478  0.18102  Biso   1.000  H
  H18      1.0000 0.97316  0.52478  0.31898  Biso   1.000  H
  H19      1.0000 0.97316  0.97522  0.81898  Biso   1.000  H
  H20      1.0000 0.02684  0.47522  0.68102  Biso   1.000  H
  H21      1.0000 0.04108  0.93055  0.09260  Biso   1.000  H
  H22      1.0000 0.95892  0.43055  0.40740  Biso   1.000  H
  H23      1.0000 0.95892  0.06945  0.90740  Biso   1.000  H
  H24      1.0000 0.04108  0.56945  0.59260  Biso   1.000  H
  C29      1.0000 0.93873  0.90844  0.15285  Biso   1.000  C
  C30      1.0000 0.06127  0.40844  0.34715  Biso   1.000  C
  C31      1.0000 0.06127  0.09156  0.84715  Biso   1.000  C
  C32      1.0000 0.93873  0.59156  0.65285  Biso   1.000  C
  C33      1.0000 0.89631  0.84308  0.06082  Biso   1.000  C
  C34      1.0000 0.10369  0.34308  0.43918  Biso   1.000  C
  C35      1.0000 0.10369  0.15692  0.93918  Biso   1.000  C
  C36      1.0000 0.89631  0.65692  0.56082  Biso   1.000  C
  N1       1.0000 0.82054  0.82778  0.08079  Biso   1.000  N
  N2       1.0000 0.17946  0.32778  0.41921  Biso   1.000  N
  N3       1.0000 0.17946  0.17222  0.91921  Biso   1.000  N
  N4       1.0000 0.82054  0.67222  0.58079  Biso   1.000  N
  N5       1.0000 0.81613  0.88368  0.18516  Biso   1.000  N
  N6       1.0000 0.18387  0.38368  0.31484  Biso   1.000  N
  N7       1.0000 0.18387  0.11632  0.81484  Biso   1.000  N
  N8       1.0000 0.81613  0.61632  0.68516  Biso   1.000  N
  C37      1.0000 0.88918  0.93353  0.22970  Biso   1.000  C
  C38      1.0000 0.11082  0.43353  0.27030  Biso   1.000  C
  C39      1.0000 0.11082  0.06647  0.77030  Biso   1.000  C
  C40      1.0000 0.88918  0.56647  0.72970  Biso   1.000  C
  C41      1.0000 0.92760  0.79612  0.95574  Biso   1.000  C
  C42      1.0000 0.07240  0.29612  0.54426  Biso   1.000  C
  C43      1.0000 0.07240  0.20388  0.04426  Biso   1.000  C
  C44      1.0000 0.92760  0.70388  0.45574  Biso   1.000  C
  H25      1.0000 0.98507  0.80286  0.97290  Biso   1.000  H
  H26      1.0000 0.01493  0.30286  0.52710  Biso   1.000  H
  H27      1.0000 0.01493  0.19714  0.02710  Biso   1.000  H
  H28      1.0000 0.98507  0.69714  0.47290  Biso   1.000  H
  H29      1.0000 0.91294  0.71937  0.94480  Biso   1.000  H
  H30      1.0000 0.08706  0.21937  0.55520  Biso   1.000  H
  H31      1.0000 0.08706  0.28063  0.05520  Biso   1.000  H
  H32      1.0000 0.91294  0.78063  0.44480  Biso   1.000  H
  H33      1.0000 0.90464  0.83636  0.88287  Biso   1.000  H
  H34      1.0000 0.09536  0.33636  0.61713  Biso   1.000  H
  H35      1.0000 0.09536  0.16364  0.11713  Biso   1.000  H
  H36      1.0000 0.90464  0.66364  0.38287  Biso   1.000  H
  C45      1.0000 0.91122  0.00384  0.34358  Biso   1.000  C
  C46      1.0000 0.08878  0.50384  0.15642  Biso   1.000  C
  C47      1.0000 0.08878  0.99616  0.65642  Biso   1.000  C
  C48      1.0000 0.91122  0.49616  0.84358  Biso   1.000  C
  H37      1.0000 0.96852  0.01272  0.36633  Biso   1.000  H
  H38      1.0000 0.03148  0.51272  0.13367  Biso   1.000  H
  H39      1.0000 0.03148  0.98728  0.63367  Biso   1.000  H
  H40      1.0000 0.96852  0.48728  0.86633  Biso   1.000  H
  H41      1.0000 0.88625  0.07529  0.32827  Biso   1.000  H
  H42      1.0000 0.11375  0.57529  0.17173  Biso   1.000  H
  H43      1.0000 0.11375  0.92471  0.67173  Biso   1.000  H
  H44      1.0000 0.88625  0.42471  0.82827  Biso   1.000  H
  H45      1.0000 0.89288  0.96812  0.40838  Biso   1.000  H
  H46      1.0000 0.10712  0.46812  0.09162  Biso   1.000  H
  H47      1.0000 0.10712  0.03188  0.59162  Biso   1.000  H
  H48      1.0000 0.89288  0.53188  0.90838  Biso   1.000  H
  C49      1.0000 0.23679  0.73069  0.55773  Biso   1.000  C
  C50      1.0000 0.76321  0.23069  0.94227  Biso   1.000  C
  C51      1.0000 0.76321  0.26931  0.44227  Biso   1.000  C
  C52      1.0000 0.23679  0.76931  0.05773  Biso   1.000  C
  C53      1.0000 0.30272  0.78834  0.62742  Biso   1.000  C
  C54      1.0000 0.69728  0.28834  0.87258  Biso   1.000  C
  C55      1.0000 0.69728  0.21166  0.37258  Biso   1.000  C
  C56      1.0000 0.30272  0.71166  0.12742  Biso   1.000  C
  C57      1.0000 0.35519  0.73494  0.72420  Biso   1.000  C
  C58      1.0000 0.64481  0.23494  0.77580  Biso   1.000  C
  C59      1.0000 0.64481  0.26506  0.27580  Biso   1.000  C
  C60      1.0000 0.35519  0.76506  0.22420  Biso   1.000  C
  C61      1.0000 0.34173  0.62388  0.75130  Biso   1.000  C
  C62      1.0000 0.65827  0.12388  0.74870  Biso   1.000  C
  C63      1.0000 0.65827  0.37612  0.24870  Biso   1.000  C
  C64      1.0000 0.34173  0.87612  0.25130  Biso   1.000  C
  C65      1.0000 0.27579  0.56623  0.68161  Biso   1.000  C
  C66      1.0000 0.72421  0.06623  0.81839  Biso   1.000  C
  C67      1.0000 0.72421  0.43377  0.31839  Biso   1.000  C
  C68      1.0000 0.27579  0.93377  0.18161  Biso   1.000  C
  C69      1.0000 0.22332  0.61964  0.58482  Biso   1.000  C
  C70      1.0000 0.77668  0.11964  0.91518  Biso   1.000  C
  C71      1.0000 0.77668  0.38036  0.41518  Biso   1.000  C
  C72      1.0000 0.22332  0.88036  0.08482  Biso   1.000  C
  H49      1.0000 0.31193  0.86424  0.60890  Biso   1.000  H
  H50      1.0000 0.68807  0.36424  0.89110  Biso   1.000  H
  H51      1.0000 0.68807  0.13576  0.39110  Biso   1.000  H
  H52      1.0000 0.31193  0.63576  0.10890  Biso   1.000  H
  H53      1.0000 0.40026  0.77433  0.77183  Biso   1.000  H
  H54      1.0000 0.59974  0.27433  0.72817  Biso   1.000  H
  H55      1.0000 0.59974  0.22567  0.22817  Biso   1.000  H
  H56      1.0000 0.40026  0.72567  0.27183  Biso   1.000  H
  H57      1.0000 0.26659  0.49033  0.70013  Biso   1.000  H
  H58      1.0000 0.73341  0.99033  0.79987  Biso   1.000  H
  H59      1.0000 0.73341  0.50967  0.29987  Biso   1.000  H
  H60      1.0000 0.26659  0.00967  0.20013  Biso   1.000  H
  H61      1.0000 0.17826  0.58024  0.53719  Biso   1.000  H
  H62      1.0000 0.82174  0.08024  0.96281  Biso   1.000  H
  H63      1.0000 0.82174  0.41976  0.46281  Biso   1.000  H
  H64      1.0000 0.17826  0.91976  0.03719  Biso   1.000  H
  C73      1.0000 0.39420  0.57048  0.84809  Biso   1.000  C
  C74      1.0000 0.60580  0.07048  0.65191  Biso   1.000  C
  C75      1.0000 0.60580  0.42952  0.15191  Biso   1.000  C
  C76      1.0000 0.39420  0.92952  0.34809  Biso   1.000  C
  H65      1.0000 0.38307  0.59461  0.92367  Biso   1.000  H
  H66      1.0000 0.61693  0.09461  0.57633  Biso   1.000  H
  H67      1.0000 0.61693  0.40539  0.07633  Biso   1.000  H
  H68      1.0000 0.38307  0.90539  0.42367  Biso   1.000  H
  H69      1.0000 0.38670  0.49173  0.84028  Biso   1.000  H
  H70      1.0000 0.61330  0.99173  0.65972  Biso   1.000  H
  H71      1.0000 0.61330  0.50827  0.15972  Biso   1.000  H
  H72      1.0000 0.38670  0.00827  0.34028  Biso   1.000  H
  C77      1.0000 0.48226  0.59362  0.85398  Biso   1.000  C
  C78      1.0000 0.51774  0.09362  0.64602  Biso   1.000  C
  C79      1.0000 0.51774  0.40638  0.14602  Biso   1.000  C
  C80      1.0000 0.48226  0.90638  0.35398  Biso   1.000  C
  C81      1.0000 0.53258  0.65611  0.94073  Biso   1.000  C
  C82      1.0000 0.46742  0.15611  0.55927  Biso   1.000  C
  C83      1.0000 0.46742  0.34389  0.05927  Biso   1.000  C
  C84      1.0000 0.53258  0.84389  0.44073  Biso   1.000  C
  N9       1.0000 0.60722  0.65690  0.91387  Biso   1.000  N
  N10      1.0000 0.39278  0.15690  0.58613  Biso   1.000  N
  N11      1.0000 0.39278  0.34310  0.08613  Biso   1.000  N
  N12      1.0000 0.60722  0.84310  0.41387  Biso   1.000  N
  N13      1.0000 0.60303  0.59490  0.81052  Biso   1.000  N
  N14      1.0000 0.39697  0.09490  0.68948  Biso   1.000  N
  N15      1.0000 0.39697  0.40510  0.18948  Biso   1.000  N
  N16      1.0000 0.60303  0.90510  0.31052  Biso   1.000  N
  C85      1.0000 0.52580  0.55579  0.77350  Biso   1.000  C
  C86      1.0000 0.47420  0.05579  0.72650  Biso   1.000  C
  C87      1.0000 0.47420  0.44421  0.22650  Biso   1.000  C
  C88      1.0000 0.52580  0.94421  0.27350  Biso   1.000  C
  C89      1.0000 0.50977  0.71399  0.04732  Biso   1.000  C
  C90      1.0000 0.49023  0.21399  0.45268  Biso   1.000  C
  C91      1.0000 0.49023  0.28601  0.95268  Biso   1.000  C
  C92      1.0000 0.50977  0.78601  0.54732  Biso   1.000  C
  H73      1.0000 0.45239  0.71317  0.03683  Biso   1.000  H
  H74      1.0000 0.54761  0.21317  0.46317  Biso   1.000  H
  H75      1.0000 0.54761  0.28683  0.96317  Biso   1.000  H
  H76      1.0000 0.45239  0.78683  0.53683  Biso   1.000  H
  H77      1.0000 0.53408  0.67623  0.12127  Biso   1.000  H
  H78      1.0000 0.46592  0.17623  0.37873  Biso   1.000  H
  H79      1.0000 0.46592  0.32377  0.87873  Biso   1.000  H
  H80      1.0000 0.53408  0.82377  0.62127  Biso   1.000  H
  H81      1.0000 0.52836  0.78929  0.05147  Biso   1.000  H
  H82      1.0000 0.47164  0.28929  0.44853  Biso   1.000  H
  H83      1.0000 0.47164  0.21071  0.94853  Biso   1.000  H
  H84      1.0000 0.52836  0.71071  0.55147  Biso   1.000  H
  C93      1.0000 0.49419  0.48360  0.66327  Biso   1.000  C
  C94      1.0000 0.50581  0.98360  0.83673  Biso   1.000  C
  C95      1.0000 0.50581  0.51640  0.33673  Biso   1.000  C
  C96      1.0000 0.49419  0.01640  0.16327  Biso   1.000  C
  H85      1.0000 0.44672  0.44548  0.67322  Biso   1.000  H
  H86      1.0000 0.55328  0.94548  0.82678  Biso   1.000  H
  H87      1.0000 0.55328  0.55452  0.32678  Biso   1.000  H
  H88      1.0000 0.44672  0.05452  0.17322  Biso   1.000  H
  H89      1.0000 0.48137  0.52911  0.59179  Biso   1.000  H
  H90      1.0000 0.51863  0.02911  0.90821  Biso   1.000  H
  H91      1.0000 0.51863  0.47089  0.40821  Biso   1.000  H
  H92      1.0000 0.48137  0.97089  0.09179  Biso   1.000  H
  H93      1.0000 0.53443  0.43042  0.65490  Biso   1.000  H
  H94      1.0000 0.46557  0.93042  0.84510  Biso   1.000  H
  H95      1.0000 0.46557  0.56958  0.34510  Biso   1.000  H
  H96      1.0000 0.53443  0.06958  0.15490  Biso   1.000  H
  Cu1      1.0000 0.72162  0.88572  0.27020  Biso   1.000  Cu
  Cu2      1.0000 0.27838  0.38572  0.22980  Biso   1.000  Cu
  Cu3      1.0000 0.27838  0.11428  0.72980  Biso   1.000  Cu
  Cu4      1.0000 0.72162  0.61428  0.77020  Biso   1.000  Cu
  Cu5      1.0000 0.70474  0.74390  0.01430  Biso   1.000  Cu
  Cu6      1.0000 0.29526  0.24390  0.48570  Biso   1.000  Cu
  Cu7      1.0000 0.29526  0.25610  0.98570  Biso   1.000  Cu
  Cu8      1.0000 0.70474  0.75610  0.51430  Biso   1.000  Cu
