data_image0
_cell_length_a       7.0807
_cell_length_b       24.8237
_cell_length_c       18.1874
_cell_angle_alpha    90
_cell_angle_beta     99.022
_cell_angle_gamma    90

_symmetry_space_group_name_H-M    "P 1"
_symmetry_int_tables_number       1

loop_
  _symmetry_equiv_pos_as_xyz
  'x, y, z'

loop_
  _atom_site_label
  _atom_site_occupancy
  _atom_site_fract_x
  _atom_site_fract_y
  _atom_site_fract_z
  _atom_site_thermal_displace_type
  _atom_site_B_iso_or_equiv
  _atom_site_type_symbol
  Sm1      1.0000 0.21755  0.40262  0.01567  Biso   1.000  Sm
  Sm2      1.0000 0.78245  0.90262  0.98433  Biso   1.000  Sm
  Sm3      1.0000 0.78245  0.59738  0.98433  Biso   1.000  Sm
  Sm4      1.0000 0.21755  0.09738  0.01567  Biso   1.000  Sm
  Cu1      1.0000 0.75055  0.31649  0.44638  Biso   1.000  Cu
  Cu2      1.0000 0.24945  0.81649  0.55362  Biso   1.000  Cu
  Cu3      1.0000 0.24945  0.68351  0.55362  Biso   1.000  Cu
  Cu4      1.0000 0.75055  0.18351  0.44638  Biso   1.000  Cu
  Cu5      1.0000 0.76981  0.25000  0.56715  Biso   1.000  Cu
  Cu6      1.0000 0.23019  0.75000  0.43285  Biso   1.000  Cu
  Cu7      1.0000 0.82489  0.41957  0.56096  Biso   1.000  Cu
  Cu8      1.0000 0.17511  0.91957  0.43904  Biso   1.000  Cu
  Cu9      1.0000 0.17511  0.58043  0.43904  Biso   1.000  Cu
  Cu10     1.0000 0.82489  0.08043  0.56096  Biso   1.000  Cu
  Cu11     1.0000 0.62210  0.50784  0.45517  Biso   1.000  Cu
  Cu12     1.0000 0.37790  0.00784  0.54483  Biso   1.000  Cu
  Cu13     1.0000 0.37790  0.49216  0.54483  Biso   1.000  Cu
  Cu14     1.0000 0.62210  0.99216  0.45517  Biso   1.000  Cu
  I1       1.0000 0.47414  0.25000  0.44254  Biso   1.000  I
  I2       1.0000 0.52586  0.75000  0.55746  Biso   1.000  I
  I3       1.0000 0.01945  0.32981  0.55683  Biso   1.000  I
  I4       1.0000 0.98055  0.82981  0.44317  Biso   1.000  I
  I5       1.0000 0.98055  0.67020  0.44317  Biso   1.000  I
  I6       1.0000 0.01945  0.17019  0.55683  Biso   1.000  I
  I7       1.0000 0.49063  0.41053  0.47026  Biso   1.000  I
  I8       1.0000 0.50937  0.91053  0.52974  Biso   1.000  I
  I9       1.0000 0.50937  0.58947  0.52974  Biso   1.000  I
  I10      1.0000 0.49063  0.08947  0.47026  Biso   1.000  I
  I11      1.0000 0.00000  0.50000  0.50000  Biso   1.000  I
  I12      1.0000 0.00000  0.00000  0.50000  Biso   1.000  I
  C1       1.0000 0.05290  0.36450  0.14380  Biso   1.000  C
  C2       1.0000 0.94710  0.86450  0.85620  Biso   1.000  C
  C3       1.0000 0.94710  0.63550  0.85620  Biso   1.000  C
  C4       1.0000 0.05290  0.13550  0.14380  Biso   1.000  C
  C5       1.0000 0.97540  0.35220  0.21490  Biso   1.000  C
  C6       1.0000 0.02460  0.85220  0.78510  Biso   1.000  C
  C7       1.0000 0.02460  0.64780  0.78510  Biso   1.000  C
  C8       1.0000 0.97540  0.14780  0.21490  Biso   1.000  C
  C9       1.0000 0.78610  0.34210  0.21560  Biso   1.000  C
  C10      1.0000 0.21390  0.84210  0.78440  Biso   1.000  C
  C11      1.0000 0.21390  0.65790  0.78440  Biso   1.000  C
  C12      1.0000 0.78610  0.15790  0.21560  Biso   1.000  C
  H1       1.0000 0.69990  0.34170  0.17140  Biso   1.000  H
  H2       1.0000 0.30010  0.84170  0.82860  Biso   1.000  H
  H3       1.0000 0.30010  0.65830  0.82860  Biso   1.000  H
  H4       1.0000 0.69990  0.15830  0.17140  Biso   1.000  H
  C13      1.0000 0.72390  0.33230  0.28340  Biso   1.000  C
  C14      1.0000 0.27610  0.83230  0.71660  Biso   1.000  C
  C15      1.0000 0.27610  0.66770  0.71660  Biso   1.000  C
  C16      1.0000 0.72390  0.16770  0.28340  Biso   1.000  C
  H5       1.0000 0.59470  0.32530  0.28310  Biso   1.000  H
  H6       1.0000 0.40530  0.82530  0.71690  Biso   1.000  H
  H7       1.0000 0.40530  0.67470  0.71690  Biso   1.000  H
  H8       1.0000 0.59470  0.17470  0.28310  Biso   1.000  H
  C17      1.0000 0.02380  0.34320  0.34700  Biso   1.000  C
  C18      1.0000 0.97620  0.84320  0.65300  Biso   1.000  C
  C19      1.0000 0.97620  0.65680  0.65300  Biso   1.000  C
  C20      1.0000 0.02380  0.15680  0.34700  Biso   1.000  C
  H9       1.0000 0.10740  0.34410  0.39180  Biso   1.000  H
  H10      1.0000 0.89260  0.84410  0.60820  Biso   1.000  H
  H11      1.0000 0.89260  0.65590  0.60820  Biso   1.000  H
  H12      1.0000 0.10740  0.15590  0.39180  Biso   1.000  H
  C21      1.0000 0.09610  0.35300  0.28290  Biso   1.000  C
  C22      1.0000 0.90390  0.85300  0.71710  Biso   1.000  C
  C23      1.0000 0.90390  0.64700  0.71710  Biso   1.000  C
  C24      1.0000 0.09610  0.14700  0.28290  Biso   1.000  C
  H13      1.0000 0.22570  0.36010  0.28480  Biso   1.000  H
  H14      1.0000 0.77430  0.86010  0.71520  Biso   1.000  H
  H15      1.0000 0.77430  0.63990  0.71520  Biso   1.000  H
  H16      1.0000 0.22570  0.13990  0.28480  Biso   1.000  H
  C25      1.0000 0.36380  0.25000  0.85680  Biso   1.000  C
  C26      1.0000 0.63620  0.75000  0.14320  Biso   1.000  C
  C27      1.0000 0.46620  0.25000  0.78780  Biso   1.000  C
  C28      1.0000 0.53380  0.75000  0.21220  Biso   1.000  C
  C29      1.0000 0.36260  0.25000  0.71710  Biso   1.000  C
  C30      1.0000 0.63740  0.75000  0.28290  Biso   1.000  C
  H17      1.0000 0.22970  0.25000  0.71060  Biso   1.000  H
  H18      1.0000 0.77030  0.75000  0.28940  Biso   1.000  H
  C31      1.0000 0.45570  0.25000  0.65590  Biso   1.000  C
  C32      1.0000 0.54430  0.75000  0.34410  Biso   1.000  C
  H19      1.0000 0.38270  0.25000  0.60870  Biso   1.000  H
  H20      1.0000 0.61730  0.75000  0.39130  Biso   1.000  H
  C33      1.0000 0.74590  0.25000  0.72950  Biso   1.000  C
  C34      1.0000 0.25410  0.75000  0.27050  Biso   1.000  C
  H21      1.0000 0.87870  0.25000  0.73490  Biso   1.000  H
  H22      1.0000 0.12130  0.75000  0.26510  Biso   1.000  H
  C35      1.0000 0.66270  0.25000  0.79330  Biso   1.000  C
  C36      1.0000 0.33730  0.75000  0.20670  Biso   1.000  C
  H23      1.0000 0.73900  0.25000  0.83990  Biso   1.000  H
  H24      1.0000 0.26100  0.75000  0.16010  Biso   1.000  H
  C37      1.0000 0.85950  0.47250  0.90350  Biso   1.000  C
  C38      1.0000 0.14050  0.97250  0.09650  Biso   1.000  C
  C39      1.0000 0.14050  0.52750  0.09650  Biso   1.000  C
  C40      1.0000 0.85950  0.02750  0.90350  Biso   1.000  C
  C41      1.0000 0.85450  0.45950  0.82220  Biso   1.000  C
  C42      1.0000 0.14550  0.95950  0.17780  Biso   1.000  C
  C43      1.0000 0.14550  0.54050  0.17780  Biso   1.000  C
  C44      1.0000 0.85450  0.04050  0.82220  Biso   1.000  C
  C45      1.0000 0.82300  0.49960  0.76900  Biso   1.000  C
  C46      1.0000 0.17700  0.99960  0.23100  Biso   1.000  C
  C47      1.0000 0.17700  0.50040  0.23100  Biso   1.000  C
  C48      1.0000 0.82300  0.00040  0.76900  Biso   1.000  C
  H25      1.0000 0.80300  0.53490  0.78290  Biso   1.000  H
  H26      1.0000 0.19700  0.03490  0.21710  Biso   1.000  H
  H27      1.0000 0.19700  0.46510  0.21710  Biso   1.000  H
  H28      1.0000 0.80300  0.96510  0.78290  Biso   1.000  H
  C49      1.0000 0.82120  0.48700  0.69530  Biso   1.000  C
  C50      1.0000 0.17880  0.98700  0.30470  Biso   1.000  C
  C51      1.0000 0.17880  0.51300  0.30470  Biso   1.000  C
  C52      1.0000 0.82120  0.01300  0.69530  Biso   1.000  C
  H29      1.0000 0.80320  0.51470  0.66050  Biso   1.000  H
  H30      1.0000 0.19680  0.01470  0.33950  Biso   1.000  H
  H31      1.0000 0.19680  0.48530  0.33950  Biso   1.000  H
  H32      1.0000 0.80320  0.98530  0.66050  Biso   1.000  H
  C53      1.0000 0.87190  0.39880  0.72260  Biso   1.000  C
  C54      1.0000 0.12810  0.89880  0.27740  Biso   1.000  C
  C55      1.0000 0.12810  0.60120  0.27740  Biso   1.000  C
  C56      1.0000 0.87190  0.10120  0.72260  Biso   1.000  C
  H33      1.0000 0.88790  0.36370  0.70700  Biso   1.000  H
  H34      1.0000 0.11210  0.86370  0.29300  Biso   1.000  H
  H35      1.0000 0.11210  0.63630  0.29300  Biso   1.000  H
  H36      1.0000 0.88790  0.13630  0.70700  Biso   1.000  H
  C57      1.0000 0.87890  0.40750  0.79760  Biso   1.000  C
  C58      1.0000 0.12110  0.90750  0.20240  Biso   1.000  C
  C59      1.0000 0.12110  0.59250  0.20240  Biso   1.000  C
  C60      1.0000 0.87890  0.09250  0.79760  Biso   1.000  C
  H37      1.0000 0.89960  0.37900  0.83120  Biso   1.000  H
  H38      1.0000 0.10040  0.87900  0.16880  Biso   1.000  H
  H39      1.0000 0.10040  0.62100  0.16880  Biso   1.000  H
  H40      1.0000 0.89960  0.12100  0.83120  Biso   1.000  H
  C61      1.0000 0.32640  0.43310  0.87750  Biso   1.000  C
  C62      1.0000 0.67360  0.93310  0.12250  Biso   1.000  C
  C63      1.0000 0.67360  0.56690  0.12250  Biso   1.000  C
  C64      1.0000 0.32640  0.06690  0.87750  Biso   1.000  C
  C65      1.0000 0.34540  0.44790  0.79870  Biso   1.000  C
  C66      1.0000 0.65460  0.94790  0.20130  Biso   1.000  C
  C67      1.0000 0.65460  0.55210  0.20130  Biso   1.000  C
  C68      1.0000 0.34540  0.05210  0.79870  Biso   1.000  C
  C69      1.0000 0.32430  0.50000  0.77380  Biso   1.000  C
  C70      1.0000 0.67570  0.00000  0.22620  Biso   1.000  C
  C71      1.0000 0.67570  0.50000  0.22620  Biso   1.000  C
  C72      1.0000 0.32430  0.00000  0.77380  Biso   1.000  C
  H41      1.0000 0.30240  0.52760  0.80600  Biso   1.000  H
  H42      1.0000 0.69760  0.02760  0.19400  Biso   1.000  H
  H43      1.0000 0.69760  0.47240  0.19400  Biso   1.000  H
  H44      1.0000 0.30240  0.97240  0.80600  Biso   1.000  H
  C73      1.0000 0.33600  0.51100  0.70030  Biso   1.000  C
  C74      1.0000 0.66400  0.01100  0.29970  Biso   1.000  C
  C75      1.0000 0.66400  0.48900  0.29970  Biso   1.000  C
  C76      1.0000 0.33600  0.98900  0.70030  Biso   1.000  C
  H45      1.0000 0.31920  0.54630  0.68350  Biso   1.000  H
  H46      1.0000 0.68080  0.04630  0.31650  Biso   1.000  H
  H47      1.0000 0.68080  0.45370  0.31650  Biso   1.000  H
  H48      1.0000 0.31920  0.95370  0.68350  Biso   1.000  H
  C77      1.0000 0.38940  0.42250  0.67630  Biso   1.000  C
  C78      1.0000 0.61060  0.92250  0.32370  Biso   1.000  C
  C79      1.0000 0.61060  0.57750  0.32370  Biso   1.000  C
  C80      1.0000 0.38940  0.07750  0.67630  Biso   1.000  C
  H49      1.0000 0.41260  0.39570  0.64320  Biso   1.000  H
  H50      1.0000 0.58740  0.89570  0.35680  Biso   1.000  H
  H51      1.0000 0.58740  0.60430  0.35680  Biso   1.000  H
  H52      1.0000 0.41260  0.10430  0.64320  Biso   1.000  H
  C81      1.0000 0.37610  0.40820  0.74850  Biso   1.000  C
  C82      1.0000 0.62390  0.90820  0.25150  Biso   1.000  C
  C83      1.0000 0.62390  0.59180  0.25150  Biso   1.000  C
  C84      1.0000 0.37610  0.09180  0.74850  Biso   1.000  C
  H53      1.0000 0.38750  0.37240  0.76320  Biso   1.000  H
  H54      1.0000 0.61250  0.87240  0.23680  Biso   1.000  H
  H55      1.0000 0.61250  0.62760  0.23680  Biso   1.000  H
  H56      1.0000 0.38750  0.12760  0.76320  Biso   1.000  H
  N1       1.0000 0.83950  0.33250  0.34870  Biso   1.000  N
  N2       1.0000 0.16050  0.83250  0.65130  Biso   1.000  N
  N3       1.0000 0.16050  0.66750  0.65130  Biso   1.000  N
  N4       1.0000 0.83950  0.16750  0.34870  Biso   1.000  N
  N5       1.0000 0.64860  0.25000  0.66140  Biso   1.000  N
  N6       1.0000 0.35140  0.75000  0.33860  Biso   1.000  N
  N7       1.0000 0.84410  0.43670  0.67120  Biso   1.000  N
  N8       1.0000 0.15590  0.93670  0.32880  Biso   1.000  N
  N9       1.0000 0.15590  0.56330  0.32880  Biso   1.000  N
  N10      1.0000 0.84410  0.06330  0.67120  Biso   1.000  N
  N11      1.0000 0.37060  0.47280  0.65210  Biso   1.000  N
  N12      1.0000 0.62940  0.97280  0.34790  Biso   1.000  N
  N13      1.0000 0.62940  0.52720  0.34790  Biso   1.000  N
  N14      1.0000 0.37060  0.02720  0.65210  Biso   1.000  N
  O1       1.0000 0.93950  0.37370  0.08590  Biso   1.000  O
  O2       1.0000 0.06050  0.87370  0.91410  Biso   1.000  O
  O3       1.0000 0.06050  0.62630  0.91410  Biso   1.000  O
  O4       1.0000 0.93950  0.12630  0.08590  Biso   1.000  O
  O5       1.0000 0.44040  0.32150  0.03460  Biso   1.000  O
  O6       1.0000 0.55960  0.82150  0.96540  Biso   1.000  O
  O7       1.0000 0.55960  0.67850  0.96540  Biso   1.000  O
  O8       1.0000 0.44040  0.17850  0.03460  Biso   1.000  O
  O9       1.0000 0.23100  0.36640  0.14640  Biso   1.000  O
  O10      1.0000 0.76900  0.86640  0.85360  Biso   1.000  O
  O11      1.0000 0.76900  0.63360  0.85360  Biso   1.000  O
  O12      1.0000 0.23100  0.13360  0.14640  Biso   1.000  O
  O13      1.0000 0.55640  0.42810  0.05720  Biso   1.000  O
  O14      1.0000 0.44360  0.92810  0.94280  Biso   1.000  O
  O15      1.0000 0.44360  0.57190  0.94280  Biso   1.000  O
  O16      1.0000 0.55640  0.07190  0.05720  Biso   1.000  O
  O17      1.0000 0.19010  0.25000  0.84720  Biso   1.000  O
  O18      1.0000 0.80990  0.75000  0.15280  Biso   1.000  O
  O19      1.0000 0.05830  0.32060  0.95460  Biso   1.000  O
  O20      1.0000 0.94170  0.82060  0.04540  Biso   1.000  O
  O21      1.0000 0.94170  0.67940  0.04540  Biso   1.000  O
  O22      1.0000 0.05830  0.17940  0.95460  Biso   1.000  O
  O23      1.0000 0.46860  0.25000  0.91840  Biso   1.000  O
  O24      1.0000 0.53140  0.75000  0.08160  Biso   1.000  O
  O25      1.0000 0.83300  0.25000  0.01750  Biso   1.000  O
  O26      1.0000 0.16700  0.75000  0.98250  Biso   1.000  O
  O27      1.0000 0.79300  0.51732  0.91830  Biso   1.000  O
  O28      1.0000 0.20700  0.01732  0.08170  Biso   1.000  O
  O29      1.0000 0.20700  0.48268  0.08170  Biso   1.000  O
  O30      1.0000 0.79300  0.98268  0.91830  Biso   1.000  O
  O31      1.0000 0.37210  0.25000  0.15830  Biso   1.000  O
  O32      1.0000 0.62790  0.75000  0.84170  Biso   1.000  O
  O33      1.0000 0.92530  0.43776  0.95030  Biso   1.000  O
  O34      1.0000 0.07470  0.93776  0.04970  Biso   1.000  O
  O35      1.0000 0.07470  0.56224  0.04970  Biso   1.000  O
  O36      1.0000 0.92530  0.06224  0.95030  Biso   1.000  O
  O37      1.0000 0.30210  0.47029  0.92260  Biso   1.000  O
  O38      1.0000 0.69790  0.97029  0.07740  Biso   1.000  O
  O39      1.0000 0.69790  0.52971  0.07740  Biso   1.000  O
  O40      1.0000 0.30210  0.02971  0.92260  Biso   1.000  O
  O41      1.0000 0.32670  0.38506  0.89570  Biso   1.000  O
  O42      1.0000 0.67330  0.88506  0.10430  Biso   1.000  O
  O43      1.0000 0.67330  0.61494  0.10430  Biso   1.000  O
  O44      1.0000 0.32670  0.11494  0.89570  Biso   1.000  O
