data_image0
_cell_length_a       13.583
_cell_length_b       14.015
_cell_length_c       19.705
_cell_angle_alpha    102.776
_cell_angle_beta     109.152
_cell_angle_gamma    99.33

_symmetry_space_group_name_H-M    "P 1"
_symmetry_int_tables_number       1

loop_
  _symmetry_equiv_pos_as_xyz
  'x, y, z'

loop_
  _atom_site_label
  _atom_site_occupancy
  _atom_site_fract_x
  _atom_site_fract_y
  _atom_site_fract_z
  _atom_site_thermal_displace_type
  _atom_site_B_iso_or_equiv
  _atom_site_type_symbol
  Er1      1.0000 0.98032  0.72060  0.98949  Biso   1.000  Er
  Er2      1.0000 0.01968  0.27940  0.01051  Biso   1.000  Er
  Er3      1.0000 0.32155  0.38051  0.05695  Biso   1.000  Er
  Er4      1.0000 0.67845  0.61949  0.94305  Biso   1.000  Er
  Er5      1.0000 0.09812  0.49133  0.94885  Biso   1.000  Er
  Er6      1.0000 0.90188  0.50867  0.05115  Biso   1.000  Er
  Er7      1.0000 0.41303  0.59420  0.99056  Biso   1.000  Er
  Er8      1.0000 0.58697  0.40580  0.00944  Biso   1.000  Er
  Cu1      1.0000 0.30950  0.79660  0.49660  Biso   1.000  Cu
  Cu2      1.0000 0.69050  0.20340  0.50340  Biso   1.000  Cu
  Cu3      1.0000 0.30570  0.85460  0.50200  Biso   1.000  Cu
  Cu4      1.0000 0.69430  0.14540  0.49800  Biso   1.000  Cu
  Cu5      1.0000 0.92257  0.71099  0.51812  Biso   1.000  Cu
  Cu6      1.0000 0.07743  0.28901  0.48188  Biso   1.000  Cu
  Cu7      1.0000 0.54201  0.75843  0.54790  Biso   1.000  Cu
  Cu8      1.0000 0.45799  0.24157  0.45210  Biso   1.000  Cu
  Cu9      1.0000 0.35376  0.79137  0.61640  Biso   1.000  Cu
  Cu10     1.0000 0.64624  0.20863  0.38360  Biso   1.000  Cu
  Cu11     1.0000 0.07284  0.99373  0.56054  Biso   1.000  Cu
  Cu12     1.0000 0.92716  0.00627  0.43946  Biso   1.000  Cu
  I1       1.0000 0.49405  0.93321  0.59412  Biso   1.000  I
  I2       1.0000 0.50595  0.06679  0.40588  Biso   1.000  I
  I3       1.0000 0.34046  0.61313  0.53206  Biso   1.000  I
  I4       1.0000 0.65954  0.38687  0.46794  Biso   1.000  I
  I5       1.0000 0.15431  0.82778  0.55418  Biso   1.000  I
  I6       1.0000 0.84569  0.17222  0.44582  Biso   1.000  I
  I7       1.0000 0.87026  0.91135  0.53036  Biso   1.000  I
  I8       1.0000 0.12974  0.08865  0.46964  Biso   1.000  I
  C1       1.0000 0.23480  0.73650  0.01160  Biso   1.000  C
  C2       1.0000 0.76520  0.26350  0.98840  Biso   1.000  C
  C3       1.0000 0.19250  0.13770  0.02140  Biso   1.000  C
  C4       1.0000 0.80750  0.86230  0.97860  Biso   1.000  C
  C5       1.0000 0.23150  0.84460  0.02230  Biso   1.000  C
  C6       1.0000 0.76850  0.15540  0.97770  Biso   1.000  C
  C7       1.0000 0.12840  0.95760  0.01600  Biso   1.000  C
  C8       1.0000 0.87160  0.04240  0.98400  Biso   1.000  C
  H1       1.0000 0.06210  0.97160  0.01070  Biso   1.000  H
  H2       1.0000 0.93790  0.02840  0.98930  Biso   1.000  H
  C9       1.0000 0.21210  0.03500  0.02530  Biso   1.000  C
  C10      1.0000 0.78790  0.96500  0.97470  Biso   1.000  C
  C11      1.0000 0.31180  0.01610  0.03670  Biso   1.000  C
  C12      1.0000 0.68820  0.98390  0.96330  Biso   1.000  C
  H3       1.0000 0.37100  0.06730  0.04470  Biso   1.000  H
  H4       1.0000 0.62900  0.93270  0.95530  Biso   1.000  H
  C13      1.0000 0.32200  0.91910  0.03600  Biso   1.000  C
  C14      1.0000 0.67800  0.08090  0.96400  Biso   1.000  C
  H5       1.0000 0.38850  0.90430  0.04460  Biso   1.000  H
  H6       1.0000 0.61150  0.09570  0.95540  Biso   1.000  H
  C15      1.0000 0.08150  0.73400  0.15350  Biso   1.000  C
  C16      1.0000 0.91850  0.26600  0.84650  Biso   1.000  C
  C17      1.0000 0.14000  0.76080  0.23710  Biso   1.000  C
  C18      1.0000 0.86000  0.23920  0.76290  Biso   1.000  C
  C19      1.0000 0.15670  0.68480  0.26980  Biso   1.000  C
  C20      1.0000 0.84330  0.31520  0.73020  Biso   1.000  C
  H7       1.0000 0.13320  0.61770  0.24020  Biso   1.000  H
  H8       1.0000 0.86680  0.38230  0.75980  Biso   1.000  H
  C21      1.0000 0.20750  0.70820  0.34530  Biso   1.000  C
  C22      1.0000 0.79250  0.29180  0.65470  Biso   1.000  C
  H9       1.0000 0.21690  0.65550  0.36650  Biso   1.000  H
  H10      1.0000 0.78310  0.34450  0.63350  Biso   1.000  H
  C23      1.0000 0.22880  0.87720  0.35920  Biso   1.000  C
  C24      1.0000 0.77120  0.12280  0.64080  Biso   1.000  C
  H11      1.0000 0.25300  0.94360  0.39030  Biso   1.000  H
  H12      1.0000 0.74700  0.05640  0.60970  Biso   1.000  H
  C25      1.0000 0.17720  0.85880  0.28130  Biso   1.000  C
  C26      1.0000 0.82280  0.14120  0.71870  Biso   1.000  C
  H13      1.0000 0.16870  0.91180  0.26050  Biso   1.000  H
  H14      1.0000 0.83130  0.08820  0.73950  Biso   1.000  H
  C27      1.0000 0.02740  0.64360  0.83490  Biso   1.000  C
  C28      1.0000 0.97260  0.35640  0.16510  Biso   1.000  C
  C29      1.0000 0.00630  0.65950  0.75790  Biso   1.000  C
  C30      1.0000 0.99370  0.34050  0.24210  Biso   1.000  C
  C31      1.0000 0.99080  0.74880  0.74620  Biso   1.000  C
  C32      1.0000 0.00920  0.25120  0.25380  Biso   1.000  C
  H15      1.0000 0.99730  0.80230  0.78630  Biso   1.000  H
  H16      1.0000 0.00270  0.19770  0.21370  Biso   1.000  H
  C33      1.0000 0.96530  0.76070  0.67530  Biso   1.000  C
  C34      1.0000 0.03470  0.23930  0.32470  Biso   1.000  C
  H17      1.0000 0.95640  0.82300  0.66910  Biso   1.000  H
  H18      1.0000 0.04360  0.17700  0.33090  Biso   1.000  H
  C35      1.0000 0.96440  0.59780  0.62580  Biso   1.000  C
  C36      1.0000 0.03560  0.40220  0.37420  Biso   1.000  C
  H19      1.0000 0.95190  0.54420  0.58400  Biso   1.000  H
  H20      1.0000 0.04810  0.45580  0.41600  Biso   1.000  H
  C37      1.0000 0.99440  0.58060  0.69650  Biso   1.000  C
  C38      1.0000 0.00560  0.41940  0.30350  Biso   1.000  C
  H21      1.0000 0.00580  0.51860  0.70210  Biso   1.000  H
  H22      1.0000 0.99420  0.48140  0.29790  Biso   1.000  H
  C39      1.0000 0.21610  0.45440  0.82900  Biso   1.000  C
  C40      1.0000 0.78390  0.54560  0.17100  Biso   1.000  C
  C41      1.0000 0.18890  0.41400  0.74570  Biso   1.000  C
  C42      1.0000 0.81110  0.58600  0.25430  Biso   1.000  C
  C43      1.0000 0.24720  0.45580  0.71010  Biso   1.000  C
  C44      1.0000 0.75280  0.54420  0.28990  Biso   1.000  C
  H23      1.0000 0.30940  0.50790  0.73760  Biso   1.000  H
  H24      1.0000 0.69060  0.49210  0.26240  Biso   1.000  H
  C45      1.0000 0.21270  0.41960  0.63220  Biso   1.000  C
  C46      1.0000 0.78730  0.58040  0.36780  Biso   1.000  C
  H25      1.0000 0.25030  0.45150  0.60810  Biso   1.000  H
  H26      1.0000 0.74970  0.54850  0.39190  Biso   1.000  H
  C47      1.0000 0.07410  0.29990  0.62670  Biso   1.000  C
  C48      1.0000 0.92590  0.70010  0.37330  Biso   1.000  C
  H27      1.0000 0.01490  0.24490  0.59880  Biso   1.000  H
  H28      1.0000 0.98510  0.75510  0.40120  Biso   1.000  H
  C49      1.0000 0.10220  0.33500  0.70370  Biso   1.000  C
  C50      1.0000 0.89780  0.66500  0.29630  Biso   1.000  C
  H29      1.0000 0.06150  0.30430  0.72660  Biso   1.000  H
  H30      1.0000 0.93850  0.69570  0.27340  Biso   1.000  H
  C51      1.0000 0.78290  0.60480  0.81490  Biso   1.000  C
  C52      1.0000 0.21710  0.39520  0.18510  Biso   1.000  C
  C53      1.0000 0.73560  0.65010  0.75370  Biso   1.000  C
  C54      1.0000 0.26440  0.34990  0.24630  Biso   1.000  C
  C55      1.0000 0.71730  0.60100  0.67940  Biso   1.000  C
  C56      1.0000 0.28270  0.39900  0.32060  Biso   1.000  C
  H31      1.0000 0.73610  0.54030  0.66780  Biso   1.000  H
  H32      1.0000 0.26390  0.45970  0.33220  Biso   1.000  H
  C57      1.0000 0.67210  0.64160  0.62370  Biso   1.000  C
  C58      1.0000 0.32790  0.35840  0.37630  Biso   1.000  C
  H33      1.0000 0.66190  0.60760  0.57470  Biso   1.000  H
  H34      1.0000 0.33810  0.39240  0.42530  Biso   1.000  H
  C59      1.0000 0.66050  0.77540  0.70680  Biso   1.000  C
  C60      1.0000 0.33950  0.22460  0.29320  Biso   1.000  C
  H35      1.0000 0.64150  0.83630  0.71650  Biso   1.000  H
  H36      1.0000 0.35850  0.16370  0.28350  Biso   1.000  H
  C61      1.0000 0.70630  0.74040  0.76640  Biso   1.000  C
  C62      1.0000 0.29370  0.25960  0.23360  Biso   1.000  C
  H37      1.0000 0.71750  0.77720  0.81500  Biso   1.000  H
  H38      1.0000 0.28250  0.22280  0.18500  Biso   1.000  H
  C63      1.0000 0.39120  0.59940  0.19760  Biso   1.000  C
  C64      1.0000 0.60880  0.40060  0.80240  Biso   1.000  C
  C65      1.0000 0.44360  0.64420  0.28350  Biso   1.000  C
  C66      1.0000 0.55640  0.35580  0.71650  Biso   1.000  C
  C67      1.0000 0.48480  0.58520  0.32830  Biso   1.000  C
  C68      1.0000 0.51520  0.41480  0.67170  Biso   1.000  C
  H39      1.0000 0.48810  0.52030  0.30670  Biso   1.000  H
  H40      1.0000 0.51190  0.47970  0.69330  Biso   1.000  H
  C69      1.0000 0.52100  0.62420  0.40540  Biso   1.000  C
  C70      1.0000 0.47900  0.37580  0.59460  Biso   1.000  C
  H41      1.0000 0.54510  0.58300  0.43490  Biso   1.000  H
  H42      1.0000 0.45490  0.41700  0.56510  Biso   1.000  H
  C71      1.0000 0.48930  0.77700  0.39550  Biso   1.000  C
  C72      1.0000 0.51070  0.22300  0.60450  Biso   1.000  C
  H43      1.0000 0.49290  0.84380  0.41810  Biso   1.000  H
  H44      1.0000 0.50710  0.15620  0.58190  Biso   1.000  H
  C73      1.0000 0.44990  0.74280  0.31880  Biso   1.000  C
  C74      1.0000 0.55010  0.25720  0.68120  Biso   1.000  C
  H45      1.0000 0.42740  0.78590  0.29060  Biso   1.000  H
  H46      1.0000 0.57260  0.21410  0.70940  Biso   1.000  H
  C75      1.0000 0.51370  0.29020  0.12000  Biso   1.000  C
  C76      1.0000 0.48630  0.70980  0.88000  Biso   1.000  C
  C77      1.0000 0.57620  0.23120  0.16380  Biso   1.000  C
  C78      1.0000 0.42380  0.76880  0.83620  Biso   1.000  C
  C79      1.0000 0.63230  0.17250  0.13450  Biso   1.000  C
  C80      1.0000 0.36770  0.82750  0.86550  Biso   1.000  C
  H47      1.0000 0.63480  0.17200  0.08780  Biso   1.000  H
  H48      1.0000 0.36520  0.82800  0.91220  Biso   1.000  H
  C81      1.0000 0.68570  0.11340  0.17430  Biso   1.000  C
  C82      1.0000 0.31430  0.88660  0.82570  Biso   1.000  C
  H49      1.0000 0.71870  0.06820  0.15370  Biso   1.000  H
  H50      1.0000 0.28130  0.93180  0.84630  Biso   1.000  H
  C83      1.0000 0.68700  0.12580  0.24710  Biso   1.000  C
  C84      1.0000 0.31300  0.87420  0.75290  Biso   1.000  C
  H51      1.0000 0.72780  0.09230  0.27680  Biso   1.000  H
  H52      1.0000 0.27220  0.90770  0.72320  Biso   1.000  H
  C85      1.0000 0.57900  0.23610  0.23520  Biso   1.000  C
  C86      1.0000 0.42100  0.76390  0.76480  Biso   1.000  C
  H53      1.0000 0.54230  0.27770  0.25510  Biso   1.000  H
  H54      1.0000 0.45770  0.72230  0.74490  Biso   1.000  H
  C87      1.0000 0.36280  0.27600  0.88990  Biso   1.000  C
  C88      1.0000 0.63720  0.72400  0.11010  Biso   1.000  C
  C89      1.0000 0.28950  0.20500  0.81350  Biso   1.000  C
  C90      1.0000 0.71050  0.79500  0.18650  Biso   1.000  C
  C91      1.0000 0.18530  0.15470  0.79650  Biso   1.000  C
  C92      1.0000 0.81470  0.84530  0.20350  Biso   1.000  C
  H55      1.0000 0.15620  0.16190  0.83340  Biso   1.000  H
  H56      1.0000 0.84380  0.83810  0.16660  Biso   1.000  H
  C93      1.0000 0.12400  0.09360  0.72480  Biso   1.000  C
  C94      1.0000 0.87600  0.90640  0.27520  Biso   1.000  C
  H57      1.0000 0.05400  0.05860  0.71480  Biso   1.000  H
  H58      1.0000 0.94600  0.94140  0.28520  Biso   1.000  H
  C95      1.0000 0.26190  0.13080  0.68620  Biso   1.000  C
  C96      1.0000 0.73810  0.86920  0.31380  Biso   1.000  C
  H59      1.0000 0.28880  0.12370  0.64810  Biso   1.000  H
  H60      1.0000 0.71120  0.87630  0.35190  Biso   1.000  H
  C97      1.0000 0.33010  0.19110  0.75720  Biso   1.000  C
  C98      1.0000 0.66990  0.80890  0.24280  Biso   1.000  C
  H61      1.0000 0.40140  0.22160  0.76690  Biso   1.000  H
  H62      1.0000 0.59860  0.77840  0.23310  Biso   1.000  H
  O1       1.0000 0.15180  0.67460  0.00830  Biso   1.000  O
  O2       1.0000 0.84820  0.32540  0.99170  Biso   1.000  O
  O3       1.0000 0.31540  0.71360  0.00230  Biso   1.000  O
  O4       1.0000 0.68460  0.28640  0.99770  Biso   1.000  O
  O5       1.0000 0.27330  0.20330  0.02870  Biso   1.000  O
  O6       1.0000 0.72670  0.79670  0.97130  Biso   1.000  O
  O7       1.0000 0.10020  0.14780  0.01250  Biso   1.000  O
  O8       1.0000 0.89980  0.85220  0.98750  Biso   1.000  O
  O9       1.0000 0.06590  0.80320  0.12310  Biso   1.000  O
  O10      1.0000 0.93410  0.19680  0.87690  Biso   1.000  O
  O11      1.0000 0.05120  0.64260  0.11630  Biso   1.000  O
  O12      1.0000 0.94880  0.35740  0.88370  Biso   1.000  O
  O13      1.0000 0.00580  0.70960  0.87880  Biso   1.000  O
  O14      1.0000 0.99420  0.29040  0.12120  Biso   1.000  O
  O15      1.0000 0.06150  0.57110  0.84850  Biso   1.000  O
  O16      1.0000 0.93850  0.42890  0.15150  Biso   1.000  O
  O17      1.0000 0.15200  0.41640  0.85400  Biso   1.000  O
  O18      1.0000 0.84800  0.58360  0.14600  Biso   1.000  O
  O19      1.0000 0.30250  0.52210  0.86720  Biso   1.000  O
  O20      1.0000 0.69750  0.47790  0.13280  Biso   1.000  O
  O21      1.0000 0.81200  0.52710  0.79950  Biso   1.000  O
  O22      1.0000 0.18800  0.47290  0.20050  Biso   1.000  O
  O23      1.0000 0.79420  0.65420  0.88210  Biso   1.000  O
  O24      1.0000 0.20580  0.34580  0.11790  Biso   1.000  O
  O25      1.0000 0.34910  0.65370  0.16190  Biso   1.000  O
  O26      1.0000 0.65090  0.34630  0.83810  Biso   1.000  O
  O27      1.0000 0.39660  0.51130  0.17250  Biso   1.000  O
  O28      1.0000 0.60340  0.48870  0.82750  Biso   1.000  O
  O29      1.0000 0.45490  0.33320  0.14460  Biso   1.000  O
  O30      1.0000 0.54510  0.66680  0.85540  Biso   1.000  O
  O31      1.0000 0.52020  0.28780  0.05750  Biso   1.000  O
  O32      1.0000 0.47980  0.71220  0.94250  Biso   1.000  O
  O33      1.0000 0.46130  0.29480  0.90340  Biso   1.000  O
  O34      1.0000 0.53870  0.70520  0.09660  Biso   1.000  O
  O35      1.0000 0.32110  0.31390  0.93360  Biso   1.000  O
  O36      1.0000 0.67890  0.68610  0.06640  Biso   1.000  O
  O37      1.0000 0.85380  0.66160  0.03130  Biso   1.000  O
  O38      1.0000 0.14620  0.33840  0.96870  Biso   1.000  O
  O39      1.0000 0.27680  0.52370  0.02390  Biso   1.000  O
  O40      1.0000 0.72320  0.47630  0.97610  Biso   1.000  O
  O41      1.0000 0.94680  0.54730  0.95290  Biso   1.000  O
  O42      1.0000 0.05320  0.45270  0.04710  Biso   1.000  O
  O43      1.0000 0.47920  0.48540  0.05850  Biso   1.000  O
  O44      1.0000 0.52080  0.51460  0.94150  Biso   1.000  O
  N1       1.0000 0.13580  0.86440  0.01410  Biso   1.000  N
  N2       1.0000 0.86420  0.13560  0.98590  Biso   1.000  N
  N3       1.0000 0.24420  0.80120  0.39020  Biso   1.000  N
  N4       1.0000 0.75580  0.19880  0.60980  Biso   1.000  N
  N5       1.0000 0.95300  0.68640  0.61540  Biso   1.000  N
  N6       1.0000 0.04700  0.31360  0.38460  Biso   1.000  N
  N7       1.0000 0.12870  0.34190  0.59130  Biso   1.000  N
  N8       1.0000 0.87130  0.65810  0.40870  Biso   1.000  N
  N9       1.0000 0.64170  0.72690  0.63540  Biso   1.000  N
  N10      1.0000 0.35830  0.27310  0.36460  Biso   1.000  N
  N11      1.0000 0.52300  0.71930  0.43980  Biso   1.000  N
  N12      1.0000 0.47700  0.28070  0.56020  Biso   1.000  N
  N13      1.0000 0.63160  0.18410  0.27650  Biso   1.000  N
  N14      1.0000 0.36840  0.81590  0.72350  Biso   1.000  N
  N15      1.0000 0.15970  0.08180  0.66850  Biso   1.000  N
  N16      1.0000 0.84030  0.91820  0.33150  Biso   1.000  N
  O45      1.0000 0.03500  0.01340  0.17380  Biso   1.000  O
  O46      1.0000 0.96500  0.98660  0.82620  Biso   1.000  O
