data_image0
_cell_length_a       7.1054
_cell_length_b       24.9477
_cell_length_c       18.2419
_cell_angle_alpha    90
_cell_angle_beta     99.522
_cell_angle_gamma    90

_symmetry_space_group_name_H-M    "P 1"
_symmetry_int_tables_number       1

loop_
  _symmetry_equiv_pos_as_xyz
  'x, y, z'

loop_
  _atom_site_label
  _atom_site_occupancy
  _atom_site_fract_x
  _atom_site_fract_y
  _atom_site_fract_z
  _atom_site_thermal_displace_type
  _atom_site_B_iso_or_equiv
  _atom_site_type_symbol
  Ce1      1.0000 0.22118  0.40141  0.01620  Biso   1.000  Ce
  Ce2      1.0000 0.77882  0.90141  0.98380  Biso   1.000  Ce
  Ce3      1.0000 0.77882  0.59859  0.98380  Biso   1.000  Ce
  Ce4      1.0000 0.22118  0.09859  0.01620  Biso   1.000  Ce
  Cu1      1.0000 0.74898  0.31684  0.44639  Biso   1.000  Cu
  Cu2      1.0000 0.25102  0.81684  0.55361  Biso   1.000  Cu
  Cu3      1.0000 0.25102  0.68316  0.55361  Biso   1.000  Cu
  Cu4      1.0000 0.74898  0.18316  0.44639  Biso   1.000  Cu
  Cu5      1.0000 0.76983  0.25000  0.56614  Biso   1.000  Cu
  Cu6      1.0000 0.23017  0.75000  0.43386  Biso   1.000  Cu
  Cu7      1.0000 0.82629  0.41986  0.56104  Biso   1.000  Cu
  Cu8      1.0000 0.17371  0.91986  0.43896  Biso   1.000  Cu
  Cu9      1.0000 0.17371  0.58014  0.43896  Biso   1.000  Cu
  Cu10     1.0000 0.82629  0.08014  0.56104  Biso   1.000  Cu
  Cu11     1.0000 0.62184  0.50769  0.45578  Biso   1.000  Cu
  Cu12     1.0000 0.37816  0.00769  0.54422  Biso   1.000  Cu
  Cu13     1.0000 0.37816  0.49231  0.54422  Biso   1.000  Cu
  Cu14     1.0000 0.62184  0.99231  0.45578  Biso   1.000  Cu
  I1       1.0000 0.47477  0.25000  0.44189  Biso   1.000  I
  I2       1.0000 0.52523  0.75000  0.55811  Biso   1.000  I
  I3       1.0000 0.01830  0.32985  0.55713  Biso   1.000  I
  I4       1.0000 0.98170  0.82985  0.44287  Biso   1.000  I
  I5       1.0000 0.98170  0.67015  0.44287  Biso   1.000  I
  I6       1.0000 0.01830  0.17015  0.55713  Biso   1.000  I
  I7       1.0000 0.49078  0.41076  0.47042  Biso   1.000  I
  I8       1.0000 0.50922  0.91076  0.52958  Biso   1.000  I
  I9       1.0000 0.50922  0.58924  0.52958  Biso   1.000  I
  I10      1.0000 0.49078  0.08924  0.47042  Biso   1.000  I
  I11      1.0000 0.00000  0.50000  0.50000  Biso   1.000  I
  I12      1.0000 0.00000  0.00000  0.50000  Biso   1.000  I
  C1       1.0000 0.05350  0.36240  0.14580  Biso   1.000  C
  C2       1.0000 0.94650  0.86240  0.85420  Biso   1.000  C
  C3       1.0000 0.94650  0.63760  0.85420  Biso   1.000  C
  C4       1.0000 0.05350  0.13760  0.14580  Biso   1.000  C
  C5       1.0000 0.97580  0.35140  0.21700  Biso   1.000  C
  C6       1.0000 0.02420  0.85140  0.78300  Biso   1.000  C
  C7       1.0000 0.02420  0.64860  0.78300  Biso   1.000  C
  C8       1.0000 0.97580  0.14860  0.21700  Biso   1.000  C
  C9       1.0000 0.78690  0.34150  0.21710  Biso   1.000  C
  C10      1.0000 0.21310  0.84150  0.78290  Biso   1.000  C
  C11      1.0000 0.21310  0.65850  0.78290  Biso   1.000  C
  C12      1.0000 0.78690  0.15850  0.21710  Biso   1.000  C
  H1       1.0000 0.70110  0.34100  0.17270  Biso   1.000  H
  H2       1.0000 0.29890  0.84100  0.82730  Biso   1.000  H
  H3       1.0000 0.29890  0.65900  0.82730  Biso   1.000  H
  H4       1.0000 0.70110  0.15900  0.17270  Biso   1.000  H
  C13      1.0000 0.72410  0.33220  0.28380  Biso   1.000  C
  C14      1.0000 0.27590  0.83220  0.71620  Biso   1.000  C
  C15      1.0000 0.27590  0.66780  0.71620  Biso   1.000  C
  C16      1.0000 0.72410  0.16780  0.28380  Biso   1.000  C
  H5       1.0000 0.59510  0.32530  0.28280  Biso   1.000  H
  H6       1.0000 0.40490  0.82530  0.71720  Biso   1.000  H
  H7       1.0000 0.40490  0.67470  0.71720  Biso   1.000  H
  H8       1.0000 0.59510  0.17470  0.28280  Biso   1.000  H
  C17      1.0000 0.02310  0.34330  0.34870  Biso   1.000  C
  C18      1.0000 0.97690  0.84330  0.65130  Biso   1.000  C
  C19      1.0000 0.97690  0.65670  0.65130  Biso   1.000  C
  C20      1.0000 0.02310  0.15670  0.34870  Biso   1.000  C
  H9       1.0000 0.10590  0.34430  0.39390  Biso   1.000  H
  H10      1.0000 0.89410  0.84430  0.60610  Biso   1.000  H
  H11      1.0000 0.89410  0.65570  0.60610  Biso   1.000  H
  H12      1.0000 0.10590  0.15570  0.39390  Biso   1.000  H
  C21      1.0000 0.09610  0.35280  0.28480  Biso   1.000  C
  C22      1.0000 0.90390  0.85280  0.71520  Biso   1.000  C
  C23      1.0000 0.90390  0.64720  0.71520  Biso   1.000  C
  C24      1.0000 0.09610  0.14720  0.28480  Biso   1.000  C
  H13      1.0000 0.22520  0.36020  0.28700  Biso   1.000  H
  H14      1.0000 0.77480  0.86020  0.71300  Biso   1.000  H
  H15      1.0000 0.77480  0.63980  0.71300  Biso   1.000  H
  H16      1.0000 0.22520  0.13980  0.28700  Biso   1.000  H
  C25      1.0000 0.36990  0.25000  0.85450  Biso   1.000  C
  C26      1.0000 0.63010  0.75000  0.14550  Biso   1.000  C
  C27      1.0000 0.47090  0.25000  0.78660  Biso   1.000  C
  C28      1.0000 0.52910  0.75000  0.21340  Biso   1.000  C
  C29      1.0000 0.36720  0.25000  0.71540  Biso   1.000  C
  C30      1.0000 0.63280  0.75000  0.28460  Biso   1.000  C
  H17      1.0000 0.23460  0.25000  0.70880  Biso   1.000  H
  H18      1.0000 0.76540  0.75000  0.29120  Biso   1.000  H
  C31      1.0000 0.45710  0.25000  0.65430  Biso   1.000  C
  C32      1.0000 0.54290  0.75000  0.34570  Biso   1.000  C
  H19      1.0000 0.38270  0.25000  0.60730  Biso   1.000  H
  H20      1.0000 0.61730  0.75000  0.39270  Biso   1.000  H
  C33      1.0000 0.74790  0.25000  0.72790  Biso   1.000  C
  C34      1.0000 0.25210  0.75000  0.27210  Biso   1.000  C
  H21      1.0000 0.88040  0.25000  0.73330  Biso   1.000  H
  H22      1.0000 0.11960  0.75000  0.26670  Biso   1.000  H
  C35      1.0000 0.66580  0.25000  0.79160  Biso   1.000  C
  C36      1.0000 0.33420  0.75000  0.20840  Biso   1.000  C
  H23      1.0000 0.74300  0.25000  0.83800  Biso   1.000  H
  H24      1.0000 0.25700  0.75000  0.16200  Biso   1.000  H
  C37      1.0000 0.85590  0.47160  0.90240  Biso   1.000  C
  C38      1.0000 0.14410  0.97160  0.09760  Biso   1.000  C
  C39      1.0000 0.14410  0.52840  0.09760  Biso   1.000  C
  C40      1.0000 0.85590  0.02840  0.90240  Biso   1.000  C
  C41      1.0000 0.85310  0.45943  0.82110  Biso   1.000  C
  C42      1.0000 0.14690  0.95943  0.17890  Biso   1.000  C
  C43      1.0000 0.14690  0.54057  0.17890  Biso   1.000  C
  C44      1.0000 0.85310  0.04057  0.82110  Biso   1.000  C
  C45      1.0000 0.82440  0.49950  0.76870  Biso   1.000  C
  C46      1.0000 0.17560  0.99950  0.23130  Biso   1.000  C
  C47      1.0000 0.17560  0.50050  0.23130  Biso   1.000  C
  C48      1.0000 0.82440  0.00050  0.76870  Biso   1.000  C
  H25      1.0000 0.80580  0.53460  0.78280  Biso   1.000  H
  H26      1.0000 0.19420  0.03460  0.21720  Biso   1.000  H
  H27      1.0000 0.19420  0.46540  0.21720  Biso   1.000  H
  H28      1.0000 0.80580  0.96540  0.78280  Biso   1.000  H
  C49      1.0000 0.82350  0.48710  0.69490  Biso   1.000  C
  C50      1.0000 0.17650  0.98710  0.30510  Biso   1.000  C
  C51      1.0000 0.17650  0.51290  0.30510  Biso   1.000  C
  C52      1.0000 0.82350  0.01290  0.69490  Biso   1.000  C
  H29      1.0000 0.80630  0.51470  0.66010  Biso   1.000  H
  H30      1.0000 0.19370  0.01470  0.33990  Biso   1.000  H
  H31      1.0000 0.19370  0.48530  0.33990  Biso   1.000  H
  H32      1.0000 0.80630  0.98530  0.66010  Biso   1.000  H
  C53      1.0000 0.87260  0.39840  0.72220  Biso   1.000  C
  C54      1.0000 0.12740  0.89840  0.27780  Biso   1.000  C
  C55      1.0000 0.12740  0.60160  0.27780  Biso   1.000  C
  C56      1.0000 0.87260  0.10160  0.72220  Biso   1.000  C
  H33      1.0000 0.88740  0.36340  0.70660  Biso   1.000  H
  H34      1.0000 0.11260  0.86340  0.29340  Biso   1.000  H
  H35      1.0000 0.11260  0.63660  0.29340  Biso   1.000  H
  H36      1.0000 0.88740  0.13660  0.70660  Biso   1.000  H
  C57      1.0000 0.87880  0.40780  0.79690  Biso   1.000  C
  C58      1.0000 0.12120  0.90780  0.20310  Biso   1.000  C
  C59      1.0000 0.12120  0.59220  0.20310  Biso   1.000  C
  C60      1.0000 0.87880  0.09220  0.79690  Biso   1.000  C
  H37      1.0000 0.90010  0.37970  0.83080  Biso   1.000  H
  H38      1.0000 0.09990  0.87970  0.16920  Biso   1.000  H
  H39      1.0000 0.09990  0.62030  0.16920  Biso   1.000  H
  H40      1.0000 0.90010  0.12030  0.83080  Biso   1.000  H
  C61      1.0000 0.32750  0.43290  0.87540  Biso   1.000  C
  C62      1.0000 0.67250  0.93290  0.12460  Biso   1.000  C
  C63      1.0000 0.67250  0.56710  0.12460  Biso   1.000  C
  C64      1.0000 0.32750  0.06710  0.87540  Biso   1.000  C
  C65      1.0000 0.34610  0.44760  0.79690  Biso   1.000  C
  C66      1.0000 0.65390  0.94760  0.20310  Biso   1.000  C
  C67      1.0000 0.65390  0.55240  0.20310  Biso   1.000  C
  C68      1.0000 0.34610  0.05240  0.79690  Biso   1.000  C
  C69      1.0000 0.32620  0.49960  0.77220  Biso   1.000  C
  C70      1.0000 0.67380  0.99960  0.22780  Biso   1.000  C
  C71      1.0000 0.67380  0.50040  0.22780  Biso   1.000  C
  C72      1.0000 0.32620  0.00040  0.77220  Biso   1.000  C
  H41      1.0000 0.30520  0.52700  0.80450  Biso   1.000  H
  H42      1.0000 0.69480  0.02700  0.19550  Biso   1.000  H
  H43      1.0000 0.69480  0.47300  0.19550  Biso   1.000  H
  H44      1.0000 0.30520  0.97300  0.80450  Biso   1.000  H
  C73      1.0000 0.33770  0.51060  0.69900  Biso   1.000  C
  C74      1.0000 0.66230  0.01060  0.30100  Biso   1.000  C
  C75      1.0000 0.66230  0.48940  0.30100  Biso   1.000  C
  C76      1.0000 0.33770  0.98940  0.69900  Biso   1.000  C
  H45      1.0000 0.32050  0.54570  0.68230  Biso   1.000  H
  H46      1.0000 0.67950  0.04570  0.31770  Biso   1.000  H
  H47      1.0000 0.67950  0.45430  0.31770  Biso   1.000  H
  H48      1.0000 0.32050  0.95430  0.68230  Biso   1.000  H
  C77      1.0000 0.39020  0.42230  0.67500  Biso   1.000  C
  C78      1.0000 0.60980  0.92230  0.32500  Biso   1.000  C
  C79      1.0000 0.60980  0.57770  0.32500  Biso   1.000  C
  C80      1.0000 0.39020  0.07770  0.67500  Biso   1.000  C
  H49      1.0000 0.41200  0.39570  0.64180  Biso   1.000  H
  H50      1.0000 0.58800  0.89570  0.35820  Biso   1.000  H
  H51      1.0000 0.58800  0.60430  0.35820  Biso   1.000  H
  H52      1.0000 0.41200  0.10430  0.64180  Biso   1.000  H
  C81      1.0000 0.37760  0.40800  0.74680  Biso   1.000  C
  C82      1.0000 0.62240  0.90800  0.25320  Biso   1.000  C
  C83      1.0000 0.62240  0.59200  0.25320  Biso   1.000  C
  C84      1.0000 0.37760  0.09200  0.74680  Biso   1.000  C
  H53      1.0000 0.39000  0.37230  0.76160  Biso   1.000  H
  H54      1.0000 0.61000  0.87230  0.23840  Biso   1.000  H
  H55      1.0000 0.61000  0.62770  0.23840  Biso   1.000  H
  H56      1.0000 0.39000  0.12770  0.76160  Biso   1.000  H
  N1       1.0000 0.83840  0.33260  0.34930  Biso   1.000  N
  N2       1.0000 0.16160  0.83260  0.65070  Biso   1.000  N
  N3       1.0000 0.16160  0.66740  0.65070  Biso   1.000  N
  N4       1.0000 0.83840  0.16740  0.34930  Biso   1.000  N
  N5       1.0000 0.64800  0.25000  0.65950  Biso   1.000  N
  N6       1.0000 0.35200  0.75000  0.34050  Biso   1.000  N
  N7       1.0000 0.84640  0.43710  0.67120  Biso   1.000  N
  N8       1.0000 0.15360  0.93710  0.32880  Biso   1.000  N
  N9       1.0000 0.15360  0.56290  0.32880  Biso   1.000  N
  N10      1.0000 0.84640  0.06290  0.67120  Biso   1.000  N
  N11      1.0000 0.37250  0.47272  0.65100  Biso   1.000  N
  N12      1.0000 0.62750  0.97272  0.34900  Biso   1.000  N
  N13      1.0000 0.62750  0.52728  0.34900  Biso   1.000  N
  N14      1.0000 0.37250  0.02728  0.65100  Biso   1.000  N
  O1       1.0000 0.94030  0.37030  0.08720  Biso   1.000  O
  O2       1.0000 0.05970  0.87030  0.91280  Biso   1.000  O
  O3       1.0000 0.05970  0.62970  0.91280  Biso   1.000  O
  O4       1.0000 0.94030  0.12970  0.08720  Biso   1.000  O
  O5       1.0000 0.45440  0.32020  0.03440  Biso   1.000  O
  O6       1.0000 0.54560  0.82020  0.96560  Biso   1.000  O
  O7       1.0000 0.54560  0.67980  0.96560  Biso   1.000  O
  O8       1.0000 0.45440  0.17980  0.03440  Biso   1.000  O
  O9       1.0000 0.23070  0.36410  0.14920  Biso   1.000  O
  O10      1.0000 0.76930  0.86410  0.85080  Biso   1.000  O
  O11      1.0000 0.76930  0.63590  0.85080  Biso   1.000  O
  O12      1.0000 0.23070  0.13590  0.14920  Biso   1.000  O
  O13      1.0000 0.56780  0.42887  0.05840  Biso   1.000  O
  O14      1.0000 0.43220  0.92887  0.94160  Biso   1.000  O
  O15      1.0000 0.43220  0.57113  0.94160  Biso   1.000  O
  O16      1.0000 0.56780  0.07113  0.05840  Biso   1.000  O
  O17      1.0000 0.19500  0.25000  0.84470  Biso   1.000  O
  O18      1.0000 0.80500  0.75000  0.15530  Biso   1.000  O
  O19      1.0000 0.06390  0.31801  0.95140  Biso   1.000  O
  O20      1.0000 0.93610  0.81801  0.04860  Biso   1.000  O
  O21      1.0000 0.93610  0.68199  0.04860  Biso   1.000  O
  O22      1.0000 0.06390  0.18199  0.95140  Biso   1.000  O
  O23      1.0000 0.47460  0.25000  0.91640  Biso   1.000  O
  O24      1.0000 0.52540  0.75000  0.08360  Biso   1.000  O
  O25      1.0000 0.82980  0.25000  0.00960  Biso   1.000  O
  O26      1.0000 0.17020  0.75000  0.99040  Biso   1.000  O
  O27      1.0000 0.79080  0.51652  0.91690  Biso   1.000  O
  O28      1.0000 0.20920  0.01652  0.08310  Biso   1.000  O
  O29      1.0000 0.20920  0.48348  0.08310  Biso   1.000  O
  O30      1.0000 0.79080  0.98348  0.91690  Biso   1.000  O
  O31      1.0000 0.38280  0.25000  0.16170  Biso   1.000  O
  O32      1.0000 0.61720  0.75000  0.83830  Biso   1.000  O
  O33      1.0000 0.92070  0.43698  0.94942  Biso   1.000  O
  O34      1.0000 0.07930  0.93698  0.05058  Biso   1.000  O
  O35      1.0000 0.07930  0.56302  0.05058  Biso   1.000  O
  O36      1.0000 0.92070  0.06302  0.94942  Biso   1.000  O
  O37      1.0000 0.30120  0.46955  0.91989  Biso   1.000  O
  O38      1.0000 0.69880  0.96955  0.08011  Biso   1.000  O
  O39      1.0000 0.69880  0.53045  0.08011  Biso   1.000  O
  O40      1.0000 0.30120  0.03045  0.91989  Biso   1.000  O
  O41      1.0000 0.33350  0.38448  0.89320  Biso   1.000  O
  O42      1.0000 0.66650  0.88448  0.10680  Biso   1.000  O
  O43      1.0000 0.66650  0.61552  0.10680  Biso   1.000  O
  O44      1.0000 0.33350  0.11552  0.89320  Biso   1.000  O
