data_image0
_cell_length_a       9.5454
_cell_length_b       21.5679
_cell_length_c       9.155
_cell_angle_alpha    90
_cell_angle_beta     116.278
_cell_angle_gamma    90

_symmetry_space_group_name_H-M    "P 1"
_symmetry_int_tables_number       1

loop_
  _symmetry_equiv_pos_as_xyz
  'x, y, z'

loop_
  _atom_site_label
  _atom_site_occupancy
  _atom_site_fract_x
  _atom_site_fract_y
  _atom_site_fract_z
  _atom_site_thermal_displace_type
  _atom_site_B_iso_or_equiv
  _atom_site_type_symbol
  Cu1      1.0000 0.69081  0.85425  0.54875  Biso   1.000  Cu
  Cu2      1.0000 0.30919  0.35425  0.95125  Biso   1.000  Cu
  Cu3      1.0000 0.30919  0.14575  0.45125  Biso   1.000  Cu
  Cu4      1.0000 0.69081  0.64575  0.04875  Biso   1.000  Cu
  La1      1.0000 0.64235  0.99062  0.87878  Biso   1.000  La
  La2      1.0000 0.35765  0.49062  0.62122  Biso   1.000  La
  La3      1.0000 0.35765  0.00938  0.12122  Biso   1.000  La
  La4      1.0000 0.64235  0.50938  0.37878  Biso   1.000  La
  C1       1.0000 0.23990  0.96960  0.72360  Biso   1.000  C
  C2       1.0000 0.76010  0.46960  0.77640  Biso   1.000  C
  C3       1.0000 0.76010  0.03040  0.27640  Biso   1.000  C
  C4       1.0000 0.23990  0.53040  0.22360  Biso   1.000  C
  C5       1.0000 0.10940  0.93300  0.59340  Biso   1.000  C
  C6       1.0000 0.89060  0.43300  0.90660  Biso   1.000  C
  C7       1.0000 0.89060  0.06700  0.40660  Biso   1.000  C
  C8       1.0000 0.10940  0.56700  0.09340  Biso   1.000  C
  C9       1.0000 0.98310  0.91540  0.61740  Biso   1.000  C
  C10      1.0000 0.01690  0.41540  0.88260  Biso   1.000  C
  C11      1.0000 0.01690  0.08460  0.38260  Biso   1.000  C
  C12      1.0000 0.98310  0.58460  0.11740  Biso   1.000  C
  H1       1.0000 0.97860  0.92820  0.71220  Biso   1.000  H
  H2       1.0000 0.02140  0.42820  0.78780  Biso   1.000  H
  H3       1.0000 0.02140  0.07180  0.28780  Biso   1.000  H
  H4       1.0000 0.97860  0.57180  0.21220  Biso   1.000  H
  C13      1.0000 0.87710  0.86230  0.37600  Biso   1.000  C
  C14      1.0000 0.12290  0.36230  0.12400  Biso   1.000  C
  C15      1.0000 0.12290  0.13770  0.62400  Biso   1.000  C
  C16      1.0000 0.87710  0.63770  0.87600  Biso   1.000  C
  H5       1.0000 0.80010  0.83640  0.30250  Biso   1.000  H
  H6       1.0000 0.19990  0.33640  0.19750  Biso   1.000  H
  H7       1.0000 0.19990  0.16360  0.69750  Biso   1.000  H
  H8       1.0000 0.80010  0.66360  0.80250  Biso   1.000  H
  C17      1.0000 0.99670  0.87970  0.34040  Biso   1.000  C
  C18      1.0000 0.00330  0.37970  0.15960  Biso   1.000  C
  C19      1.0000 0.00330  0.12030  0.65960  Biso   1.000  C
  C20      1.0000 0.99670  0.62030  0.84040  Biso   1.000  C
  H9       1.0000 0.99750  0.86750  0.24330  Biso   1.000  H
  H10      1.0000 0.00250  0.36750  0.25670  Biso   1.000  H
  H11      1.0000 0.00250  0.13250  0.75670  Biso   1.000  H
  H12      1.0000 0.99750  0.63250  0.74330  Biso   1.000  H
  C21      1.0000 0.11460  0.91510  0.45010  Biso   1.000  C
  C22      1.0000 0.88540  0.41510  0.04990  Biso   1.000  C
  C23      1.0000 0.88540  0.08490  0.54990  Biso   1.000  C
  C24      1.0000 0.11460  0.58490  0.95010  Biso   1.000  C
  H13      1.0000 0.19750  0.92710  0.42930  Biso   1.000  H
  H14      1.0000 0.80250  0.42710  0.07070  Biso   1.000  H
  H15      1.0000 0.80250  0.07290  0.57070  Biso   1.000  H
  H16      1.0000 0.19750  0.57290  0.92930  Biso   1.000  H
  C25      1.0000 0.00710  0.96580  0.01090  Biso   1.000  C
  C26      1.0000 0.99290  0.46580  0.48910  Biso   1.000  C
  C27      1.0000 0.99290  0.03420  0.98910  Biso   1.000  C
  C28      1.0000 0.00710  0.53420  0.51090  Biso   1.000  C
  C29      1.0000 0.52280  0.96610  0.49660  Biso   1.000  C
  C30      1.0000 0.47720  0.46610  0.00340  Biso   1.000  C
  C31      1.0000 0.47720  0.03390  0.50340  Biso   1.000  C
  C32      1.0000 0.52280  0.53390  0.99660  Biso   1.000  C
  C33      1.0000 0.43280  0.80350  0.59900  Biso   1.000  C
  C34      1.0000 0.56720  0.30350  0.90100  Biso   1.000  C
  C35      1.0000 0.56720  0.19650  0.40100  Biso   1.000  C
  C36      1.0000 0.43280  0.69650  0.09900  Biso   1.000  C
  H17      1.0000 0.41210  0.84430  0.61590  Biso   1.000  H
  H18      1.0000 0.58790  0.34430  0.88410  Biso   1.000  H
  H19      1.0000 0.58790  0.15570  0.38410  Biso   1.000  H
  H20      1.0000 0.41210  0.65570  0.11590  Biso   1.000  H
  C37      1.0000 0.33930  0.75740  0.61310  Biso   1.000  C
  C38      1.0000 0.66070  0.25740  0.88690  Biso   1.000  C
  C39      1.0000 0.66070  0.24260  0.38690  Biso   1.000  C
  C40      1.0000 0.33930  0.74260  0.11310  Biso   1.000  C
  H21      1.0000 0.25810  0.76710  0.63920  Biso   1.000  H
  H22      1.0000 0.74190  0.26710  0.86080  Biso   1.000  H
  H23      1.0000 0.74190  0.23290  0.36080  Biso   1.000  H
  H24      1.0000 0.25810  0.73290  0.13920  Biso   1.000  H
  C41      1.0000 0.36850  0.69680  0.58800  Biso   1.000  C
  C42      1.0000 0.63150  0.19680  0.91200  Biso   1.000  C
  C43      1.0000 0.63150  0.30320  0.41200  Biso   1.000  C
  C44      1.0000 0.36850  0.80320  0.08800  Biso   1.000  C
  H25      1.0000 0.30900  0.66470  0.59950  Biso   1.000  H
  H26      1.0000 0.69100  0.16470  0.90050  Biso   1.000  H
  H27      1.0000 0.69100  0.33530  0.40050  Biso   1.000  H
  H28      1.0000 0.30900  0.83530  0.09950  Biso   1.000  H
  C45      1.0000 0.48760  0.68440  0.54560  Biso   1.000  C
  C46      1.0000 0.51240  0.18440  0.95440  Biso   1.000  C
  C47      1.0000 0.51240  0.31560  0.45440  Biso   1.000  C
  C48      1.0000 0.48760  0.81560  0.04560  Biso   1.000  C
  C49      1.0000 0.52490  0.61990  0.50980  Biso   1.000  C
  C50      1.0000 0.47510  0.11990  0.99020  Biso   1.000  C
  C51      1.0000 0.47510  0.38010  0.49020  Biso   1.000  C
  C52      1.0000 0.52490  0.88010  0.00980  Biso   1.000  C
  C53      1.0000 0.57500  0.73300  0.53280  Biso   1.000  C
  C54      1.0000 0.42500  0.23300  0.96720  Biso   1.000  C
  C55      1.0000 0.42500  0.26700  0.46720  Biso   1.000  C
  C56      1.0000 0.57500  0.76700  0.03280  Biso   1.000  C
  H29      1.0000 0.65390  0.72430  0.50230  Biso   1.000  H
  H30      1.0000 0.34610  0.22430  0.99770  Biso   1.000  H
  H31      1.0000 0.34610  0.27570  0.49770  Biso   1.000  H
  H32      1.0000 0.65390  0.77570  0.00230  Biso   1.000  H
  N1       1.0000 0.86390  0.88000  0.50940  Biso   1.000  N
  N2       1.0000 0.13610  0.38000  0.99060  Biso   1.000  N
  N3       1.0000 0.13610  0.12000  0.49060  Biso   1.000  N
  N4       1.0000 0.86390  0.62000  0.00940  Biso   1.000  N
  N5       1.0000 0.55200  0.79270  0.56220  Biso   1.000  N
  N6       1.0000 0.44800  0.29270  0.93780  Biso   1.000  N
  N7       1.0000 0.44800  0.20730  0.43780  Biso   1.000  N
  N8       1.0000 0.55200  0.70730  0.06220  Biso   1.000  N
  O1       1.0000 0.36730  0.96890  0.71390  Biso   1.000  O
  O2       1.0000 0.63270  0.46890  0.78610  Biso   1.000  O
  O3       1.0000 0.63270  0.03110  0.28610  Biso   1.000  O
  O4       1.0000 0.36730  0.53110  0.21390  Biso   1.000  O
  O5       1.0000 0.21520  0.99610  0.83180  Biso   1.000  O
  O6       1.0000 0.78480  0.49610  0.66820  Biso   1.000  O
  O7       1.0000 0.78480  0.00390  0.16820  Biso   1.000  O
  O8       1.0000 0.21520  0.50390  0.33180  Biso   1.000  O
  O9       1.0000 0.88410  0.93380  0.95020  Biso   1.000  O
  O10      1.0000 0.11590  0.43380  0.54980  Biso   1.000  O
  O11      1.0000 0.11590  0.06620  0.04980  Biso   1.000  O
  O12      1.0000 0.88410  0.56620  0.45020  Biso   1.000  O
  O13      1.0000 0.14350  0.94350  0.08840  Biso   1.000  O
  O14      1.0000 0.85650  0.44350  0.41160  Biso   1.000  O
  O15      1.0000 0.85650  0.05650  0.91160  Biso   1.000  O
  O16      1.0000 0.14350  0.55650  0.58840  Biso   1.000  O
  O17      1.0000 0.61900  0.94190  0.62730  Biso   1.000  O
  O18      1.0000 0.38100  0.44190  0.87270  Biso   1.000  O
  O19      1.0000 0.38100  0.05810  0.37270  Biso   1.000  O
  O20      1.0000 0.61900  0.55810  0.12730  Biso   1.000  O
  O21      1.0000 0.46060  0.93940  0.36140  Biso   1.000  O
  O22      1.0000 0.53940  0.43940  0.13860  Biso   1.000  O
  O23      1.0000 0.53940  0.06060  0.63860  Biso   1.000  O
  O24      1.0000 0.46060  0.56060  0.86140  Biso   1.000  O
  O25      1.0000 0.61410  0.61510  0.44220  Biso   1.000  O
  O26      1.0000 0.38590  0.11510  0.05780  Biso   1.000  O
  O27      1.0000 0.38590  0.38490  0.55780  Biso   1.000  O
  O28      1.0000 0.61410  0.88490  0.94220  Biso   1.000  O
  O29      1.0000 0.46880  0.57420  0.54860  Biso   1.000  O
  O30      1.0000 0.53120  0.07420  0.95140  Biso   1.000  O
  O31      1.0000 0.53120  0.42580  0.45140  Biso   1.000  O
  O32      1.0000 0.46880  0.92580  0.04860  Biso   1.000  O
  O33      1.0000 0.91000  0.69930  0.44600  Biso   1.000  O
  O34      1.0000 0.09000  0.19930  0.05400  Biso   1.000  O
  O35      1.0000 0.09000  0.30070  0.55400  Biso   1.000  O
  O36      1.0000 0.91000  0.80070  0.94600  Biso   1.000  O
  H33      1.0000 0.87790  0.69340  0.34580  Biso   1.000  H
  H34      1.0000 0.12210  0.19340  0.15420  Biso   1.000  H
  H35      1.0000 0.12210  0.30660  0.65420  Biso   1.000  H
  H36      1.0000 0.87790  0.80660  0.84580  Biso   1.000  H
  H37      1.0000 0.84110  0.68200  0.47120  Biso   1.000  H
  H38      1.0000 0.15890  0.18200  0.02880  Biso   1.000  H
  H39      1.0000 0.15890  0.31800  0.52880  Biso   1.000  H
  H40      1.0000 0.84110  0.81800  0.97120  Biso   1.000  H
