data_image0
_cell_length_a       15.9737
_cell_length_b       15.9737
_cell_length_c       15.9737
_cell_angle_alpha    90
_cell_angle_beta     90
_cell_angle_gamma    90

_symmetry_space_group_name_H-M    "P 1"
_symmetry_int_tables_number       1

loop_
  _symmetry_equiv_pos_as_xyz
  'x, y, z'

loop_
  _atom_site_label
  _atom_site_occupancy
  _atom_site_fract_x
  _atom_site_fract_y
  _atom_site_fract_z
  _atom_site_thermal_displace_type
  _atom_site_B_iso_or_equiv
  _atom_site_type_symbol
  Cu1      1.0000 0.00000  0.00000  0.00000  Biso   1.000  Cu
  Cu2      1.0000 0.50000  0.50000  0.50000  Biso   1.000  Cu
  Cu3      1.0000 0.16735  0.01483  0.80463  Biso   1.000  Cu
  Cu4      1.0000 0.83265  0.98517  0.80463  Biso   1.000  Cu
  Cu5      1.0000 0.16735  0.98517  0.19537  Biso   1.000  Cu
  Cu6      1.0000 0.80463  0.16735  0.01483  Biso   1.000  Cu
  Cu7      1.0000 0.83265  0.01483  0.19537  Biso   1.000  Cu
  Cu8      1.0000 0.19537  0.83265  0.01483  Biso   1.000  Cu
  Cu9      1.0000 0.80463  0.83265  0.98517  Biso   1.000  Cu
  Cu10     1.0000 0.19537  0.16735  0.98517  Biso   1.000  Cu
  Cu11     1.0000 0.01483  0.80463  0.16735  Biso   1.000  Cu
  Cu12     1.0000 0.01483  0.19537  0.83265  Biso   1.000  Cu
  Cu13     1.0000 0.98517  0.80463  0.83265  Biso   1.000  Cu
  Cu14     1.0000 0.98517  0.19537  0.16735  Biso   1.000  Cu
  Cu15     1.0000 0.66735  0.51483  0.30463  Biso   1.000  Cu
  Cu16     1.0000 0.33265  0.48517  0.30463  Biso   1.000  Cu
  Cu17     1.0000 0.66735  0.48517  0.69537  Biso   1.000  Cu
  Cu18     1.0000 0.30463  0.66735  0.51483  Biso   1.000  Cu
  Cu19     1.0000 0.33265  0.51483  0.69537  Biso   1.000  Cu
  Cu20     1.0000 0.69537  0.33265  0.51483  Biso   1.000  Cu
  Cu21     1.0000 0.30463  0.33265  0.48517  Biso   1.000  Cu
  Cu22     1.0000 0.69537  0.66735  0.48517  Biso   1.000  Cu
  Cu23     1.0000 0.51483  0.30463  0.66735  Biso   1.000  Cu
  Cu24     1.0000 0.51483  0.69537  0.33265  Biso   1.000  Cu
  Cu25     1.0000 0.48517  0.30463  0.33265  Biso   1.000  Cu
  Cu26     1.0000 0.48517  0.69537  0.66735  Biso   1.000  Cu
  I1       1.0000 0.09396  0.90604  0.90604  Biso   1.000  I
  I2       1.0000 0.90604  0.09396  0.90604  Biso   1.000  I
  I3       1.0000 0.09396  0.09396  0.09396  Biso   1.000  I
  I4       1.0000 0.90604  0.90604  0.09396  Biso   1.000  I
  I5       1.0000 0.59396  0.40604  0.40604  Biso   1.000  I
  I6       1.0000 0.40604  0.59396  0.40604  Biso   1.000  I
  I7       1.0000 0.59396  0.59396  0.59396  Biso   1.000  I
  I8       1.0000 0.40604  0.40604  0.59396  Biso   1.000  I
  S1       1.0000 0.07252  0.09542  0.73437  Biso   1.000  S
  S2       1.0000 0.92748  0.90458  0.73437  Biso   1.000  S
  S3       1.0000 0.07252  0.90458  0.26563  Biso   1.000  S
  S4       1.0000 0.73437  0.07252  0.09542  Biso   1.000  S
  S5       1.0000 0.92748  0.09542  0.26563  Biso   1.000  S
  S6       1.0000 0.26563  0.92748  0.09542  Biso   1.000  S
  S7       1.0000 0.73437  0.92748  0.90458  Biso   1.000  S
  S8       1.0000 0.26563  0.07252  0.90458  Biso   1.000  S
  S9       1.0000 0.09542  0.73437  0.07252  Biso   1.000  S
  S10      1.0000 0.09542  0.26563  0.92748  Biso   1.000  S
  S11      1.0000 0.90458  0.73437  0.92748  Biso   1.000  S
  S12      1.0000 0.90458  0.26563  0.07252  Biso   1.000  S
  S13      1.0000 0.57252  0.59542  0.23437  Biso   1.000  S
  S14      1.0000 0.42748  0.40458  0.23437  Biso   1.000  S
  S15      1.0000 0.57252  0.40458  0.76563  Biso   1.000  S
  S16      1.0000 0.23437  0.57252  0.59542  Biso   1.000  S
  S17      1.0000 0.42748  0.59542  0.76563  Biso   1.000  S
  S18      1.0000 0.76563  0.42748  0.59542  Biso   1.000  S
  S19      1.0000 0.23437  0.42748  0.40458  Biso   1.000  S
  S20      1.0000 0.76563  0.57252  0.40458  Biso   1.000  S
  S21      1.0000 0.59542  0.23437  0.57252  Biso   1.000  S
  S22      1.0000 0.59542  0.76563  0.42748  Biso   1.000  S
  S23      1.0000 0.40458  0.23437  0.42748  Biso   1.000  S
  S24      1.0000 0.40458  0.76563  0.57252  Biso   1.000  S
  N1       1.0000 0.22570  0.25810  0.55600  Biso   1.000  N
  N2       1.0000 0.77430  0.74190  0.55600  Biso   1.000  N
  N3       1.0000 0.22570  0.74190  0.44400  Biso   1.000  N
  N4       1.0000 0.55600  0.22570  0.25810  Biso   1.000  N
  N5       1.0000 0.77430  0.25810  0.44400  Biso   1.000  N
  N6       1.0000 0.44400  0.77430  0.25810  Biso   1.000  N
  N7       1.0000 0.55600  0.77430  0.74190  Biso   1.000  N
  N8       1.0000 0.44400  0.22570  0.74190  Biso   1.000  N
  N9       1.0000 0.25810  0.55600  0.22570  Biso   1.000  N
  N10      1.0000 0.25810  0.44400  0.77430  Biso   1.000  N
  N11      1.0000 0.74190  0.55600  0.77430  Biso   1.000  N
  N12      1.0000 0.74190  0.44400  0.22570  Biso   1.000  N
  N13      1.0000 0.72570  0.75810  0.05600  Biso   1.000  N
  N14      1.0000 0.27430  0.24190  0.05600  Biso   1.000  N
  N15      1.0000 0.72570  0.24190  0.94400  Biso   1.000  N
  N16      1.0000 0.05600  0.72570  0.75810  Biso   1.000  N
  N17      1.0000 0.27430  0.75810  0.94400  Biso   1.000  N
  N18      1.0000 0.94400  0.27430  0.75810  Biso   1.000  N
  N19      1.0000 0.05600  0.27430  0.24190  Biso   1.000  N
  N20      1.0000 0.94400  0.72570  0.24190  Biso   1.000  N
  N21      1.0000 0.75810  0.05600  0.72570  Biso   1.000  N
  N22      1.0000 0.75810  0.94400  0.27430  Biso   1.000  N
  N23      1.0000 0.24190  0.05600  0.27430  Biso   1.000  N
  N24      1.0000 0.24190  0.94400  0.72570  Biso   1.000  N
  C1       1.0000 0.13040  0.15490  0.66180  Biso   1.000  C
  C2       1.0000 0.86960  0.84510  0.66180  Biso   1.000  C
  C3       1.0000 0.13040  0.84510  0.33820  Biso   1.000  C
  C4       1.0000 0.66180  0.13040  0.15490  Biso   1.000  C
  C5       1.0000 0.86960  0.15490  0.33820  Biso   1.000  C
  C6       1.0000 0.33820  0.86960  0.15490  Biso   1.000  C
  C7       1.0000 0.66180  0.86960  0.84510  Biso   1.000  C
  C8       1.0000 0.33820  0.13040  0.84510  Biso   1.000  C
  C9       1.0000 0.15490  0.66180  0.13040  Biso   1.000  C
  C10      1.0000 0.15490  0.33820  0.86960  Biso   1.000  C
  C11      1.0000 0.84510  0.66180  0.86960  Biso   1.000  C
  C12      1.0000 0.84510  0.33820  0.13040  Biso   1.000  C
  C13      1.0000 0.63040  0.65490  0.16180  Biso   1.000  C
  C14      1.0000 0.36960  0.34510  0.16180  Biso   1.000  C
  C15      1.0000 0.63040  0.34510  0.83820  Biso   1.000  C
  C16      1.0000 0.16180  0.63040  0.65490  Biso   1.000  C
  C17      1.0000 0.36960  0.65490  0.83820  Biso   1.000  C
  C18      1.0000 0.83820  0.36960  0.65490  Biso   1.000  C
  C19      1.0000 0.16180  0.36960  0.34510  Biso   1.000  C
  C20      1.0000 0.83820  0.63040  0.34510  Biso   1.000  C
  C21      1.0000 0.65490  0.16180  0.63040  Biso   1.000  C
  C22      1.0000 0.65490  0.83820  0.36960  Biso   1.000  C
  C23      1.0000 0.34510  0.16180  0.36960  Biso   1.000  C
  C24      1.0000 0.34510  0.83820  0.63040  Biso   1.000  C
  C25      1.0000 0.09320  0.20750  0.60440  Biso   1.000  C
  C26      1.0000 0.90680  0.79250  0.60440  Biso   1.000  C
  C27      1.0000 0.09320  0.79250  0.39560  Biso   1.000  C
  C28      1.0000 0.60440  0.09320  0.20750  Biso   1.000  C
  C29      1.0000 0.90680  0.20750  0.39560  Biso   1.000  C
  C30      1.0000 0.39560  0.90680  0.20750  Biso   1.000  C
  C31      1.0000 0.60440  0.90680  0.79250  Biso   1.000  C
  C32      1.0000 0.39560  0.09320  0.79250  Biso   1.000  C
  C33      1.0000 0.20750  0.60440  0.09320  Biso   1.000  C
  C34      1.0000 0.20750  0.39560  0.90680  Biso   1.000  C
  C35      1.0000 0.79250  0.60440  0.90680  Biso   1.000  C
  C36      1.0000 0.79250  0.39560  0.09320  Biso   1.000  C
  C37      1.0000 0.59320  0.70750  0.10440  Biso   1.000  C
  C38      1.0000 0.40680  0.29250  0.10440  Biso   1.000  C
  C39      1.0000 0.59320  0.29250  0.89560  Biso   1.000  C
  C40      1.0000 0.10440  0.59320  0.70750  Biso   1.000  C
  C41      1.0000 0.40680  0.70750  0.89560  Biso   1.000  C
  C42      1.0000 0.89560  0.40680  0.70750  Biso   1.000  C
  C43      1.0000 0.10440  0.40680  0.29250  Biso   1.000  C
  C44      1.0000 0.89560  0.59320  0.29250  Biso   1.000  C
  C45      1.0000 0.70750  0.10440  0.59320  Biso   1.000  C
  C46      1.0000 0.70750  0.89560  0.40680  Biso   1.000  C
  C47      1.0000 0.29250  0.10440  0.40680  Biso   1.000  C
  C48      1.0000 0.29250  0.89560  0.59320  Biso   1.000  C
  H1       1.0000 0.03520  0.20860  0.59930  Biso   1.000  H
  H2       1.0000 0.96480  0.79140  0.59930  Biso   1.000  H
  H3       1.0000 0.03520  0.79140  0.40070  Biso   1.000  H
  H4       1.0000 0.59930  0.03520  0.20860  Biso   1.000  H
  H5       1.0000 0.96480  0.20860  0.40070  Biso   1.000  H
  H6       1.0000 0.40070  0.96480  0.20860  Biso   1.000  H
  H7       1.0000 0.59930  0.96480  0.79140  Biso   1.000  H
  H8       1.0000 0.40070  0.03520  0.79140  Biso   1.000  H
  H9       1.0000 0.20860  0.59930  0.03520  Biso   1.000  H
  H10      1.0000 0.20860  0.40070  0.96480  Biso   1.000  H
  H11      1.0000 0.79140  0.59930  0.96480  Biso   1.000  H
  H12      1.0000 0.79140  0.40070  0.03520  Biso   1.000  H
  H13      1.0000 0.53520  0.70860  0.09930  Biso   1.000  H
  H14      1.0000 0.46480  0.29140  0.09930  Biso   1.000  H
  H15      1.0000 0.53520  0.29140  0.90070  Biso   1.000  H
  H16      1.0000 0.09930  0.53520  0.70860  Biso   1.000  H
  H17      1.0000 0.46480  0.70860  0.90070  Biso   1.000  H
  H18      1.0000 0.90070  0.46480  0.70860  Biso   1.000  H
  H19      1.0000 0.09930  0.46480  0.29140  Biso   1.000  H
  H20      1.0000 0.90070  0.53520  0.29140  Biso   1.000  H
  H21      1.0000 0.70860  0.09930  0.53520  Biso   1.000  H
  H22      1.0000 0.70860  0.90070  0.46480  Biso   1.000  H
  H23      1.0000 0.29140  0.09930  0.46480  Biso   1.000  H
  H24      1.0000 0.29140  0.90070  0.53520  Biso   1.000  H
  C49      1.0000 0.14200  0.25840  0.55430  Biso   1.000  C
  C50      1.0000 0.85800  0.74160  0.55430  Biso   1.000  C
  C51      1.0000 0.14200  0.74160  0.44570  Biso   1.000  C
  C52      1.0000 0.55430  0.14200  0.25840  Biso   1.000  C
  C53      1.0000 0.85800  0.25840  0.44570  Biso   1.000  C
  C54      1.0000 0.44570  0.85800  0.25840  Biso   1.000  C
  C55      1.0000 0.55430  0.85800  0.74160  Biso   1.000  C
  C56      1.0000 0.44570  0.14200  0.74160  Biso   1.000  C
  C57      1.0000 0.25840  0.55430  0.14200  Biso   1.000  C
  C58      1.0000 0.25840  0.44570  0.85800  Biso   1.000  C
  C59      1.0000 0.74160  0.55430  0.85800  Biso   1.000  C
  C60      1.0000 0.74160  0.44570  0.14200  Biso   1.000  C
  C61      1.0000 0.64200  0.75840  0.05430  Biso   1.000  C
  C62      1.0000 0.35800  0.24160  0.05430  Biso   1.000  C
  C63      1.0000 0.64200  0.24160  0.94570  Biso   1.000  C
  C64      1.0000 0.05430  0.64200  0.75840  Biso   1.000  C
  C65      1.0000 0.35800  0.75840  0.94570  Biso   1.000  C
  C66      1.0000 0.94570  0.35800  0.75840  Biso   1.000  C
  C67      1.0000 0.05430  0.35800  0.24160  Biso   1.000  C
  C68      1.0000 0.94570  0.64200  0.24160  Biso   1.000  C
  C69      1.0000 0.75840  0.05430  0.64200  Biso   1.000  C
  C70      1.0000 0.75840  0.94570  0.35800  Biso   1.000  C
  C71      1.0000 0.24160  0.05430  0.35800  Biso   1.000  C
  C72      1.0000 0.24160  0.94570  0.64200  Biso   1.000  C
  H25      1.0000 0.11530  0.29490  0.51760  Biso   1.000  H
  H26      1.0000 0.88470  0.70510  0.51760  Biso   1.000  H
  H27      1.0000 0.11530  0.70510  0.48240  Biso   1.000  H
  H28      1.0000 0.51760  0.11530  0.29490  Biso   1.000  H
  H29      1.0000 0.88470  0.29490  0.48240  Biso   1.000  H
  H30      1.0000 0.48240  0.88470  0.29490  Biso   1.000  H
  H31      1.0000 0.51760  0.88470  0.70510  Biso   1.000  H
  H32      1.0000 0.48240  0.11530  0.70510  Biso   1.000  H
  H33      1.0000 0.29490  0.51760  0.11530  Biso   1.000  H
  H34      1.0000 0.29490  0.48240  0.88470  Biso   1.000  H
  H35      1.0000 0.70510  0.51760  0.88470  Biso   1.000  H
  H36      1.0000 0.70510  0.48240  0.11530  Biso   1.000  H
  H37      1.0000 0.61530  0.79490  0.01760  Biso   1.000  H
  H38      1.0000 0.38470  0.20510  0.01760  Biso   1.000  H
  H39      1.0000 0.61530  0.20510  0.98240  Biso   1.000  H
  H40      1.0000 0.01760  0.61530  0.79490  Biso   1.000  H
  H41      1.0000 0.38470  0.79490  0.98240  Biso   1.000  H
  H42      1.0000 0.98240  0.38470  0.79490  Biso   1.000  H
  H43      1.0000 0.01760  0.38470  0.20510  Biso   1.000  H
  H44      1.0000 0.98240  0.61530  0.20510  Biso   1.000  H
  H45      1.0000 0.79490  0.01760  0.61530  Biso   1.000  H
  H46      1.0000 0.79490  0.98240  0.38470  Biso   1.000  H
  H47      1.0000 0.20510  0.01760  0.38470  Biso   1.000  H
  H48      1.0000 0.20510  0.98240  0.61530  Biso   1.000  H
  C73      1.0000 0.26130  0.20610  0.61040  Biso   1.000  C
  C74      1.0000 0.73870  0.79390  0.61040  Biso   1.000  C
  C75      1.0000 0.26130  0.79390  0.38960  Biso   1.000  C
  C76      1.0000 0.61040  0.26130  0.20610  Biso   1.000  C
  C77      1.0000 0.73870  0.20610  0.38960  Biso   1.000  C
  C78      1.0000 0.38960  0.73870  0.20610  Biso   1.000  C
  C79      1.0000 0.61040  0.73870  0.79390  Biso   1.000  C
  C80      1.0000 0.38960  0.26130  0.79390  Biso   1.000  C
  C81      1.0000 0.20610  0.61040  0.26130  Biso   1.000  C
  C82      1.0000 0.20610  0.38960  0.73870  Biso   1.000  C
  C83      1.0000 0.79390  0.61040  0.73870  Biso   1.000  C
  C84      1.0000 0.79390  0.38960  0.26130  Biso   1.000  C
  C85      1.0000 0.76130  0.70610  0.11040  Biso   1.000  C
  C86      1.0000 0.23870  0.29390  0.11040  Biso   1.000  C
  C87      1.0000 0.76130  0.29390  0.88960  Biso   1.000  C
  C88      1.0000 0.11040  0.76130  0.70610  Biso   1.000  C
  C89      1.0000 0.23870  0.70610  0.88960  Biso   1.000  C
  C90      1.0000 0.88960  0.23870  0.70610  Biso   1.000  C
  C91      1.0000 0.11040  0.23870  0.29390  Biso   1.000  C
  C92      1.0000 0.88960  0.76130  0.29390  Biso   1.000  C
  C93      1.0000 0.70610  0.11040  0.76130  Biso   1.000  C
  C94      1.0000 0.70610  0.88960  0.23870  Biso   1.000  C
  C95      1.0000 0.29390  0.11040  0.23870  Biso   1.000  C
  C96      1.0000 0.29390  0.88960  0.76130  Biso   1.000  C
  H49      1.0000 0.31950  0.20380  0.61180  Biso   1.000  H
  H50      1.0000 0.68050  0.79620  0.61180  Biso   1.000  H
  H51      1.0000 0.31950  0.79620  0.38820  Biso   1.000  H
  H52      1.0000 0.61180  0.31950  0.20380  Biso   1.000  H
  H53      1.0000 0.68050  0.20380  0.38820  Biso   1.000  H
  H54      1.0000 0.38820  0.68050  0.20380  Biso   1.000  H
  H55      1.0000 0.61180  0.68050  0.79620  Biso   1.000  H
  H56      1.0000 0.38820  0.31950  0.79620  Biso   1.000  H
  H57      1.0000 0.20380  0.61180  0.31950  Biso   1.000  H
  H58      1.0000 0.20380  0.38820  0.68050  Biso   1.000  H
  H59      1.0000 0.79620  0.61180  0.68050  Biso   1.000  H
  H60      1.0000 0.79620  0.38820  0.31950  Biso   1.000  H
  H61      1.0000 0.81950  0.70380  0.11180  Biso   1.000  H
  H62      1.0000 0.18050  0.29620  0.11180  Biso   1.000  H
  H63      1.0000 0.81950  0.29620  0.88820  Biso   1.000  H
  H64      1.0000 0.11180  0.81950  0.70380  Biso   1.000  H
  H65      1.0000 0.18050  0.70380  0.88820  Biso   1.000  H
  H66      1.0000 0.88820  0.18050  0.70380  Biso   1.000  H
  H67      1.0000 0.11180  0.18050  0.29620  Biso   1.000  H
  H68      1.0000 0.88820  0.81950  0.29620  Biso   1.000  H
  H69      1.0000 0.70380  0.11180  0.81950  Biso   1.000  H
  H70      1.0000 0.70380  0.88820  0.18050  Biso   1.000  H
  H71      1.0000 0.29620  0.11180  0.18050  Biso   1.000  H
  H72      1.0000 0.29620  0.88820  0.81950  Biso   1.000  H
  C97      1.0000 0.21770  0.15560  0.66480  Biso   1.000  C
  C98      1.0000 0.78230  0.84440  0.66480  Biso   1.000  C
  C99      1.0000 0.21770  0.84440  0.33520  Biso   1.000  C
  C100     1.0000 0.66480  0.21770  0.15560  Biso   1.000  C
  C101     1.0000 0.78230  0.15560  0.33520  Biso   1.000  C
  C102     1.0000 0.33520  0.78230  0.15560  Biso   1.000  C
  C103     1.0000 0.66480  0.78230  0.84440  Biso   1.000  C
  C104     1.0000 0.33520  0.21770  0.84440  Biso   1.000  C
  C105     1.0000 0.15560  0.66480  0.21770  Biso   1.000  C
  C106     1.0000 0.15560  0.33520  0.78230  Biso   1.000  C
  C107     1.0000 0.84440  0.66480  0.78230  Biso   1.000  C
  C108     1.0000 0.84440  0.33520  0.21770  Biso   1.000  C
  C109     1.0000 0.71770  0.65560  0.16480  Biso   1.000  C
  C110     1.0000 0.28230  0.34440  0.16480  Biso   1.000  C
  C111     1.0000 0.71770  0.34440  0.83520  Biso   1.000  C
  C112     1.0000 0.16480  0.71770  0.65560  Biso   1.000  C
  C113     1.0000 0.28230  0.65560  0.83520  Biso   1.000  C
  C114     1.0000 0.83520  0.28230  0.65560  Biso   1.000  C
  C115     1.0000 0.16480  0.28230  0.34440  Biso   1.000  C
  C116     1.0000 0.83520  0.71770  0.34440  Biso   1.000  C
  C117     1.0000 0.65560  0.16480  0.71770  Biso   1.000  C
  C118     1.0000 0.65560  0.83520  0.28230  Biso   1.000  C
  C119     1.0000 0.34440  0.16480  0.28230  Biso   1.000  C
  C120     1.0000 0.34440  0.83520  0.71770  Biso   1.000  C
  H73      1.0000 0.24610  0.12230  0.70310  Biso   1.000  H
  H74      1.0000 0.75390  0.87770  0.70310  Biso   1.000  H
  H75      1.0000 0.24610  0.87770  0.29690  Biso   1.000  H
  H76      1.0000 0.70310  0.24610  0.12230  Biso   1.000  H
  H77      1.0000 0.75390  0.12230  0.29690  Biso   1.000  H
  H78      1.0000 0.29690  0.75390  0.12230  Biso   1.000  H
  H79      1.0000 0.70310  0.75390  0.87770  Biso   1.000  H
  H80      1.0000 0.29690  0.24610  0.87770  Biso   1.000  H
  H81      1.0000 0.12230  0.70310  0.24610  Biso   1.000  H
  H82      1.0000 0.12230  0.29690  0.75390  Biso   1.000  H
  H83      1.0000 0.87770  0.70310  0.75390  Biso   1.000  H
  H84      1.0000 0.87770  0.29690  0.24610  Biso   1.000  H
  H85      1.0000 0.74610  0.62230  0.20310  Biso   1.000  H
  H86      1.0000 0.25390  0.37770  0.20310  Biso   1.000  H
  H87      1.0000 0.74610  0.37770  0.79690  Biso   1.000  H
  H88      1.0000 0.20310  0.74610  0.62230  Biso   1.000  H
  H89      1.0000 0.25390  0.62230  0.79690  Biso   1.000  H
  H90      1.0000 0.79690  0.25390  0.62230  Biso   1.000  H
  H91      1.0000 0.20310  0.25390  0.37770  Biso   1.000  H
  H92      1.0000 0.79690  0.74610  0.37770  Biso   1.000  H
  H93      1.0000 0.62230  0.20310  0.74610  Biso   1.000  H
  H94      1.0000 0.62230  0.79690  0.25390  Biso   1.000  H
  H95      1.0000 0.37770  0.20310  0.25390  Biso   1.000  H
  H96      1.0000 0.37770  0.79690  0.74610  Biso   1.000  H
  Cu27     1.0000 0.00000  0.00000  0.65720  Biso   1.000  Cu
  Cu28     1.0000 0.00000  0.00000  0.34280  Biso   1.000  Cu
  Cu29     1.0000 0.65720  0.00000  0.00000  Biso   1.000  Cu
  Cu30     1.0000 0.34280  0.00000  0.00000  Biso   1.000  Cu
  Cu31     1.0000 0.00000  0.65720  0.00000  Biso   1.000  Cu
  Cu32     1.0000 0.00000  0.34280  0.00000  Biso   1.000  Cu
  Cu33     1.0000 0.50000  0.50000  0.15720  Biso   1.000  Cu
  Cu34     1.0000 0.50000  0.50000  0.84280  Biso   1.000  Cu
  Cu35     1.0000 0.15720  0.50000  0.50000  Biso   1.000  Cu
  Cu36     1.0000 0.84280  0.50000  0.50000  Biso   1.000  Cu
  Cu37     1.0000 0.50000  0.15720  0.50000  Biso   1.000  Cu
  Cu38     1.0000 0.50000  0.84280  0.50000  Biso   1.000  Cu
  S25      1.0000 0.00000  0.00000  0.50000  Biso   1.000  S
  S26      1.0000 0.50000  0.00000  0.00000  Biso   1.000  S
  S27      1.0000 0.00000  0.50000  0.00000  Biso   1.000  S
  S28      1.0000 0.50000  0.50000  0.00000  Biso   1.000  S
  S29      1.0000 0.00000  0.50000  0.50000  Biso   1.000  S
  S30      1.0000 0.50000  0.00000  0.50000  Biso   1.000  S
