data_image0
_cell_length_a       9.43
_cell_length_b       17.136
_cell_length_c       16.48
_cell_angle_alpha    90
_cell_angle_beta     106.077
_cell_angle_gamma    90

_symmetry_space_group_name_H-M    "P 1"
_symmetry_int_tables_number       1

loop_
  _symmetry_equiv_pos_as_xyz
  'x, y, z'

loop_
  _atom_site_label
  _atom_site_occupancy
  _atom_site_fract_x
  _atom_site_fract_y
  _atom_site_fract_z
  _atom_site_thermal_displace_type
  _atom_site_B_iso_or_equiv
  _atom_site_type_symbol
  Cu1      1.0000 0.04531  0.43842  0.16316  Biso   1.000  Cu
  Cu2      1.0000 0.95469  0.43842  0.33684  Biso   1.000  Cu
  Cu3      1.0000 0.54531  0.93842  0.16316  Biso   1.000  Cu
  Cu4      1.0000 0.45469  0.93842  0.33684  Biso   1.000  Cu
  Cu5      1.0000 0.95469  0.56158  0.83684  Biso   1.000  Cu
  Cu6      1.0000 0.04531  0.56158  0.66316  Biso   1.000  Cu
  Cu7      1.0000 0.45469  0.06158  0.83684  Biso   1.000  Cu
  Cu8      1.0000 0.54531  0.06158  0.66316  Biso   1.000  Cu
  N1       1.0000 0.22700  0.46230  0.24410  Biso   1.000  N
  N2       1.0000 0.77300  0.46230  0.25590  Biso   1.000  N
  N3       1.0000 0.72700  0.96230  0.24410  Biso   1.000  N
  N4       1.0000 0.27300  0.96230  0.25590  Biso   1.000  N
  N5       1.0000 0.77300  0.53770  0.75590  Biso   1.000  N
  N6       1.0000 0.22700  0.53770  0.74410  Biso   1.000  N
  N7       1.0000 0.27300  0.03770  0.75590  Biso   1.000  N
  N8       1.0000 0.72700  0.03770  0.74410  Biso   1.000  N
  N9       1.0000 0.87840  0.54120  0.56810  Biso   1.000  N
  N10      1.0000 0.12160  0.54120  0.93190  Biso   1.000  N
  N11      1.0000 0.37840  0.04120  0.56810  Biso   1.000  N
  N12      1.0000 0.62160  0.04120  0.93190  Biso   1.000  N
  N13      1.0000 0.12160  0.45880  0.43190  Biso   1.000  N
  N14      1.0000 0.87840  0.45880  0.06810  Biso   1.000  N
  N15      1.0000 0.62160  0.95880  0.43190  Biso   1.000  N
  N16      1.0000 0.37840  0.95880  0.06810  Biso   1.000  N
  O1       1.0000 0.00830  0.31560  0.18100  Biso   1.000  O
  O2       1.0000 0.99170  0.31560  0.31900  Biso   1.000  O
  O3       1.0000 0.50830  0.81560  0.18100  Biso   1.000  O
  O4       1.0000 0.49170  0.81560  0.31900  Biso   1.000  O
  O5       1.0000 0.99170  0.68440  0.81900  Biso   1.000  O
  O6       1.0000 0.00830  0.68440  0.68100  Biso   1.000  O
  O7       1.0000 0.49170  0.18440  0.81900  Biso   1.000  O
  O8       1.0000 0.50830  0.18440  0.68100  Biso   1.000  O
  O9       1.0000 0.87130  0.21680  0.22520  Biso   1.000  O
  O10      1.0000 0.12870  0.21680  0.27480  Biso   1.000  O
  O11      1.0000 0.37130  0.71680  0.22520  Biso   1.000  O
  O12      1.0000 0.62870  0.71680  0.27480  Biso   1.000  O
  O13      1.0000 0.12870  0.78320  0.77480  Biso   1.000  O
  O14      1.0000 0.87130  0.78320  0.72520  Biso   1.000  O
  O15      1.0000 0.62870  0.28320  0.77480  Biso   1.000  O
  O16      1.0000 0.37130  0.28320  0.72520  Biso   1.000  O
  O17      1.0000 0.53270  0.18650  0.18510  Biso   1.000  O
  O18      1.0000 0.46730  0.18650  0.31490  Biso   1.000  O
  O19      1.0000 0.03270  0.68650  0.18510  Biso   1.000  O
  O20      1.0000 0.96730  0.68650  0.31490  Biso   1.000  O
  O21      1.0000 0.46730  0.81350  0.81490  Biso   1.000  O
  O22      1.0000 0.53270  0.81350  0.68510  Biso   1.000  O
  O23      1.0000 0.96730  0.31350  0.81490  Biso   1.000  O
  O24      1.0000 0.03270  0.31350  0.68510  Biso   1.000  O
  O25      1.0000 0.63490  0.23320  0.10300  Biso   1.000  O
  O26      1.0000 0.36510  0.23320  0.39700  Biso   1.000  O
  O27      1.0000 0.13490  0.73320  0.10300  Biso   1.000  O
  O28      1.0000 0.86510  0.73320  0.39700  Biso   1.000  O
  O29      1.0000 0.36510  0.76680  0.89700  Biso   1.000  O
  O30      1.0000 0.63490  0.76680  0.60300  Biso   1.000  O
  O31      1.0000 0.86510  0.26680  0.89700  Biso   1.000  O
  O32      1.0000 0.13490  0.26680  0.60300  Biso   1.000  O
  H1       1.0000 0.70740  0.21770  0.13960  Biso   1.000  H
  H2       1.0000 0.29260  0.21770  0.36040  Biso   1.000  H
  H3       1.0000 0.20740  0.71770  0.13960  Biso   1.000  H
  H4       1.0000 0.79260  0.71770  0.36040  Biso   1.000  H
  H5       1.0000 0.29260  0.78230  0.86040  Biso   1.000  H
  H6       1.0000 0.70740  0.78230  0.63960  Biso   1.000  H
  H7       1.0000 0.79260  0.28230  0.86040  Biso   1.000  H
  H8       1.0000 0.20740  0.28230  0.63960  Biso   1.000  H
  S1       1.0000 0.00000  0.26663  0.25000  Biso   1.000  S
  S2       1.0000 0.50000  0.76663  0.25000  Biso   1.000  S
  S3       1.0000 0.00000  0.73337  0.75000  Biso   1.000  S
  S4       1.0000 0.50000  0.23337  0.75000  Biso   1.000  S
  C1       1.0000 0.52640  0.21220  0.11920  Biso   1.000  C
  C2       1.0000 0.47360  0.21220  0.38080  Biso   1.000  C
  C3       1.0000 0.02640  0.71220  0.11920  Biso   1.000  C
  C4       1.0000 0.97360  0.71220  0.38080  Biso   1.000  C
  C5       1.0000 0.47360  0.78780  0.88080  Biso   1.000  C
  C6       1.0000 0.52640  0.78780  0.61920  Biso   1.000  C
  C7       1.0000 0.97360  0.28780  0.88080  Biso   1.000  C
  C8       1.0000 0.02640  0.28780  0.61920  Biso   1.000  C
  C9       1.0000 0.38180  0.23640  0.05600  Biso   1.000  C
  C10      1.0000 0.61820  0.23640  0.44400  Biso   1.000  C
  C11      1.0000 0.88180  0.73640  0.05600  Biso   1.000  C
  C12      1.0000 0.11820  0.73640  0.44400  Biso   1.000  C
  C13      1.0000 0.61820  0.76360  0.94400  Biso   1.000  C
  C14      1.0000 0.38180  0.76360  0.55600  Biso   1.000  C
  C15      1.0000 0.11820  0.26360  0.94400  Biso   1.000  C
  C16      1.0000 0.88180  0.26360  0.55600  Biso   1.000  C
  C17      1.0000 0.38210  0.24940  0.97200  Biso   1.000  C
  C18      1.0000 0.61790  0.24940  0.52800  Biso   1.000  C
  C19      1.0000 0.88210  0.74940  0.97200  Biso   1.000  C
  C20      1.0000 0.11790  0.74940  0.52800  Biso   1.000  C
  C21      1.0000 0.61790  0.75060  0.02800  Biso   1.000  C
  C22      1.0000 0.38210  0.75060  0.47200  Biso   1.000  C
  C23      1.0000 0.11790  0.25060  0.02800  Biso   1.000  C
  C24      1.0000 0.88210  0.25060  0.47200  Biso   1.000  C
  H9       1.0000 0.46870  0.25060  0.95540  Biso   1.000  H
  H10      1.0000 0.53130  0.25060  0.54460  Biso   1.000  H
  H11      1.0000 0.96870  0.75060  0.95540  Biso   1.000  H
  H12      1.0000 0.03130  0.75060  0.54460  Biso   1.000  H
  H13      1.0000 0.53130  0.74940  0.04460  Biso   1.000  H
  H14      1.0000 0.46870  0.74940  0.45540  Biso   1.000  H
  H15      1.0000 0.03130  0.24940  0.04460  Biso   1.000  H
  H16      1.0000 0.96870  0.24940  0.45540  Biso   1.000  H
  C25      1.0000 0.25570  0.23970  0.08470  Biso   1.000  C
  C26      1.0000 0.74430  0.23970  0.41530  Biso   1.000  C
  C27      1.0000 0.75570  0.73970  0.08470  Biso   1.000  C
  C28      1.0000 0.24430  0.73970  0.41530  Biso   1.000  C
  C29      1.0000 0.74430  0.76030  0.91530  Biso   1.000  C
  C30      1.0000 0.25570  0.76030  0.58470  Biso   1.000  C
  C31      1.0000 0.24430  0.26030  0.91530  Biso   1.000  C
  C32      1.0000 0.75570  0.26030  0.58470  Biso   1.000  C
  H17      1.0000 0.26420  0.23450  0.14200  Biso   1.000  H
  H18      1.0000 0.73580  0.23450  0.35800  Biso   1.000  H
  H19      1.0000 0.76420  0.73450  0.14200  Biso   1.000  H
  H20      1.0000 0.23580  0.73450  0.35800  Biso   1.000  H
  H21      1.0000 0.73580  0.76550  0.85800  Biso   1.000  H
  H22      1.0000 0.26420  0.76550  0.64200  Biso   1.000  H
  H23      1.0000 0.23580  0.26550  0.85800  Biso   1.000  H
  H24      1.0000 0.76420  0.26550  0.64200  Biso   1.000  H
  C33      1.0000 0.31600  0.40620  0.28340  Biso   1.000  C
  C34      1.0000 0.68400  0.40620  0.21660  Biso   1.000  C
  C35      1.0000 0.81600  0.90620  0.28340  Biso   1.000  C
  C36      1.0000 0.18400  0.90620  0.21660  Biso   1.000  C
  C37      1.0000 0.68400  0.59380  0.71660  Biso   1.000  C
  C38      1.0000 0.31600  0.59380  0.78340  Biso   1.000  C
  C39      1.0000 0.18400  0.09380  0.71660  Biso   1.000  C
  C40      1.0000 0.81600  0.09380  0.78340  Biso   1.000  C
  H25      1.0000 0.28910  0.35480  0.26880  Biso   1.000  H
  H26      1.0000 0.71090  0.35480  0.23120  Biso   1.000  H
  H27      1.0000 0.78910  0.85480  0.26880  Biso   1.000  H
  H28      1.0000 0.21090  0.85480  0.23120  Biso   1.000  H
  H29      1.0000 0.71090  0.64520  0.73120  Biso   1.000  H
  H30      1.0000 0.28910  0.64520  0.76880  Biso   1.000  H
  H31      1.0000 0.21090  0.14520  0.73120  Biso   1.000  H
  H32      1.0000 0.78910  0.14520  0.76880  Biso   1.000  H
  C41      1.0000 0.44570  0.41960  0.34430  Biso   1.000  C
  C42      1.0000 0.55430  0.41960  0.15570  Biso   1.000  C
  C43      1.0000 0.94570  0.91960  0.34430  Biso   1.000  C
  C44      1.0000 0.05430  0.91960  0.15570  Biso   1.000  C
  C45      1.0000 0.55430  0.58040  0.65570  Biso   1.000  C
  C46      1.0000 0.44570  0.58040  0.84430  Biso   1.000  C
  C47      1.0000 0.05430  0.08040  0.65570  Biso   1.000  C
  C48      1.0000 0.94570  0.08040  0.84430  Biso   1.000  C
  H33      1.0000 0.50240  0.37740  0.37050  Biso   1.000  H
  H34      1.0000 0.49760  0.37740  0.12950  Biso   1.000  H
  H35      1.0000 0.00240  0.87740  0.37050  Biso   1.000  H
  H36      1.0000 0.99760  0.87740  0.12950  Biso   1.000  H
  H37      1.0000 0.49760  0.62260  0.62950  Biso   1.000  H
  H38      1.0000 0.50240  0.62260  0.87050  Biso   1.000  H
  H39      1.0000 0.99760  0.12260  0.62950  Biso   1.000  H
  H40      1.0000 0.00240  0.12260  0.87050  Biso   1.000  H
  C49      1.0000 0.49250  0.49310  0.36700  Biso   1.000  C
  C50      1.0000 0.50750  0.49310  0.13300  Biso   1.000  C
  C51      1.0000 0.99250  0.99310  0.36700  Biso   1.000  C
  C52      1.0000 0.00750  0.99310  0.13300  Biso   1.000  C
  C53      1.0000 0.50750  0.50690  0.63300  Biso   1.000  C
  C54      1.0000 0.49250  0.50690  0.86700  Biso   1.000  C
  C55      1.0000 0.00750  0.00690  0.63300  Biso   1.000  C
  C56      1.0000 0.99250  0.00690  0.86700  Biso   1.000  C
  C57      1.0000 0.40060  0.55240  0.32390  Biso   1.000  C
  C58      1.0000 0.59940  0.55240  0.17610  Biso   1.000  C
  C59      1.0000 0.90060  0.05240  0.32390  Biso   1.000  C
  C60      1.0000 0.09940  0.05240  0.17610  Biso   1.000  C
  C61      1.0000 0.59940  0.44760  0.67610  Biso   1.000  C
  C62      1.0000 0.40060  0.44760  0.82390  Biso   1.000  C
  C63      1.0000 0.09940  0.94760  0.67610  Biso   1.000  C
  C64      1.0000 0.90060  0.94760  0.82390  Biso   1.000  C
  H41      1.0000 0.42630  0.60430  0.33640  Biso   1.000  H
  H42      1.0000 0.57370  0.60430  0.16360  Biso   1.000  H
  H43      1.0000 0.92630  0.10430  0.33640  Biso   1.000  H
  H44      1.0000 0.07370  0.10430  0.16360  Biso   1.000  H
  H45      1.0000 0.57370  0.39570  0.66360  Biso   1.000  H
  H46      1.0000 0.42630  0.39570  0.83640  Biso   1.000  H
  H47      1.0000 0.07370  0.89570  0.66360  Biso   1.000  H
  H48      1.0000 0.92630  0.89570  0.83640  Biso   1.000  H
  C65      1.0000 0.27340  0.53500  0.26350  Biso   1.000  C
  C66      1.0000 0.72660  0.53500  0.23650  Biso   1.000  C
  C67      1.0000 0.77340  0.03500  0.26350  Biso   1.000  C
  C68      1.0000 0.22660  0.03500  0.23650  Biso   1.000  C
  C69      1.0000 0.72660  0.46500  0.73650  Biso   1.000  C
  C70      1.0000 0.27340  0.46500  0.76350  Biso   1.000  C
  C71      1.0000 0.22660  0.96500  0.73650  Biso   1.000  C
  C72      1.0000 0.77340  0.96500  0.76350  Biso   1.000  C
  H49      1.0000 0.21640  0.57580  0.23460  Biso   1.000  H
  H50      1.0000 0.78360  0.57580  0.26540  Biso   1.000  H
  H51      1.0000 0.71640  0.07580  0.23460  Biso   1.000  H
  H52      1.0000 0.28360  0.07580  0.26540  Biso   1.000  H
  H53      1.0000 0.78360  0.42420  0.76540  Biso   1.000  H
  H54      1.0000 0.21640  0.42420  0.73460  Biso   1.000  H
  H55      1.0000 0.28360  0.92420  0.76540  Biso   1.000  H
  H56      1.0000 0.71640  0.92420  0.73460  Biso   1.000  H
  C73      1.0000 0.83960  0.47160  0.54180  Biso   1.000  C
  C74      1.0000 0.16040  0.47160  0.95820  Biso   1.000  C
  C75      1.0000 0.33960  0.97160  0.54180  Biso   1.000  C
  C76      1.0000 0.66040  0.97160  0.95820  Biso   1.000  C
  C77      1.0000 0.16040  0.52840  0.45820  Biso   1.000  C
  C78      1.0000 0.83960  0.52840  0.04180  Biso   1.000  C
  C79      1.0000 0.66040  0.02840  0.45820  Biso   1.000  C
  C80      1.0000 0.33960  0.02840  0.04180  Biso   1.000  C
  H57      1.0000 0.89870  0.43070  0.56890  Biso   1.000  H
  H58      1.0000 0.10130  0.43070  0.93110  Biso   1.000  H
  H59      1.0000 0.39870  0.93070  0.56890  Biso   1.000  H
  H60      1.0000 0.60130  0.93070  0.93110  Biso   1.000  H
  H61      1.0000 0.10130  0.56930  0.43110  Biso   1.000  H
  H62      1.0000 0.89870  0.56930  0.06890  Biso   1.000  H
  H63      1.0000 0.60130  0.06930  0.43110  Biso   1.000  H
  H64      1.0000 0.39870  0.06930  0.06890  Biso   1.000  H
  C81      1.0000 0.71890  0.45330  0.47730  Biso   1.000  C
  C82      1.0000 0.28110  0.45330  0.02270  Biso   1.000  C
  C83      1.0000 0.21890  0.95330  0.47730  Biso   1.000  C
  C84      1.0000 0.78110  0.95330  0.02270  Biso   1.000  C
  C85      1.0000 0.28110  0.54670  0.52270  Biso   1.000  C
  C86      1.0000 0.71890  0.54670  0.97730  Biso   1.000  C
  C87      1.0000 0.78110  0.04670  0.52270  Biso   1.000  C
  C88      1.0000 0.21890  0.04670  0.97730  Biso   1.000  C
  H65      1.0000 0.69800  0.40140  0.46200  Biso   1.000  H
  H66      1.0000 0.30200  0.40140  0.03800  Biso   1.000  H
  H67      1.0000 0.19800  0.90140  0.46200  Biso   1.000  H
  H68      1.0000 0.80200  0.90140  0.03800  Biso   1.000  H
  H69      1.0000 0.30200  0.59860  0.53800  Biso   1.000  H
  H70      1.0000 0.69800  0.59860  0.96200  Biso   1.000  H
  H71      1.0000 0.80200  0.09860  0.53800  Biso   1.000  H
  H72      1.0000 0.19800  0.09860  0.96200  Biso   1.000  H
  C89      1.0000 0.62880  0.51110  0.43520  Biso   1.000  C
  C90      1.0000 0.37120  0.51110  0.06480  Biso   1.000  C
  C91      1.0000 0.12880  0.01110  0.43520  Biso   1.000  C
  C92      1.0000 0.87120  0.01110  0.06480  Biso   1.000  C
  C93      1.0000 0.37120  0.48890  0.56480  Biso   1.000  C
  C94      1.0000 0.62880  0.48890  0.93520  Biso   1.000  C
  C95      1.0000 0.87120  0.98890  0.56480  Biso   1.000  C
  C96      1.0000 0.12880  0.98890  0.93520  Biso   1.000  C
  C97      1.0000 0.67050  0.58570  0.46000  Biso   1.000  C
  C98      1.0000 0.32950  0.58570  0.04000  Biso   1.000  C
  C99      1.0000 0.17050  0.08570  0.46000  Biso   1.000  C
  C100     1.0000 0.82950  0.08570  0.04000  Biso   1.000  C
  C101     1.0000 0.32950  0.41430  0.54000  Biso   1.000  C
  C102     1.0000 0.67050  0.41430  0.96000  Biso   1.000  C
  C103     1.0000 0.82950  0.91430  0.54000  Biso   1.000  C
  C104     1.0000 0.17050  0.91430  0.96000  Biso   1.000  C
  H73      1.0000 0.61480  0.62760  0.43250  Biso   1.000  H
  H74      1.0000 0.38520  0.62760  0.06750  Biso   1.000  H
  H75      1.0000 0.11480  0.12760  0.43250  Biso   1.000  H
  H76      1.0000 0.88520  0.12760  0.06750  Biso   1.000  H
  H77      1.0000 0.38520  0.37240  0.56750  Biso   1.000  H
  H78      1.0000 0.61480  0.37240  0.93250  Biso   1.000  H
  H79      1.0000 0.88520  0.87240  0.56750  Biso   1.000  H
  H80      1.0000 0.11480  0.87240  0.93250  Biso   1.000  H
  C105     1.0000 0.79570  0.59880  0.52610  Biso   1.000  C
  C106     1.0000 0.20430  0.59880  0.97390  Biso   1.000  C
  C107     1.0000 0.29570  0.09880  0.52610  Biso   1.000  C
  C108     1.0000 0.70430  0.09880  0.97390  Biso   1.000  C
  C109     1.0000 0.20430  0.40120  0.47390  Biso   1.000  C
  C110     1.0000 0.79570  0.40120  0.02610  Biso   1.000  C
  C111     1.0000 0.70430  0.90120  0.47390  Biso   1.000  C
  C112     1.0000 0.29570  0.90120  0.02610  Biso   1.000  C
  H81      1.0000 0.82290  0.65000  0.54170  Biso   1.000  H
  H82      1.0000 0.17710  0.65000  0.95830  Biso   1.000  H
  H83      1.0000 0.32290  0.15000  0.54170  Biso   1.000  H
  H84      1.0000 0.67710  0.15000  0.95830  Biso   1.000  H
  H85      1.0000 0.17710  0.35000  0.45830  Biso   1.000  H
  H86      1.0000 0.82290  0.35000  0.04170  Biso   1.000  H
  H87      1.0000 0.67710  0.85000  0.45830  Biso   1.000  H
  H88      1.0000 0.32290  0.85000  0.04170  Biso   1.000  H
