data_image0
_cell_length_a       9.91
_cell_length_b       13.899
_cell_length_c       27.538
_cell_angle_alpha    90
_cell_angle_beta     90
_cell_angle_gamma    90

_symmetry_space_group_name_H-M    "P 1"
_symmetry_int_tables_number       1

loop_
  _symmetry_equiv_pos_as_xyz
  'x, y, z'

loop_
  _atom_site_label
  _atom_site_occupancy
  _atom_site_fract_x
  _atom_site_fract_y
  _atom_site_fract_z
  _atom_site_thermal_displace_type
  _atom_site_B_iso_or_equiv
  _atom_site_type_symbol
  Co1      1.0000 0.97650  0.65329  0.11045  Biso   1.000  Co
  Co2      1.0000 0.97650  0.34671  0.88955  Biso   1.000  Co
  Co3      1.0000 0.02350  0.65329  0.38955  Biso   1.000  Co
  Co4      1.0000 0.02350  0.34671  0.61045  Biso   1.000  Co
  Co5      1.0000 0.47650  0.15329  0.11045  Biso   1.000  Co
  Co6      1.0000 0.47650  0.84671  0.88955  Biso   1.000  Co
  Co7      1.0000 0.52350  0.15329  0.38955  Biso   1.000  Co
  Co8      1.0000 0.52350  0.84671  0.61045  Biso   1.000  Co
  Cu1      1.0000 0.93576  0.50000  0.00000  Biso   1.000  Cu
  Cu2      1.0000 0.06424  0.50000  0.50000  Biso   1.000  Cu
  Cu3      1.0000 0.43576  0.00000  0.00000  Biso   1.000  Cu
  Cu4      1.0000 0.56424  0.00000  0.50000  Biso   1.000  Cu
  Cd1      1.0000 0.50000  0.42542  0.25000  Biso   1.000  Cd
  Cd2      1.0000 0.50000  0.57458  0.75000  Biso   1.000  Cd
  Cd3      1.0000 0.00000  0.92542  0.25000  Biso   1.000  Cd
  Cd4      1.0000 0.00000  0.07458  0.75000  Biso   1.000  Cd
  Cl1      1.0000 0.17056  0.50000  0.00000  Biso   1.000  Cl
  Cl2      1.0000 0.82944  0.50000  0.50000  Biso   1.000  Cl
  Cl3      1.0000 0.67056  0.00000  0.00000  Biso   1.000  Cl
  Cl4      1.0000 0.32944  0.00000  0.50000  Biso   1.000  Cl
  Cl5      1.0000 0.68014  0.30683  0.27402  Biso   1.000  Cl
  Cl6      1.0000 0.68014  0.69317  0.72598  Biso   1.000  Cl
  Cl7      1.0000 0.31986  0.30683  0.22598  Biso   1.000  Cl
  Cl8      1.0000 0.31986  0.69317  0.77402  Biso   1.000  Cl
  Cl9      1.0000 0.18014  0.80683  0.27402  Biso   1.000  Cl
  Cl10     1.0000 0.18014  0.19317  0.72598  Biso   1.000  Cl
  Cl11     1.0000 0.81986  0.80683  0.22598  Biso   1.000  Cl
  Cl12     1.0000 0.81986  0.19317  0.77402  Biso   1.000  Cl
  S1       1.0000 0.83468  0.59689  0.05303  Biso   1.000  S
  S2       1.0000 0.83468  0.40311  0.94697  Biso   1.000  S
  S3       1.0000 0.16532  0.59689  0.44697  Biso   1.000  S
  S4       1.0000 0.16532  0.40311  0.55303  Biso   1.000  S
  S5       1.0000 0.33468  0.09689  0.05303  Biso   1.000  S
  S6       1.0000 0.33468  0.90311  0.94697  Biso   1.000  S
  S7       1.0000 0.66532  0.09689  0.44697  Biso   1.000  S
  S8       1.0000 0.66532  0.90311  0.55303  Biso   1.000  S
  N1       1.0000 0.84420  0.60860  0.15968  Biso   1.000  N
  N2       1.0000 0.84420  0.39140  0.84032  Biso   1.000  N
  N3       1.0000 0.15580  0.60860  0.34032  Biso   1.000  N
  N4       1.0000 0.15580  0.39140  0.65968  Biso   1.000  N
  N5       1.0000 0.34420  0.10860  0.15968  Biso   1.000  N
  N6       1.0000 0.34420  0.89140  0.84032  Biso   1.000  N
  N7       1.0000 0.65580  0.10860  0.34032  Biso   1.000  N
  N8       1.0000 0.65580  0.89140  0.65968  Biso   1.000  N
  H1       1.0000 0.88170  0.55820  0.17660  Biso   1.000  H
  H2       1.0000 0.88170  0.44180  0.82340  Biso   1.000  H
  H3       1.0000 0.11830  0.55820  0.32340  Biso   1.000  H
  H4       1.0000 0.11830  0.44180  0.67660  Biso   1.000  H
  H5       1.0000 0.38170  0.05820  0.17660  Biso   1.000  H
  H6       1.0000 0.38170  0.94180  0.82340  Biso   1.000  H
  H7       1.0000 0.61830  0.05820  0.32340  Biso   1.000  H
  H8       1.0000 0.61830  0.94180  0.67660  Biso   1.000  H
  H9       1.0000 0.82940  0.65780  0.18140  Biso   1.000  H
  H10      1.0000 0.82940  0.34220  0.81860  Biso   1.000  H
  H11      1.0000 0.17060  0.65780  0.31860  Biso   1.000  H
  H12      1.0000 0.17060  0.34220  0.68140  Biso   1.000  H
  H13      1.0000 0.32940  0.15780  0.18140  Biso   1.000  H
  H14      1.0000 0.32940  0.84220  0.81860  Biso   1.000  H
  H15      1.0000 0.67060  0.15780  0.31860  Biso   1.000  H
  H16      1.0000 0.67060  0.84220  0.68140  Biso   1.000  H
  N9       1.0000 0.09880  0.70180  0.05885  Biso   1.000  N
  N10      1.0000 0.09880  0.29820  0.94115  Biso   1.000  N
  N11      1.0000 0.90120  0.70180  0.44115  Biso   1.000  N
  N12      1.0000 0.90120  0.29820  0.55885  Biso   1.000  N
  N13      1.0000 0.59880  0.20180  0.05885  Biso   1.000  N
  N14      1.0000 0.59880  0.79820  0.94115  Biso   1.000  N
  N15      1.0000 0.40120  0.20180  0.44115  Biso   1.000  N
  N16      1.0000 0.40120  0.79820  0.55885  Biso   1.000  N
  H17      1.0000 0.18700  0.69000  0.06730  Biso   1.000  H
  H18      1.0000 0.18700  0.31000  0.93270  Biso   1.000  H
  H19      1.0000 0.81300  0.69000  0.43270  Biso   1.000  H
  H20      1.0000 0.81300  0.31000  0.56730  Biso   1.000  H
  H21      1.0000 0.68700  0.19000  0.06730  Biso   1.000  H
  H22      1.0000 0.68700  0.81000  0.93270  Biso   1.000  H
  H23      1.0000 0.31300  0.19000  0.43270  Biso   1.000  H
  H24      1.0000 0.31300  0.81000  0.56730  Biso   1.000  H
  H25      1.0000 0.08120  0.67040  0.03010  Biso   1.000  H
  H26      1.0000 0.08120  0.32960  0.96990  Biso   1.000  H
  H27      1.0000 0.91880  0.67040  0.46990  Biso   1.000  H
  H28      1.0000 0.91880  0.32960  0.53010  Biso   1.000  H
  H29      1.0000 0.58120  0.17040  0.03010  Biso   1.000  H
  H30      1.0000 0.58120  0.82960  0.96990  Biso   1.000  H
  H31      1.0000 0.41880  0.17040  0.46990  Biso   1.000  H
  H32      1.0000 0.41880  0.82960  0.53010  Biso   1.000  H
  N17      1.0000 0.88900  0.78150  0.10554  Biso   1.000  N
  N18      1.0000 0.88900  0.21850  0.89446  Biso   1.000  N
  N19      1.0000 0.11100  0.78150  0.39446  Biso   1.000  N
  N20      1.0000 0.11100  0.21850  0.60554  Biso   1.000  N
  N21      1.0000 0.38900  0.28150  0.10554  Biso   1.000  N
  N22      1.0000 0.38900  0.71850  0.89446  Biso   1.000  N
  N23      1.0000 0.61100  0.28150  0.39446  Biso   1.000  N
  N24      1.0000 0.61100  0.71850  0.60554  Biso   1.000  N
  H33      1.0000 0.79670  0.77460  0.10630  Biso   1.000  H
  H34      1.0000 0.79670  0.22540  0.89370  Biso   1.000  H
  H35      1.0000 0.20330  0.77460  0.39370  Biso   1.000  H
  H36      1.0000 0.20330  0.22540  0.60630  Biso   1.000  H
  H37      1.0000 0.29670  0.27460  0.10630  Biso   1.000  H
  H38      1.0000 0.29670  0.72540  0.89370  Biso   1.000  H
  H39      1.0000 0.70330  0.27460  0.39370  Biso   1.000  H
  H40      1.0000 0.70330  0.72540  0.60630  Biso   1.000  H
  H41      1.0000 0.91440  0.81920  0.13140  Biso   1.000  H
  H42      1.0000 0.91440  0.18080  0.86860  Biso   1.000  H
  H43      1.0000 0.08560  0.81920  0.36860  Biso   1.000  H
  H44      1.0000 0.08560  0.18080  0.63140  Biso   1.000  H
  H45      1.0000 0.41440  0.31920  0.13140  Biso   1.000  H
  H46      1.0000 0.41440  0.68080  0.86860  Biso   1.000  H
  H47      1.0000 0.58560  0.31920  0.36860  Biso   1.000  H
  H48      1.0000 0.58560  0.68080  0.63140  Biso   1.000  H
  N25      1.0000 0.07640  0.53080  0.11446  Biso   1.000  N
  N26      1.0000 0.07640  0.46920  0.88554  Biso   1.000  N
  N27      1.0000 0.92360  0.53080  0.38554  Biso   1.000  N
  N28      1.0000 0.92360  0.46920  0.61446  Biso   1.000  N
  N29      1.0000 0.57640  0.03080  0.11446  Biso   1.000  N
  N30      1.0000 0.57640  0.96920  0.88554  Biso   1.000  N
  N31      1.0000 0.42360  0.03080  0.38554  Biso   1.000  N
  N32      1.0000 0.42360  0.96920  0.61446  Biso   1.000  N
  H49      1.0000 0.02220  0.48450  0.12820  Biso   1.000  H
  H50      1.0000 0.02220  0.51550  0.87180  Biso   1.000  H
  H51      1.0000 0.97780  0.48450  0.37180  Biso   1.000  H
  H52      1.0000 0.97780  0.51550  0.62820  Biso   1.000  H
  H53      1.0000 0.52220  0.98450  0.12820  Biso   1.000  H
  H54      1.0000 0.52220  0.01550  0.87180  Biso   1.000  H
  H55      1.0000 0.47780  0.98450  0.37180  Biso   1.000  H
  H56      1.0000 0.47780  0.01550  0.62820  Biso   1.000  H
  H57      1.0000 0.09930  0.51080  0.08370  Biso   1.000  H
  H58      1.0000 0.09930  0.48920  0.91630  Biso   1.000  H
  H59      1.0000 0.90070  0.51080  0.41630  Biso   1.000  H
  H60      1.0000 0.90070  0.48920  0.58370  Biso   1.000  H
  H61      1.0000 0.59930  0.01080  0.08370  Biso   1.000  H
  H62      1.0000 0.59930  0.98920  0.91630  Biso   1.000  H
  H63      1.0000 0.40070  0.01080  0.41630  Biso   1.000  H
  H64      1.0000 0.40070  0.98920  0.58370  Biso   1.000  H
  N33      1.0000 0.10150  0.69750  0.16358  Biso   1.000  N
  N34      1.0000 0.10150  0.30250  0.83642  Biso   1.000  N
  N35      1.0000 0.89850  0.69750  0.33642  Biso   1.000  N
  N36      1.0000 0.89850  0.30250  0.66358  Biso   1.000  N
  N37      1.0000 0.60150  0.19750  0.16358  Biso   1.000  N
  N38      1.0000 0.60150  0.80250  0.83642  Biso   1.000  N
  N39      1.0000 0.39850  0.19750  0.33642  Biso   1.000  N
  N40      1.0000 0.39850  0.80250  0.66358  Biso   1.000  N
  H65      1.0000 0.16490  0.73910  0.15110  Biso   1.000  H
  H66      1.0000 0.16490  0.26090  0.84890  Biso   1.000  H
  H67      1.0000 0.83510  0.73910  0.34890  Biso   1.000  H
  H68      1.0000 0.83510  0.26090  0.65110  Biso   1.000  H
  H69      1.0000 0.66490  0.23910  0.15110  Biso   1.000  H
  H70      1.0000 0.66490  0.76090  0.84890  Biso   1.000  H
  H71      1.0000 0.33510  0.23910  0.34890  Biso   1.000  H
  H72      1.0000 0.33510  0.76090  0.65110  Biso   1.000  H
  H73      1.0000 0.05340  0.72930  0.18720  Biso   1.000  H
  H74      1.0000 0.05340  0.27070  0.81280  Biso   1.000  H
  H75      1.0000 0.94660  0.72930  0.31280  Biso   1.000  H
  H76      1.0000 0.94660  0.27070  0.68720  Biso   1.000  H
  H77      1.0000 0.55340  0.22930  0.18720  Biso   1.000  H
  H78      1.0000 0.55340  0.77070  0.81280  Biso   1.000  H
  H79      1.0000 0.44660  0.22930  0.31280  Biso   1.000  H
  H80      1.0000 0.44660  0.77070  0.68720  Biso   1.000  H
  O1       1.0000 0.64280  0.54500  0.22178  Biso   1.000  O
  O2       1.0000 0.64280  0.45500  0.77822  Biso   1.000  O
  O3       1.0000 0.35720  0.54500  0.27822  Biso   1.000  O
  O4       1.0000 0.35720  0.45500  0.72178  Biso   1.000  O
  O5       1.0000 0.14280  0.04500  0.22178  Biso   1.000  O
  O6       1.0000 0.14280  0.95500  0.77822  Biso   1.000  O
  O7       1.0000 0.85720  0.04500  0.27822  Biso   1.000  O
  O8       1.0000 0.85720  0.95500  0.72178  Biso   1.000  O
  O9       1.0000 0.55830  0.45020  0.16490  Biso   1.000  O
  O10      1.0000 0.55830  0.54980  0.83510  Biso   1.000  O
  O11      1.0000 0.44170  0.45020  0.33510  Biso   1.000  O
  O12      1.0000 0.44170  0.54980  0.66490  Biso   1.000  O
  O13      1.0000 0.05830  0.95020  0.16490  Biso   1.000  O
  O14      1.0000 0.05830  0.04980  0.83510  Biso   1.000  O
  O15      1.0000 0.94170  0.95020  0.33510  Biso   1.000  O
  O16      1.0000 0.94170  0.04980  0.66490  Biso   1.000  O
  C1       1.0000 0.73170  0.52130  0.09318  Biso   1.000  C
  C2       1.0000 0.73170  0.47870  0.90682  Biso   1.000  C
  C3       1.0000 0.26830  0.52130  0.40682  Biso   1.000  C
  C4       1.0000 0.26830  0.47870  0.59318  Biso   1.000  C
  C5       1.0000 0.23170  0.02130  0.09318  Biso   1.000  C
  C6       1.0000 0.23170  0.97870  0.90682  Biso   1.000  C
  C7       1.0000 0.76830  0.02130  0.40682  Biso   1.000  C
  C8       1.0000 0.76830  0.97870  0.59318  Biso   1.000  C
  H81      1.0000 0.64370  0.50690  0.07780  Biso   1.000  H
  H82      1.0000 0.64370  0.49310  0.92220  Biso   1.000  H
  H83      1.0000 0.35630  0.50690  0.42220  Biso   1.000  H
  H84      1.0000 0.35630  0.49310  0.57780  Biso   1.000  H
  H85      1.0000 0.14370  0.00690  0.07780  Biso   1.000  H
  H86      1.0000 0.14370  0.99310  0.92220  Biso   1.000  H
  H87      1.0000 0.85630  0.00690  0.42220  Biso   1.000  H
  H88      1.0000 0.85630  0.99310  0.57780  Biso   1.000  H
  H89      1.0000 0.77840  0.45980  0.09990  Biso   1.000  H
  H90      1.0000 0.77840  0.54020  0.90010  Biso   1.000  H
  H91      1.0000 0.22160  0.45980  0.40010  Biso   1.000  H
  H92      1.0000 0.22160  0.54020  0.59990  Biso   1.000  H
  H93      1.0000 0.27840  0.95980  0.09990  Biso   1.000  H
  H94      1.0000 0.27840  0.04020  0.90010  Biso   1.000  H
  H95      1.0000 0.72160  0.95980  0.40010  Biso   1.000  H
  H96      1.0000 0.72160  0.04020  0.59990  Biso   1.000  H
  C9       1.0000 0.71080  0.57680  0.13963  Biso   1.000  C
  C10      1.0000 0.71080  0.42320  0.86037  Biso   1.000  C
  C11      1.0000 0.28920  0.57680  0.36037  Biso   1.000  C
  C12      1.0000 0.28920  0.42320  0.63963  Biso   1.000  C
  C13      1.0000 0.21080  0.07680  0.13963  Biso   1.000  C
  C14      1.0000 0.21080  0.92320  0.86037  Biso   1.000  C
  C15      1.0000 0.78920  0.07680  0.36037  Biso   1.000  C
  C16      1.0000 0.78920  0.92320  0.63963  Biso   1.000  C
  H97      1.0000 0.65720  0.63570  0.13170  Biso   1.000  H
  H98      1.0000 0.65720  0.36430  0.86830  Biso   1.000  H
  H99      1.0000 0.34280  0.63570  0.36830  Biso   1.000  H
  H100     1.0000 0.34280  0.36430  0.63170  Biso   1.000  H
  H101     1.0000 0.15720  0.13570  0.13170  Biso   1.000  H
  H102     1.0000 0.15720  0.86430  0.86830  Biso   1.000  H
  H103     1.0000 0.84280  0.13570  0.36830  Biso   1.000  H
  H104     1.0000 0.84280  0.86430  0.63170  Biso   1.000  H
  C17      1.0000 0.63130  0.51850  0.17807  Biso   1.000  C
  C18      1.0000 0.63130  0.48150  0.82193  Biso   1.000  C
  C19      1.0000 0.36870  0.51850  0.32193  Biso   1.000  C
  C20      1.0000 0.36870  0.48150  0.67807  Biso   1.000  C
  C21      1.0000 0.13130  0.01850  0.17807  Biso   1.000  C
  C22      1.0000 0.13130  0.98150  0.82193  Biso   1.000  C
  C23      1.0000 0.86870  0.01850  0.32193  Biso   1.000  C
  C24      1.0000 0.86870  0.98150  0.67807  Biso   1.000  C
  C25      1.0000 0.07790  0.80670  0.05241  Biso   1.000  C
  C26      1.0000 0.07790  0.19330  0.94759  Biso   1.000  C
  C27      1.0000 0.92210  0.80670  0.44759  Biso   1.000  C
  C28      1.0000 0.92210  0.19330  0.55241  Biso   1.000  C
  C29      1.0000 0.57790  0.30670  0.05241  Biso   1.000  C
  C30      1.0000 0.57790  0.69330  0.94759  Biso   1.000  C
  C31      1.0000 0.42210  0.30670  0.44759  Biso   1.000  C
  C32      1.0000 0.42210  0.69330  0.55241  Biso   1.000  C
  H105     1.0000 0.10670  0.82650  0.01950  Biso   1.000  H
  H106     1.0000 0.10670  0.17350  0.98050  Biso   1.000  H
  H107     1.0000 0.89330  0.82650  0.48050  Biso   1.000  H
  H108     1.0000 0.89330  0.17350  0.51950  Biso   1.000  H
  H109     1.0000 0.60670  0.32650  0.01950  Biso   1.000  H
  H110     1.0000 0.60670  0.67350  0.98050  Biso   1.000  H
  H111     1.0000 0.39330  0.32650  0.48050  Biso   1.000  H
  H112     1.0000 0.39330  0.67350  0.51950  Biso   1.000  H
  H113     1.0000 0.13230  0.84280  0.07640  Biso   1.000  H
  H114     1.0000 0.13230  0.15720  0.92360  Biso   1.000  H
  H115     1.0000 0.86770  0.84280  0.42360  Biso   1.000  H
  H116     1.0000 0.86770  0.15720  0.57640  Biso   1.000  H
  H117     1.0000 0.63230  0.34280  0.07640  Biso   1.000  H
  H118     1.0000 0.63230  0.65720  0.92360  Biso   1.000  H
  H119     1.0000 0.36770  0.34280  0.42360  Biso   1.000  H
  H120     1.0000 0.36770  0.65720  0.57640  Biso   1.000  H
  C33      1.0000 0.93000  0.82830  0.05944  Biso   1.000  C
  C34      1.0000 0.93000  0.17170  0.94056  Biso   1.000  C
  C35      1.0000 0.07000  0.82830  0.44056  Biso   1.000  C
  C36      1.0000 0.07000  0.17170  0.55944  Biso   1.000  C
  C37      1.0000 0.43000  0.32830  0.05944  Biso   1.000  C
  C38      1.0000 0.43000  0.67170  0.94056  Biso   1.000  C
  C39      1.0000 0.57000  0.32830  0.44056  Biso   1.000  C
  C40      1.0000 0.57000  0.67170  0.55944  Biso   1.000  C
  H121     1.0000 0.91510  0.89870  0.06130  Biso   1.000  H
  H122     1.0000 0.91510  0.10130  0.93870  Biso   1.000  H
  H123     1.0000 0.08490  0.89870  0.43870  Biso   1.000  H
  H124     1.0000 0.08490  0.10130  0.56130  Biso   1.000  H
  H125     1.0000 0.41510  0.39870  0.06130  Biso   1.000  H
  H126     1.0000 0.41510  0.60130  0.93870  Biso   1.000  H
  H127     1.0000 0.58490  0.39870  0.43870  Biso   1.000  H
  H128     1.0000 0.58490  0.60130  0.56130  Biso   1.000  H
  H129     1.0000 0.87670  0.80240  0.03200  Biso   1.000  H
  H130     1.0000 0.87670  0.19760  0.96800  Biso   1.000  H
  H131     1.0000 0.12330  0.80240  0.46800  Biso   1.000  H
  H132     1.0000 0.12330  0.19760  0.53200  Biso   1.000  H
  H133     1.0000 0.37670  0.30240  0.03200  Biso   1.000  H
  H134     1.0000 0.37670  0.69760  0.96800  Biso   1.000  H
  H135     1.0000 0.62330  0.30240  0.46800  Biso   1.000  H
  H136     1.0000 0.62330  0.69760  0.53200  Biso   1.000  H
  C41      1.0000 0.20180  0.54270  0.14440  Biso   1.000  C
  C42      1.0000 0.20180  0.45730  0.85560  Biso   1.000  C
  C43      1.0000 0.79820  0.54270  0.35560  Biso   1.000  C
  C44      1.0000 0.79820  0.45730  0.64440  Biso   1.000  C
  C45      1.0000 0.70180  0.04270  0.14440  Biso   1.000  C
  C46      1.0000 0.70180  0.95730  0.85560  Biso   1.000  C
  C47      1.0000 0.29820  0.04270  0.35560  Biso   1.000  C
  C48      1.0000 0.29820  0.95730  0.64440  Biso   1.000  C
  H137     1.0000 0.27590  0.56850  0.12410  Biso   1.000  H
  H138     1.0000 0.27590  0.43150  0.87590  Biso   1.000  H
  H139     1.0000 0.72410  0.56850  0.37590  Biso   1.000  H
  H140     1.0000 0.72410  0.43150  0.62410  Biso   1.000  H
  H141     1.0000 0.77590  0.06850  0.12410  Biso   1.000  H
  H142     1.0000 0.77590  0.93150  0.87590  Biso   1.000  H
  H143     1.0000 0.22410  0.06850  0.37590  Biso   1.000  H
  H144     1.0000 0.22410  0.93150  0.62410  Biso   1.000  H
  H145     1.0000 0.23040  0.47990  0.15780  Biso   1.000  H
  H146     1.0000 0.23040  0.52010  0.84220  Biso   1.000  H
  H147     1.0000 0.76960  0.47990  0.34220  Biso   1.000  H
  H148     1.0000 0.76960  0.52010  0.65780  Biso   1.000  H
  H149     1.0000 0.73040  0.97990  0.15780  Biso   1.000  H
  H150     1.0000 0.73040  0.02010  0.84220  Biso   1.000  H
  H151     1.0000 0.26960  0.97990  0.34220  Biso   1.000  H
  H152     1.0000 0.26960  0.02010  0.65780  Biso   1.000  H
  C49      1.0000 0.16950  0.61170  0.18491  Biso   1.000  C
  C50      1.0000 0.16950  0.38830  0.81509  Biso   1.000  C
  C51      1.0000 0.83050  0.61170  0.31509  Biso   1.000  C
  C52      1.0000 0.83050  0.38830  0.68491  Biso   1.000  C
  C53      1.0000 0.66950  0.11170  0.18491  Biso   1.000  C
  C54      1.0000 0.66950  0.88830  0.81509  Biso   1.000  C
  C55      1.0000 0.33050  0.11170  0.31509  Biso   1.000  C
  C56      1.0000 0.33050  0.88830  0.68491  Biso   1.000  C
  H153     1.0000 0.10940  0.58030  0.20890  Biso   1.000  H
  H154     1.0000 0.10940  0.41970  0.79110  Biso   1.000  H
  H155     1.0000 0.89060  0.58030  0.29110  Biso   1.000  H
  H156     1.0000 0.89060  0.41970  0.70890  Biso   1.000  H
  H157     1.0000 0.60940  0.08030  0.20890  Biso   1.000  H
  H158     1.0000 0.60940  0.91970  0.79110  Biso   1.000  H
  H159     1.0000 0.39060  0.08030  0.29110  Biso   1.000  H
  H160     1.0000 0.39060  0.91970  0.70890  Biso   1.000  H
  H161     1.0000 0.25350  0.63130  0.20170  Biso   1.000  H
  H162     1.0000 0.25350  0.36870  0.79830  Biso   1.000  H
  H163     1.0000 0.74650  0.63130  0.29830  Biso   1.000  H
  H164     1.0000 0.74650  0.36870  0.70170  Biso   1.000  H
  H165     1.0000 0.75350  0.13130  0.20170  Biso   1.000  H
  H166     1.0000 0.75350  0.86870  0.79830  Biso   1.000  H
  H167     1.0000 0.24650  0.13130  0.29830  Biso   1.000  H
  H168     1.0000 0.24650  0.86870  0.70170  Biso   1.000  H
  Cl13     1.0000 0.96240  0.26628  0.08850  Biso   1.000  Cl
  Cl14     1.0000 0.96240  0.73372  0.91150  Biso   1.000  Cl
  Cl15     1.0000 0.03760  0.26628  0.41150  Biso   1.000  Cl
  Cl16     1.0000 0.03760  0.73372  0.58850  Biso   1.000  Cl
  Cl17     1.0000 0.46240  0.76628  0.08850  Biso   1.000  Cl
  Cl18     1.0000 0.46240  0.23372  0.91150  Biso   1.000  Cl
  Cl19     1.0000 0.53760  0.76628  0.41150  Biso   1.000  Cl
  Cl20     1.0000 0.53760  0.23372  0.58850  Biso   1.000  Cl
  O17      1.0000 0.94410  0.32220  0.04839  Biso   1.000  O
  O18      1.0000 0.94410  0.67780  0.95161  Biso   1.000  O
  O19      1.0000 0.05590  0.32220  0.45161  Biso   1.000  O
  O20      1.0000 0.05590  0.67780  0.54839  Biso   1.000  O
  O21      1.0000 0.44410  0.82220  0.04839  Biso   1.000  O
  O22      1.0000 0.44410  0.17780  0.95161  Biso   1.000  O
  O23      1.0000 0.55590  0.82220  0.45161  Biso   1.000  O
  O24      1.0000 0.55590  0.17780  0.54839  Biso   1.000  O
  O25      1.0000 0.96570  0.16610  0.07632  Biso   1.000  O
  O26      1.0000 0.96570  0.83390  0.92368  Biso   1.000  O
  O27      1.0000 0.03430  0.16610  0.42368  Biso   1.000  O
  O28      1.0000 0.03430  0.83390  0.57632  Biso   1.000  O
  O29      1.0000 0.46570  0.66610  0.07632  Biso   1.000  O
  O30      1.0000 0.46570  0.33390  0.92368  Biso   1.000  O
  O31      1.0000 0.53430  0.66610  0.42368  Biso   1.000  O
  O32      1.0000 0.53430  0.33390  0.57632  Biso   1.000  O
  O33      1.0000 0.08310  0.29640  0.11360  Biso   1.000  O
  O34      1.0000 0.08310  0.70360  0.88640  Biso   1.000  O
  O35      1.0000 0.91690  0.29640  0.38640  Biso   1.000  O
  O36      1.0000 0.91690  0.70360  0.61360  Biso   1.000  O
  O37      1.0000 0.58310  0.79640  0.11360  Biso   1.000  O
  O38      1.0000 0.58310  0.20360  0.88640  Biso   1.000  O
  O39      1.0000 0.41690  0.79640  0.38640  Biso   1.000  O
  O40      1.0000 0.41690  0.20360  0.61360  Biso   1.000  O
  O41      1.0000 0.85340  0.28300  0.12210  Biso   1.000  O
  O42      1.0000 0.85340  0.71700  0.87790  Biso   1.000  O
  O43      1.0000 0.14660  0.28300  0.37790  Biso   1.000  O
  O44      1.0000 0.14660  0.71700  0.62210  Biso   1.000  O
  O45      1.0000 0.35340  0.78300  0.12210  Biso   1.000  O
  O46      1.0000 0.35340  0.21700  0.87790  Biso   1.000  O
  O47      1.0000 0.64660  0.78300  0.37790  Biso   1.000  O
  O48      1.0000 0.64660  0.21700  0.62210  Biso   1.000  O
  O49      1.0000 0.93060  0.42120  0.20301  Biso   1.000  O
  O50      1.0000 0.93060  0.57880  0.79699  Biso   1.000  O
  O51      1.0000 0.06940  0.42120  0.29699  Biso   1.000  O
  O52      1.0000 0.06940  0.57880  0.70301  Biso   1.000  O
  O53      1.0000 0.43060  0.92120  0.20301  Biso   1.000  O
  O54      1.0000 0.43060  0.07880  0.79699  Biso   1.000  O
  O55      1.0000 0.56940  0.92120  0.29699  Biso   1.000  O
  O56      1.0000 0.56940  0.07880  0.70301  Biso   1.000  O
  O57      1.0000 0.00000  0.22960  0.25000  Biso   1.000  O
  O58      1.0000 0.00000  0.77040  0.75000  Biso   1.000  O
  O59      1.0000 0.50000  0.72960  0.25000  Biso   1.000  O
  O60      1.0000 0.50000  0.27040  0.75000  Biso   1.000  O
