data_image0
_cell_length_a       13.966
_cell_length_b       13.966
_cell_length_c       16.093
_cell_angle_alpha    90
_cell_angle_beta     90
_cell_angle_gamma    120

_symmetry_space_group_name_H-M    "P 1"
_symmetry_int_tables_number       1

loop_
  _symmetry_equiv_pos_as_xyz
  'x, y, z'

loop_
  _atom_site_label
  _atom_site_occupancy
  _atom_site_fract_x
  _atom_site_fract_y
  _atom_site_fract_z
  _atom_site_thermal_displace_type
  _atom_site_B_iso_or_equiv
  _atom_site_type_symbol
  Co1      1.0000 0.27932  0.28202  0.18727  Biso   1.000  Co
  Co2      1.0000 0.99730  0.27932  0.68727  Biso   1.000  Co
  Co3      1.0000 0.71798  0.99730  0.18727  Biso   1.000  Co
  Co4      1.0000 0.72068  0.71798  0.68727  Biso   1.000  Co
  Co5      1.0000 0.00270  0.72068  0.18727  Biso   1.000  Co
  Co6      1.0000 0.28202  0.00270  0.68727  Biso   1.000  Co
  Cu1      1.0000 0.00000  0.00000  0.19141  Biso   1.000  Cu
  Cu2      1.0000 0.00000  0.00000  0.69141  Biso   1.000  Cu
  Cd1      1.0000 0.54271  0.16666  0.37127  Biso   1.000  Cd
  Cd2      1.0000 0.37605  0.54271  0.87127  Biso   1.000  Cd
  Cd3      1.0000 0.83334  0.37605  0.37127  Biso   1.000  Cd
  Cd4      1.0000 0.45729  0.83334  0.87127  Biso   1.000  Cd
  Cd5      1.0000 0.62395  0.45729  0.37127  Biso   1.000  Cd
  Cd6      1.0000 0.16666  0.62395  0.87127  Biso   1.000  Cd
  Cl1      1.0000 0.00000  0.00000  0.04497  Biso   1.000  Cl
  Cl2      1.0000 0.00000  0.00000  0.54497  Biso   1.000  Cl
  Cl3      1.0000 0.66670  0.33330  0.25724  Biso   1.000  Cl
  Cl4      1.0000 0.33340  0.66670  0.75724  Biso   1.000  Cl
  Cl5      1.0000 0.66670  0.33330  0.47457  Biso   1.000  Cl
  Cl6      1.0000 0.33340  0.66670  0.97457  Biso   1.000  Cl
  Cl7      1.0000 0.45541  0.05126  0.24327  Biso   1.000  Cl
  Cl8      1.0000 0.40415  0.45541  0.74327  Biso   1.000  Cl
  Cl9      1.0000 0.94874  0.40415  0.24327  Biso   1.000  Cl
  Cl10     1.0000 0.54459  0.94874  0.74327  Biso   1.000  Cl
  Cl11     1.0000 0.59585  0.54459  0.24327  Biso   1.000  Cl
  Cl12     1.0000 0.05126  0.59585  0.74327  Biso   1.000  Cl
  Cl13     1.0000 0.51435  0.01935  0.47124  Biso   1.000  Cl
  Cl14     1.0000 0.49500  0.51435  0.97124  Biso   1.000  Cl
  Cl15     1.0000 0.98065  0.49500  0.47124  Biso   1.000  Cl
  Cl16     1.0000 0.48565  0.98065  0.97124  Biso   1.000  Cl
  Cl17     1.0000 0.50500  0.48565  0.47124  Biso   1.000  Cl
  Cl18     1.0000 0.01935  0.50500  0.97124  Biso   1.000  Cl
  S1       1.0000 0.17945  0.10952  0.23992  Biso   1.000  S
  S2       1.0000 0.06993  0.17945  0.73992  Biso   1.000  S
  S3       1.0000 0.89048  0.06993  0.23992  Biso   1.000  S
  S4       1.0000 0.82055  0.89048  0.73992  Biso   1.000  S
  S5       1.0000 0.93007  0.82055  0.23992  Biso   1.000  S
  S6       1.0000 0.10952  0.93007  0.73992  Biso   1.000  S
  N1       1.0000 0.31400  0.33440  0.30430  Biso   1.000  N
  N2       1.0000 0.97960  0.31400  0.80430  Biso   1.000  N
  N3       1.0000 0.66560  0.97960  0.30430  Biso   1.000  N
  N4       1.0000 0.68600  0.66560  0.80430  Biso   1.000  N
  N5       1.0000 0.02040  0.68600  0.30430  Biso   1.000  N
  N6       1.0000 0.33440  0.02040  0.80430  Biso   1.000  N
  H1       1.0000 0.38780  0.37730  0.30920  Biso   1.000  H
  H2       1.0000 0.01050  0.38780  0.80920  Biso   1.000  H
  H3       1.0000 0.62270  0.01050  0.30920  Biso   1.000  H
  H4       1.0000 0.61220  0.62270  0.80920  Biso   1.000  H
  H5       1.0000 0.98950  0.61220  0.30920  Biso   1.000  H
  H6       1.0000 0.37730  0.98950  0.80920  Biso   1.000  H
  H7       1.0000 0.28410  0.37710  0.31490  Biso   1.000  H
  H8       1.0000 0.90700  0.28410  0.81490  Biso   1.000  H
  H9       1.0000 0.62290  0.90700  0.31490  Biso   1.000  H
  H10      1.0000 0.71590  0.62290  0.81490  Biso   1.000  H
  H11      1.0000 0.09300  0.71590  0.31490  Biso   1.000  H
  H12      1.0000 0.37710  0.09300  0.81490  Biso   1.000  H
  N7       1.0000 0.25000  0.22350  0.07320  Biso   1.000  N
  N8       1.0000 0.02650  0.25000  0.57320  Biso   1.000  N
  N9       1.0000 0.77650  0.02650  0.07320  Biso   1.000  N
  N10      1.0000 0.75000  0.77650  0.57320  Biso   1.000  N
  N11      1.0000 0.97350  0.75000  0.07320  Biso   1.000  N
  N12      1.0000 0.22350  0.97350  0.57320  Biso   1.000  N
  H13      1.0000 0.17860  0.17060  0.06830  Biso   1.000  H
  H14      1.0000 0.00800  0.17860  0.56830  Biso   1.000  H
  H15      1.0000 0.82940  0.00800  0.06830  Biso   1.000  H
  H16      1.0000 0.82140  0.82940  0.56830  Biso   1.000  H
  H17      1.0000 0.99200  0.82140  0.06830  Biso   1.000  H
  H18      1.0000 0.17060  0.99200  0.56830  Biso   1.000  H
  H19      1.0000 0.26320  0.27800  0.03710  Biso   1.000  H
  H20      1.0000 0.98520  0.26320  0.53710  Biso   1.000  H
  H21      1.0000 0.72200  0.98520  0.03710  Biso   1.000  H
  H22      1.0000 0.73680  0.72200  0.53710  Biso   1.000  H
  H23      1.0000 0.01480  0.73680  0.03710  Biso   1.000  H
  H24      1.0000 0.27800  0.01480  0.53710  Biso   1.000  H
  N13      1.0000 0.41390  0.27040  0.17820  Biso   1.000  N
  N14      1.0000 0.14350  0.41390  0.67820  Biso   1.000  N
  N15      1.0000 0.72960  0.14350  0.17820  Biso   1.000  N
  N16      1.0000 0.58610  0.72960  0.67820  Biso   1.000  N
  N17      1.0000 0.85650  0.58610  0.17820  Biso   1.000  N
  N18      1.0000 0.27040  0.85650  0.67820  Biso   1.000  N
  H25      1.0000 0.47220  0.33280  0.19760  Biso   1.000  H
  H26      1.0000 0.13940  0.47220  0.69760  Biso   1.000  H
  H27      1.0000 0.66720  0.13940  0.19760  Biso   1.000  H
  H28      1.0000 0.52780  0.66720  0.69760  Biso   1.000  H
  H29      1.0000 0.86060  0.52780  0.19760  Biso   1.000  H
  H30      1.0000 0.33280  0.86060  0.69760  Biso   1.000  H
  H31      1.0000 0.40630  0.21360  0.20950  Biso   1.000  H
  H32      1.0000 0.19270  0.40630  0.70950  Biso   1.000  H
  H33      1.0000 0.78640  0.19270  0.20950  Biso   1.000  H
  H34      1.0000 0.59370  0.78640  0.70950  Biso   1.000  H
  H35      1.0000 0.80730  0.59370  0.20950  Biso   1.000  H
  H36      1.0000 0.21360  0.80730  0.70950  Biso   1.000  H
  N19      1.0000 0.14880  0.30060  0.18460  Biso   1.000  N
  N20      1.0000 0.84820  0.14880  0.68460  Biso   1.000  N
  N21      1.0000 0.69940  0.84820  0.18460  Biso   1.000  N
  N22      1.0000 0.85120  0.69940  0.68460  Biso   1.000  N
  N23      1.0000 0.15180  0.85120  0.18460  Biso   1.000  N
  N24      1.0000 0.30060  0.15180  0.68460  Biso   1.000  N
  H37      1.0000 0.09020  0.23850  0.16520  Biso   1.000  H
  H38      1.0000 0.85170  0.09020  0.66520  Biso   1.000  H
  H39      1.0000 0.76150  0.85170  0.16520  Biso   1.000  H
  H40      1.0000 0.90980  0.76150  0.66520  Biso   1.000  H
  H41      1.0000 0.14830  0.90980  0.16520  Biso   1.000  H
  H42      1.0000 0.23850  0.14830  0.66520  Biso   1.000  H
  H43      1.0000 0.13300  0.31280  0.23640  Biso   1.000  H
  H44      1.0000 0.82020  0.13300  0.73640  Biso   1.000  H
  H45      1.0000 0.68720  0.82020  0.23640  Biso   1.000  H
  H46      1.0000 0.86700  0.68720  0.73640  Biso   1.000  H
  H47      1.0000 0.17980  0.86700  0.23640  Biso   1.000  H
  H48      1.0000 0.31280  0.17980  0.73640  Biso   1.000  H
  N25      1.0000 0.35990  0.43810  0.14780  Biso   1.000  N
  N26      1.0000 0.92180  0.35990  0.64780  Biso   1.000  N
  N27      1.0000 0.56190  0.92180  0.14780  Biso   1.000  N
  N28      1.0000 0.64010  0.56190  0.64780  Biso   1.000  N
  N29      1.0000 0.07820  0.64010  0.14780  Biso   1.000  N
  N30      1.0000 0.43810  0.07820  0.64780  Biso   1.000  N
  H49      1.0000 0.41930  0.47840  0.18030  Biso   1.000  H
  H50      1.0000 0.94090  0.41930  0.68030  Biso   1.000  H
  H51      1.0000 0.52160  0.94090  0.18030  Biso   1.000  H
  H52      1.0000 0.58070  0.52160  0.68030  Biso   1.000  H
  H53      1.0000 0.05910  0.58070  0.18030  Biso   1.000  H
  H54      1.0000 0.47840  0.05910  0.68030  Biso   1.000  H
  H55      1.0000 0.38360  0.44080  0.09540  Biso   1.000  H
  H56      1.0000 0.94280  0.38360  0.59540  Biso   1.000  H
  H57      1.0000 0.55920  0.94280  0.09540  Biso   1.000  H
  H58      1.0000 0.61640  0.55920  0.59540  Biso   1.000  H
  H59      1.0000 0.05720  0.61640  0.09540  Biso   1.000  H
  H60      1.0000 0.44080  0.05720  0.59540  Biso   1.000  H
  O1       1.0000 0.45410  0.26600  0.35327  Biso   1.000  O
  O2       1.0000 0.18810  0.45410  0.85327  Biso   1.000  O
  O3       1.0000 0.73400  0.18810  0.35327  Biso   1.000  O
  O4       1.0000 0.54590  0.73400  0.85327  Biso   1.000  O
  O5       1.0000 0.81190  0.54590  0.35327  Biso   1.000  O
  O6       1.0000 0.26600  0.81190  0.85327  Biso   1.000  O
  O7       1.0000 0.32910  0.12280  0.42580  Biso   1.000  O
  O8       1.0000 0.20630  0.32910  0.92580  Biso   1.000  O
  O9       1.0000 0.87720  0.20630  0.42580  Biso   1.000  O
  O10      1.0000 0.67090  0.87720  0.92580  Biso   1.000  O
  O11      1.0000 0.79370  0.67090  0.42580  Biso   1.000  O
  O12      1.0000 0.12280  0.79370  0.92580  Biso   1.000  O
  C1       1.0000 0.16310  0.15200  0.34410  Biso   1.000  C
  C2       1.0000 0.01110  0.16310  0.84410  Biso   1.000  C
  C3       1.0000 0.84800  0.01110  0.34410  Biso   1.000  C
  C4       1.0000 0.83690  0.84800  0.84410  Biso   1.000  C
  C5       1.0000 0.98890  0.83690  0.34410  Biso   1.000  C
  C6       1.0000 0.15200  0.98890  0.84410  Biso   1.000  C
  H61      1.0000 0.10860  0.17560  0.34360  Biso   1.000  H
  H62      1.0000 0.93300  0.10860  0.84360  Biso   1.000  H
  H63      1.0000 0.82440  0.93300  0.34360  Biso   1.000  H
  H64      1.0000 0.89140  0.82440  0.84360  Biso   1.000  H
  H65      1.0000 0.06700  0.89140  0.34360  Biso   1.000  H
  H66      1.0000 0.17560  0.06700  0.84360  Biso   1.000  H
  H67      1.0000 0.13930  0.09100  0.38290  Biso   1.000  H
  H68      1.0000 0.04830  0.13930  0.88290  Biso   1.000  H
  H69      1.0000 0.90900  0.04830  0.38290  Biso   1.000  H
  H70      1.0000 0.86070  0.90900  0.88290  Biso   1.000  H
  H71      1.0000 0.95170  0.86070  0.38290  Biso   1.000  H
  H72      1.0000 0.09100  0.95170  0.88290  Biso   1.000  H
  C7       1.0000 0.27490  0.24650  0.36890  Biso   1.000  C
  C8       1.0000 0.02840  0.27490  0.86890  Biso   1.000  C
  C9       1.0000 0.75350  0.02840  0.36890  Biso   1.000  C
  C10      1.0000 0.72510  0.75350  0.86890  Biso   1.000  C
  C11      1.0000 0.97160  0.72510  0.36890  Biso   1.000  C
  C12      1.0000 0.24650  0.97160  0.86890  Biso   1.000  C
  H73      1.0000 0.26560  0.27770  0.42080  Biso   1.000  H
  H74      1.0000 0.98790  0.26560  0.92080  Biso   1.000  H
  H75      1.0000 0.72230  0.98790  0.42080  Biso   1.000  H
  H76      1.0000 0.73440  0.72230  0.92080  Biso   1.000  H
  H77      1.0000 0.01210  0.73440  0.42080  Biso   1.000  H
  H78      1.0000 0.27770  0.01210  0.92080  Biso   1.000  H
  C13      1.0000 0.35920  0.20830  0.38500  Biso   1.000  C
  C14      1.0000 0.15090  0.35920  0.88500  Biso   1.000  C
  C15      1.0000 0.79170  0.15090  0.38500  Biso   1.000  C
  C16      1.0000 0.64080  0.79170  0.88500  Biso   1.000  C
  C17      1.0000 0.84910  0.64080  0.38500  Biso   1.000  C
  C18      1.0000 0.20830  0.84910  0.88500  Biso   1.000  C
  C19      1.0000 0.32240  0.17680  0.05370  Biso   1.000  C
  C20      1.0000 0.14560  0.32240  0.55370  Biso   1.000  C
  C21      1.0000 0.82320  0.14560  0.05370  Biso   1.000  C
  C22      1.0000 0.67760  0.82320  0.55370  Biso   1.000  C
  C23      1.0000 0.85440  0.67760  0.05370  Biso   1.000  C
  C24      1.0000 0.17680  0.85440  0.55370  Biso   1.000  C
  H79      1.0000 0.32900  0.17230  0.99400  Biso   1.000  H
  H80      1.0000 0.15670  0.32900  0.49400  Biso   1.000  H
  H81      1.0000 0.82770  0.15670  0.99400  Biso   1.000  H
  H82      1.0000 0.67100  0.82770  0.49400  Biso   1.000  H
  H83      1.0000 0.84330  0.67100  0.99400  Biso   1.000  H
  H84      1.0000 0.17230  0.84330  0.49400  Biso   1.000  H
  H85      1.0000 0.29150  0.10310  0.07680  Biso   1.000  H
  H86      1.0000 0.18840  0.29150  0.57680  Biso   1.000  H
  H87      1.0000 0.89690  0.18840  0.07680  Biso   1.000  H
  H88      1.0000 0.70850  0.89690  0.57680  Biso   1.000  H
  H89      1.0000 0.81160  0.70850  0.07680  Biso   1.000  H
  H90      1.0000 0.10310  0.81160  0.57680  Biso   1.000  H
  C25      1.0000 0.43440  0.25310  0.09160  Biso   1.000  C
  C26      1.0000 0.18130  0.43440  0.59160  Biso   1.000  C
  C27      1.0000 0.74690  0.18130  0.09160  Biso   1.000  C
  C28      1.0000 0.56560  0.74690  0.59160  Biso   1.000  C
  C29      1.0000 0.81870  0.56560  0.09160  Biso   1.000  C
  C30      1.0000 0.25310  0.81870  0.59160  Biso   1.000  C
  H91      1.0000 0.48090  0.21980  0.08920  Biso   1.000  H
  H92      1.0000 0.26110  0.48090  0.58920  Biso   1.000  H
  H93      1.0000 0.78020  0.26110  0.08920  Biso   1.000  H
  H94      1.0000 0.51910  0.78020  0.58920  Biso   1.000  H
  H95      1.0000 0.73890  0.51910  0.08920  Biso   1.000  H
  H96      1.0000 0.21980  0.73890  0.58920  Biso   1.000  H
  H97      1.0000 0.47110  0.32300  0.06200  Biso   1.000  H
  H98      1.0000 0.14810  0.47110  0.56200  Biso   1.000  H
  H99      1.0000 0.67700  0.14810  0.06200  Biso   1.000  H
  H100     1.0000 0.52890  0.67700  0.56200  Biso   1.000  H
  H101     1.0000 0.85190  0.52890  0.06200  Biso   1.000  H
  H102     1.0000 0.32300  0.85190  0.56200  Biso   1.000  H
  C31      1.0000 0.17020  0.39470  0.13050  Biso   1.000  C
  C32      1.0000 0.77550  0.17020  0.63050  Biso   1.000  C
  C33      1.0000 0.60530  0.77550  0.13050  Biso   1.000  C
  C34      1.0000 0.82980  0.60530  0.63050  Biso   1.000  C
  C35      1.0000 0.22450  0.82980  0.13050  Biso   1.000  C
  C36      1.0000 0.39470  0.22450  0.63050  Biso   1.000  C
  H103     1.0000 0.11690  0.41850  0.14120  Biso   1.000  H
  H104     1.0000 0.69840  0.11690  0.64120  Biso   1.000  H
  H105     1.0000 0.58150  0.69840  0.14120  Biso   1.000  H
  H106     1.0000 0.88310  0.58150  0.64120  Biso   1.000  H
  H107     1.0000 0.30160  0.88310  0.14120  Biso   1.000  H
  H108     1.0000 0.41850  0.30160  0.64120  Biso   1.000  H
  H109     1.0000 0.16540  0.37410  0.07250  Biso   1.000  H
  H110     1.0000 0.79130  0.16540  0.57250  Biso   1.000  H
  H111     1.0000 0.62590  0.79130  0.07250  Biso   1.000  H
  H112     1.0000 0.83460  0.62590  0.57250  Biso   1.000  H
  H113     1.0000 0.20870  0.83460  0.07250  Biso   1.000  H
  H114     1.0000 0.37410  0.20870  0.57250  Biso   1.000  H
  C37      1.0000 0.28420  0.48470  0.15110  Biso   1.000  C
  C38      1.0000 0.79950  0.28420  0.65110  Biso   1.000  C
  C39      1.0000 0.51530  0.79950  0.15110  Biso   1.000  C
  C40      1.0000 0.71580  0.51530  0.65110  Biso   1.000  C
  C41      1.0000 0.20050  0.71580  0.15110  Biso   1.000  C
  C42      1.0000 0.48470  0.20050  0.65110  Biso   1.000  C
  H115     1.0000 0.28550  0.51340  0.20620  Biso   1.000  H
  H116     1.0000 0.77210  0.28550  0.70620  Biso   1.000  H
  H117     1.0000 0.48660  0.77210  0.20620  Biso   1.000  H
  H118     1.0000 0.71450  0.48660  0.70620  Biso   1.000  H
  H119     1.0000 0.22790  0.71450  0.20620  Biso   1.000  H
  H120     1.0000 0.51340  0.22790  0.70620  Biso   1.000  H
  H121     1.0000 0.30800  0.54470  0.11150  Biso   1.000  H
  H122     1.0000 0.76330  0.30800  0.61150  Biso   1.000  H
  H123     1.0000 0.45530  0.76330  0.11150  Biso   1.000  H
  H124     1.0000 0.69200  0.45530  0.61150  Biso   1.000  H
  H125     1.0000 0.23670  0.69200  0.11150  Biso   1.000  H
  H126     1.0000 0.54470  0.23670  0.61150  Biso   1.000  H
  Cl19     1.0000 0.33330  0.66670  0.35400  Biso   1.000  Cl
  Cl20     1.0000 0.66660  0.33330  0.85400  Biso   1.000  Cl
  O13      1.0000 0.13470  0.38520  0.35550  Biso   1.000  O
  O14      1.0000 0.74950  0.13470  0.85550  Biso   1.000  O
  O15      1.0000 0.61480  0.74950  0.35550  Biso   1.000  O
  O16      1.0000 0.86530  0.61480  0.85550  Biso   1.000  O
  O17      1.0000 0.25050  0.86530  0.35550  Biso   1.000  O
  O18      1.0000 0.38520  0.25050  0.85550  Biso   1.000  O
  Cl21     1.0000 0.36650  0.59160  0.34960  Biso   1.000  Cl
  Cl22     1.0000 0.77490  0.36650  0.84960  Biso   1.000  Cl
  Cl23     1.0000 0.40840  0.77490  0.34960  Biso   1.000  Cl
  Cl24     1.0000 0.63350  0.40840  0.84960  Biso   1.000  Cl
  Cl25     1.0000 0.22510  0.63350  0.34960  Biso   1.000  Cl
  Cl26     1.0000 0.59160  0.22510  0.84960  Biso   1.000  Cl
