data_image0
_cell_length_a       13.9575
_cell_length_b       13.9575
_cell_length_c       16.1626
_cell_angle_alpha    90
_cell_angle_beta     90
_cell_angle_gamma    120

_symmetry_space_group_name_H-M    "P 1"
_symmetry_int_tables_number       1

loop_
  _symmetry_equiv_pos_as_xyz
  'x, y, z'

loop_
  _atom_site_label
  _atom_site_occupancy
  _atom_site_fract_x
  _atom_site_fract_y
  _atom_site_fract_z
  _atom_site_thermal_displace_type
  _atom_site_B_iso_or_equiv
  _atom_site_type_symbol
  Co1      1.0000 0.71761  0.72016  0.23256  Biso   1.000  Co
  Co2      1.0000 0.99745  0.71761  0.73256  Biso   1.000  Co
  Co3      1.0000 0.27984  0.99745  0.23256  Biso   1.000  Co
  Co4      1.0000 0.28239  0.27984  0.73256  Biso   1.000  Co
  Co5      1.0000 0.00255  0.28239  0.23256  Biso   1.000  Co
  Co6      1.0000 0.72016  0.00255  0.73256  Biso   1.000  Co
  Cu1      1.0000 0.00000  0.00000  0.23058  Biso   1.000  Cu
  Cu2      1.0000 0.00000  0.00000  0.73058  Biso   1.000  Cu
  Cd1      1.0000 0.83420  0.45861  0.04771  Biso   1.000  Cd
  Cd2      1.0000 0.37559  0.83420  0.54771  Biso   1.000  Cd
  Cd3      1.0000 0.54139  0.37559  0.04771  Biso   1.000  Cd
  Cd4      1.0000 0.16580  0.54139  0.54771  Biso   1.000  Cd
  Cd5      1.0000 0.62441  0.16580  0.04771  Biso   1.000  Cd
  Cd6      1.0000 0.45861  0.62441  0.54771  Biso   1.000  Cd
  Cl1      1.0000 0.00000  0.00000  0.37600  Biso   1.000  Cl
  Cl2      1.0000 0.00000  0.00000  0.87600  Biso   1.000  Cl
  Cl3      1.0000 0.66670  0.33330  0.16010  Biso   1.000  Cl
  Cl4      1.0000 0.33340  0.66670  0.66010  Biso   1.000  Cl
  Cl5      1.0000 0.66670  0.33330  0.94510  Biso   1.000  Cl
  Cl6      1.0000 0.33340  0.66670  0.44510  Biso   1.000  Cl
  Cl7      1.0000 0.94833  0.54373  0.17678  Biso   1.000  Cl
  Cl8      1.0000 0.40460  0.94833  0.67678  Biso   1.000  Cl
  Cl9      1.0000 0.45627  0.40460  0.17678  Biso   1.000  Cl
  Cl10     1.0000 0.05167  0.45627  0.67678  Biso   1.000  Cl
  Cl11     1.0000 0.59540  0.05167  0.17678  Biso   1.000  Cl
  Cl12     1.0000 0.54373  0.59540  0.67678  Biso   1.000  Cl
  Cl13     1.0000 0.98040  0.48740  0.94801  Biso   1.000  Cl
  Cl14     1.0000 0.49300  0.98040  0.44801  Biso   1.000  Cl
  Cl15     1.0000 0.51260  0.49300  0.94801  Biso   1.000  Cl
  Cl16     1.0000 0.01960  0.51260  0.44801  Biso   1.000  Cl
  Cl17     1.0000 0.50700  0.01960  0.94801  Biso   1.000  Cl
  Cl18     1.0000 0.48740  0.50700  0.44801  Biso   1.000  Cl
  S1       1.0000 0.89086  0.82065  0.18086  Biso   1.000  S
  S2       1.0000 0.07021  0.89086  0.68086  Biso   1.000  S
  S3       1.0000 0.17935  0.07021  0.18086  Biso   1.000  S
  S4       1.0000 0.10914  0.17935  0.68086  Biso   1.000  S
  S5       1.0000 0.92979  0.10914  0.18086  Biso   1.000  S
  S6       1.0000 0.82065  0.92979  0.68086  Biso   1.000  S
  N1       1.0000 0.66570  0.68760  0.11530  Biso   1.000  N
  N2       1.0000 0.97810  0.66570  0.61530  Biso   1.000  N
  N3       1.0000 0.31240  0.97810  0.11530  Biso   1.000  N
  N4       1.0000 0.33430  0.31240  0.61530  Biso   1.000  N
  N5       1.0000 0.02190  0.33430  0.11530  Biso   1.000  N
  N6       1.0000 0.68760  0.02190  0.61530  Biso   1.000  N
  H1       1.0000 0.62190  0.61400  0.10990  Biso   1.000  H
  H2       1.0000 0.00790  0.62190  0.60990  Biso   1.000  H
  H3       1.0000 0.38600  0.00790  0.10990  Biso   1.000  H
  H4       1.0000 0.37810  0.38600  0.60990  Biso   1.000  H
  H5       1.0000 0.99210  0.37810  0.10990  Biso   1.000  H
  H6       1.0000 0.61400  0.99210  0.60990  Biso   1.000  H
  H7       1.0000 0.62380  0.71870  0.10510  Biso   1.000  H
  H8       1.0000 0.90510  0.62380  0.60510  Biso   1.000  H
  H9       1.0000 0.28130  0.90510  0.10510  Biso   1.000  H
  H10      1.0000 0.37620  0.28130  0.60510  Biso   1.000  H
  H11      1.0000 0.09490  0.37620  0.10510  Biso   1.000  H
  H12      1.0000 0.71870  0.09490  0.60510  Biso   1.000  H
  N7       1.0000 0.77600  0.74580  0.34700  Biso   1.000  N
  N8       1.0000 0.03020  0.77600  0.84700  Biso   1.000  N
  N9       1.0000 0.25420  0.03020  0.34700  Biso   1.000  N
  N10      1.0000 0.22400  0.25420  0.84700  Biso   1.000  N
  N11      1.0000 0.96980  0.22400  0.34700  Biso   1.000  N
  N12      1.0000 0.74580  0.96980  0.84700  Biso   1.000  N
  H13      1.0000 0.83000  0.81660  0.35300  Biso   1.000  H
  H14      1.0000 0.01340  0.83000  0.85300  Biso   1.000  H
  H15      1.0000 0.18340  0.01340  0.35300  Biso   1.000  H
  H16      1.0000 0.17000  0.18340  0.85300  Biso   1.000  H
  H17      1.0000 0.98660  0.17000  0.35300  Biso   1.000  H
  H18      1.0000 0.81660  0.98660  0.85300  Biso   1.000  H
  H19      1.0000 0.72160  0.73220  0.38320  Biso   1.000  H
  H20      1.0000 0.98940  0.72160  0.88320  Biso   1.000  H
  H21      1.0000 0.26780  0.98940  0.38320  Biso   1.000  H
  H22      1.0000 0.27840  0.26780  0.88320  Biso   1.000  H
  H23      1.0000 0.01060  0.27840  0.38320  Biso   1.000  H
  H24      1.0000 0.73220  0.01060  0.88320  Biso   1.000  H
  N13      1.0000 0.72750  0.58590  0.24060  Biso   1.000  N
  N14      1.0000 0.14160  0.72750  0.74060  Biso   1.000  N
  N15      1.0000 0.41410  0.14160  0.24060  Biso   1.000  N
  N16      1.0000 0.27250  0.41410  0.74060  Biso   1.000  N
  N17      1.0000 0.85840  0.27250  0.24060  Biso   1.000  N
  N18      1.0000 0.58590  0.85840  0.74060  Biso   1.000  N
  H25      1.0000 0.66440  0.52800  0.22180  Biso   1.000  H
  H26      1.0000 0.13640  0.66440  0.72180  Biso   1.000  H
  H27      1.0000 0.47200  0.13640  0.22180  Biso   1.000  H
  H28      1.0000 0.33560  0.47200  0.72180  Biso   1.000  H
  H29      1.0000 0.86360  0.33560  0.22180  Biso   1.000  H
  H30      1.0000 0.52800  0.86360  0.72180  Biso   1.000  H
  H31      1.0000 0.78340  0.59280  0.20860  Biso   1.000  H
  H32      1.0000 0.19060  0.78340  0.70860  Biso   1.000  H
  H33      1.0000 0.40720  0.19060  0.20860  Biso   1.000  H
  H34      1.0000 0.21660  0.40720  0.70860  Biso   1.000  H
  H35      1.0000 0.80940  0.21660  0.20860  Biso   1.000  H
  H36      1.0000 0.59280  0.80940  0.70860  Biso   1.000  H
  N19      1.0000 0.70080  0.85240  0.23730  Biso   1.000  N
  N20      1.0000 0.84840  0.70080  0.73730  Biso   1.000  N
  N21      1.0000 0.14760  0.84840  0.23730  Biso   1.000  N
  N22      1.0000 0.29920  0.14760  0.73730  Biso   1.000  N
  N23      1.0000 0.15160  0.29920  0.23730  Biso   1.000  N
  N24      1.0000 0.85240  0.15160  0.73730  Biso   1.000  N
  H37      1.0000 0.76290  0.91030  0.25740  Biso   1.000  H
  H38      1.0000 0.85260  0.76290  0.75740  Biso   1.000  H
  H39      1.0000 0.08970  0.85260  0.25740  Biso   1.000  H
  H40      1.0000 0.23710  0.08970  0.75740  Biso   1.000  H
  H41      1.0000 0.14740  0.23710  0.25740  Biso   1.000  H
  H42      1.0000 0.91030  0.14740  0.75740  Biso   1.000  H
  H43      1.0000 0.68890  0.86990  0.18610  Biso   1.000  H
  H44      1.0000 0.81900  0.68890  0.68610  Biso   1.000  H
  H45      1.0000 0.13010  0.81900  0.18610  Biso   1.000  H
  H46      1.0000 0.31110  0.13010  0.68610  Biso   1.000  H
  H47      1.0000 0.18100  0.31110  0.18610  Biso   1.000  H
  H48      1.0000 0.86990  0.18100  0.68610  Biso   1.000  H
  N25      1.0000 0.56040  0.64030  0.27160  Biso   1.000  N
  N26      1.0000 0.92010  0.56040  0.77160  Biso   1.000  N
  N27      1.0000 0.35970  0.92010  0.27160  Biso   1.000  N
  N28      1.0000 0.43960  0.35970  0.77160  Biso   1.000  N
  N29      1.0000 0.07990  0.43960  0.27160  Biso   1.000  N
  N30      1.0000 0.64030  0.07990  0.77160  Biso   1.000  N
  H49      1.0000 0.51930  0.58250  0.23820  Biso   1.000  H
  H50      1.0000 0.93680  0.51930  0.73820  Biso   1.000  H
  H51      1.0000 0.41750  0.93680  0.23820  Biso   1.000  H
  H52      1.0000 0.48070  0.41750  0.73820  Biso   1.000  H
  H53      1.0000 0.06320  0.48070  0.23820  Biso   1.000  H
  H54      1.0000 0.58250  0.06320  0.73820  Biso   1.000  H
  H55      1.0000 0.55690  0.61450  0.32320  Biso   1.000  H
  H56      1.0000 0.94240  0.55690  0.82320  Biso   1.000  H
  H57      1.0000 0.38550  0.94240  0.32320  Biso   1.000  H
  H58      1.0000 0.44310  0.38550  0.82320  Biso   1.000  H
  H59      1.0000 0.05760  0.44310  0.32320  Biso   1.000  H
  H60      1.0000 0.61450  0.05760  0.82320  Biso   1.000  H
  O1       1.0000 0.73440  0.54740  0.06540  Biso   1.000  O
  O2       1.0000 0.18700  0.73440  0.56540  Biso   1.000  O
  O3       1.0000 0.45260  0.18700  0.06540  Biso   1.000  O
  O4       1.0000 0.26560  0.45260  0.56540  Biso   1.000  O
  O5       1.0000 0.81300  0.26560  0.06540  Biso   1.000  O
  O6       1.0000 0.54740  0.81300  0.56540  Biso   1.000  O
  O7       1.0000 0.88040  0.67560  0.99640  Biso   1.000  O
  O8       1.0000 0.20480  0.88040  0.49640  Biso   1.000  O
  O9       1.0000 0.32440  0.20480  0.99640  Biso   1.000  O
  O10      1.0000 0.11960  0.32440  0.49640  Biso   1.000  O
  O11      1.0000 0.79520  0.11960  0.99640  Biso   1.000  O
  O12      1.0000 0.67560  0.79520  0.49640  Biso   1.000  O
  C1       1.0000 0.84950  0.83910  0.07810  Biso   1.000  C
  C2       1.0000 0.01040  0.84950  0.57810  Biso   1.000  C
  C3       1.0000 0.16090  0.01040  0.07810  Biso   1.000  C
  C4       1.0000 0.15050  0.16090  0.57810  Biso   1.000  C
  C5       1.0000 0.98960  0.15050  0.07810  Biso   1.000  C
  C6       1.0000 0.83910  0.98960  0.57810  Biso   1.000  C
  H61      1.0000 0.82560  0.89340  0.07950  Biso   1.000  H
  H62      1.0000 0.93220  0.82560  0.57950  Biso   1.000  H
  H63      1.0000 0.10660  0.93220  0.07950  Biso   1.000  H
  H64      1.0000 0.17440  0.10660  0.57950  Biso   1.000  H
  H65      1.0000 0.06780  0.17440  0.07950  Biso   1.000  H
  H66      1.0000 0.89340  0.06780  0.57950  Biso   1.000  H
  H67      1.0000 0.91120  0.86460  0.04000  Biso   1.000  H
  H68      1.0000 0.04660  0.91120  0.54000  Biso   1.000  H
  H69      1.0000 0.13540  0.04660  0.04000  Biso   1.000  H
  H70      1.0000 0.08880  0.13540  0.54000  Biso   1.000  H
  H71      1.0000 0.95340  0.08880  0.04000  Biso   1.000  H
  H72      1.0000 0.86460  0.95340  0.54000  Biso   1.000  H
  C7       1.0000 0.75440  0.72670  0.05040  Biso   1.000  C
  C8       1.0000 0.02770  0.75440  0.55040  Biso   1.000  C
  C9       1.0000 0.27330  0.02770  0.05040  Biso   1.000  C
  C10      1.0000 0.24560  0.27330  0.55040  Biso   1.000  C
  C11      1.0000 0.97230  0.24560  0.05040  Biso   1.000  C
  C12      1.0000 0.72670  0.97230  0.55040  Biso   1.000  C
  H73      1.0000 0.72440  0.73700  0.99840  Biso   1.000  H
  H74      1.0000 0.98740  0.72440  0.49840  Biso   1.000  H
  H75      1.0000 0.26300  0.98740  0.99840  Biso   1.000  H
  H76      1.0000 0.27560  0.26300  0.49840  Biso   1.000  H
  H77      1.0000 0.01260  0.27560  0.99840  Biso   1.000  H
  H78      1.0000 0.73700  0.01260  0.49840  Biso   1.000  H
  C13      1.0000 0.79310  0.64390  0.03550  Biso   1.000  C
  C14      1.0000 0.14920  0.79310  0.53550  Biso   1.000  C
  C15      1.0000 0.35610  0.14920  0.03550  Biso   1.000  C
  C16      1.0000 0.20690  0.35610  0.53550  Biso   1.000  C
  C17      1.0000 0.85080  0.20690  0.03550  Biso   1.000  C
  C18      1.0000 0.64390  0.85080  0.53550  Biso   1.000  C
  C19      1.0000 0.82070  0.66980  0.36320  Biso   1.000  C
  C20      1.0000 0.15090  0.82070  0.86320  Biso   1.000  C
  C21      1.0000 0.33020  0.15090  0.36320  Biso   1.000  C
  C22      1.0000 0.17930  0.33020  0.86320  Biso   1.000  C
  C23      1.0000 0.84910  0.17930  0.36320  Biso   1.000  C
  C24      1.0000 0.66980  0.84910  0.86320  Biso   1.000  C
  H79      1.0000 0.89410  0.70010  0.33960  Biso   1.000  H
  H80      1.0000 0.19400  0.89410  0.83960  Biso   1.000  H
  H81      1.0000 0.29990  0.19400  0.33960  Biso   1.000  H
  H82      1.0000 0.10590  0.29990  0.83960  Biso   1.000  H
  H83      1.0000 0.80600  0.10590  0.33960  Biso   1.000  H
  H84      1.0000 0.70010  0.80600  0.83960  Biso   1.000  H
  H85      1.0000 0.82560  0.66080  0.42230  Biso   1.000  H
  H86      1.0000 0.16480  0.82560  0.92230  Biso   1.000  H
  H87      1.0000 0.33920  0.16480  0.42230  Biso   1.000  H
  H88      1.0000 0.17440  0.33920  0.92230  Biso   1.000  H
  H89      1.0000 0.83520  0.17440  0.42230  Biso   1.000  H
  H90      1.0000 0.66080  0.83520  0.92230  Biso   1.000  H
  C25      1.0000 0.74620  0.56480  0.32570  Biso   1.000  C
  C26      1.0000 0.18140  0.74620  0.82570  Biso   1.000  C
  C27      1.0000 0.43520  0.18140  0.32570  Biso   1.000  C
  C28      1.0000 0.25380  0.43520  0.82570  Biso   1.000  C
  C29      1.0000 0.81860  0.25380  0.32570  Biso   1.000  C
  C30      1.0000 0.56480  0.81860  0.82570  Biso   1.000  C
  H91      1.0000 0.67670  0.52850  0.35570  Biso   1.000  H
  H92      1.0000 0.14820  0.67670  0.85570  Biso   1.000  H
  H93      1.0000 0.47150  0.14820  0.35570  Biso   1.000  H
  H94      1.0000 0.32330  0.47150  0.85570  Biso   1.000  H
  H95      1.0000 0.85180  0.32330  0.35570  Biso   1.000  H
  H96      1.0000 0.52850  0.85180  0.85570  Biso   1.000  H
  H97      1.0000 0.77820  0.51710  0.32670  Biso   1.000  H
  H98      1.0000 0.26110  0.77820  0.82670  Biso   1.000  H
  H99      1.0000 0.48290  0.26110  0.32670  Biso   1.000  H
  H100     1.0000 0.22180  0.48290  0.82670  Biso   1.000  H
  H101     1.0000 0.73890  0.22180  0.32670  Biso   1.000  H
  H102     1.0000 0.51710  0.73890  0.82670  Biso   1.000  H
  C31      1.0000 0.60530  0.82790  0.29180  Biso   1.000  C
  C32      1.0000 0.77740  0.60530  0.79180  Biso   1.000  C
  C33      1.0000 0.17210  0.77740  0.29180  Biso   1.000  C
  C34      1.0000 0.39470  0.17210  0.79180  Biso   1.000  C
  C35      1.0000 0.22260  0.39470  0.29180  Biso   1.000  C
  C36      1.0000 0.82790  0.22260  0.79180  Biso   1.000  C
  H103     1.0000 0.62590  0.83080  0.34950  Biso   1.000  H
  H104     1.0000 0.79510  0.62590  0.84950  Biso   1.000  H
  H105     1.0000 0.16920  0.79510  0.34950  Biso   1.000  H
  H106     1.0000 0.37410  0.16920  0.84950  Biso   1.000  H
  H107     1.0000 0.20490  0.37410  0.34950  Biso   1.000  H
  H108     1.0000 0.83080  0.20490  0.84950  Biso   1.000  H
  H109     1.0000 0.58170  0.88180  0.28300  Biso   1.000  H
  H110     1.0000 0.69990  0.58170  0.78300  Biso   1.000  H
  H111     1.0000 0.11820  0.69990  0.28300  Biso   1.000  H
  H112     1.0000 0.41830  0.11820  0.78300  Biso   1.000  H
  H113     1.0000 0.30010  0.41830  0.28300  Biso   1.000  H
  H114     1.0000 0.88180  0.30010  0.78300  Biso   1.000  H
  C37      1.0000 0.51700  0.71820  0.27090  Biso   1.000  C
  C38      1.0000 0.79880  0.51700  0.77090  Biso   1.000  C
  C39      1.0000 0.28180  0.79880  0.27090  Biso   1.000  C
  C40      1.0000 0.48300  0.28180  0.77090  Biso   1.000  C
  C41      1.0000 0.20120  0.48300  0.27090  Biso   1.000  C
  C42      1.0000 0.71820  0.20120  0.77090  Biso   1.000  C
  H115     1.0000 0.48820  0.71890  0.21640  Biso   1.000  H
  H116     1.0000 0.76930  0.48820  0.71640  Biso   1.000  H
  H117     1.0000 0.28110  0.76930  0.21640  Biso   1.000  H
  H118     1.0000 0.51180  0.28110  0.71640  Biso   1.000  H
  H119     1.0000 0.23070  0.51180  0.21640  Biso   1.000  H
  H120     1.0000 0.71890  0.23070  0.71640  Biso   1.000  H
  H121     1.0000 0.45730  0.69430  0.31060  Biso   1.000  H
  H122     1.0000 0.76300  0.45730  0.81060  Biso   1.000  H
  H123     1.0000 0.30570  0.76300  0.31060  Biso   1.000  H
  H124     1.0000 0.54270  0.30570  0.81060  Biso   1.000  H
  H125     1.0000 0.23700  0.54270  0.31060  Biso   1.000  H
  H126     1.0000 0.69430  0.23700  0.81060  Biso   1.000  H
  Cl19     1.0000 0.33330  0.66670  0.05120  Biso   1.000  Cl
  Cl20     1.0000 0.66660  0.33330  0.55120  Biso   1.000  Cl
  O13      1.0000 0.33330  0.66670  0.96980  Biso   1.000  O
  O14      1.0000 0.66660  0.33330  0.46980  Biso   1.000  O
  O15      1.0000 0.39640  0.61800  0.08650  Biso   1.000  O
  O16      1.0000 0.77840  0.39640  0.58650  Biso   1.000  O
  O17      1.0000 0.38200  0.77840  0.08650  Biso   1.000  O
  O18      1.0000 0.60360  0.38200  0.58650  Biso   1.000  O
  O19      1.0000 0.22160  0.60360  0.08650  Biso   1.000  O
  O20      1.0000 0.61800  0.22160  0.58650  Biso   1.000  O
  O21      1.0000 0.24940  0.37100  0.06420  Biso   1.000  O
  O22      1.0000 0.87840  0.24940  0.56420  Biso   1.000  O
  O23      1.0000 0.62900  0.87840  0.06420  Biso   1.000  O
  O24      1.0000 0.75060  0.62900  0.56420  Biso   1.000  O
  O25      1.0000 0.12160  0.75060  0.06420  Biso   1.000  O
  O26      1.0000 0.37100  0.12160  0.56420  Biso   1.000  O
