data_image0
_cell_length_a       14.0101
_cell_length_b       14.0101
_cell_length_c       16.164
_cell_angle_alpha    90
_cell_angle_beta     90
_cell_angle_gamma    120

_symmetry_space_group_name_H-M    "P 1"
_symmetry_int_tables_number       1

loop_
  _symmetry_equiv_pos_as_xyz
  'x, y, z'

loop_
  _atom_site_label
  _atom_site_occupancy
  _atom_site_fract_x
  _atom_site_fract_y
  _atom_site_fract_z
  _atom_site_thermal_displace_type
  _atom_site_B_iso_or_equiv
  _atom_site_type_symbol
  Co1      1.0000 0.72096  0.71957  0.33381  Biso   1.000  Co
  Co2      1.0000 0.00139  0.72096  0.83381  Biso   1.000  Co
  Co3      1.0000 0.28043  0.00139  0.33381  Biso   1.000  Co
  Co4      1.0000 0.27904  0.28043  0.83381  Biso   1.000  Co
  Co5      1.0000 0.99861  0.27904  0.33381  Biso   1.000  Co
  Co6      1.0000 0.71957  0.99861  0.83381  Biso   1.000  Co
  Cu1      1.0000 0.00000  0.00000  0.33830  Biso   1.000  Cu
  Cu2      1.0000 0.00000  0.00000  0.83830  Biso   1.000  Cu
  Cd1      1.0000 0.45796  0.83403  0.51868  Biso   1.000  Cd
  Cd2      1.0000 0.62393  0.45796  0.01868  Biso   1.000  Cd
  Cd3      1.0000 0.16597  0.62393  0.51868  Biso   1.000  Cd
  Cd4      1.0000 0.54204  0.16597  0.01868  Biso   1.000  Cd
  Cd5      1.0000 0.37607  0.54204  0.51868  Biso   1.000  Cd
  Cd6      1.0000 0.83403  0.37607  0.01868  Biso   1.000  Cd
  Cl1      1.0000 0.00000  0.00000  0.19200  Biso   1.000  Cl
  Cl2      1.0000 0.00000  0.00000  0.69200  Biso   1.000  Cl
  Cl3      1.0000 0.33330  0.66670  0.40600  Biso   1.000  Cl
  Cl4      1.0000 0.66660  0.33330  0.90600  Biso   1.000  Cl
  Cl5      1.0000 0.33330  0.66670  0.62140  Biso   1.000  Cl
  Cl6      1.0000 0.66660  0.33330  0.12140  Biso   1.000  Cl
  Cl7      1.0000 0.54170  0.94870  0.38950  Biso   1.000  Cl
  Cl8      1.0000 0.59300  0.54170  0.88950  Biso   1.000  Cl
  Cl9      1.0000 0.05130  0.59300  0.38950  Biso   1.000  Cl
  Cl10     1.0000 0.45830  0.05130  0.88950  Biso   1.000  Cl
  Cl11     1.0000 0.40700  0.45830  0.38950  Biso   1.000  Cl
  Cl12     1.0000 0.94870  0.40700  0.88950  Biso   1.000  Cl
  Cl13     1.0000 0.48890  0.98150  0.61670  Biso   1.000  Cl
  Cl14     1.0000 0.50740  0.48890  0.11670  Biso   1.000  Cl
  Cl15     1.0000 0.01850  0.50740  0.61670  Biso   1.000  Cl
  Cl16     1.0000 0.51110  0.01850  0.11670  Biso   1.000  Cl
  Cl17     1.0000 0.49260  0.51110  0.61670  Biso   1.000  Cl
  Cl18     1.0000 0.98150  0.49260  0.11670  Biso   1.000  Cl
  S1       1.0000 0.82030  0.89200  0.38620  Biso   1.000  S
  S2       1.0000 0.92830  0.82030  0.88620  Biso   1.000  S
  S3       1.0000 0.10800  0.92830  0.38620  Biso   1.000  S
  S4       1.0000 0.17970  0.10800  0.88620  Biso   1.000  S
  S5       1.0000 0.07170  0.17970  0.38620  Biso   1.000  S
  S6       1.0000 0.89200  0.07170  0.88620  Biso   1.000  S
  O1       1.0000 0.54670  0.73550  0.50030  Biso   1.000  O
  O2       1.0000 0.81120  0.54670  0.00030  Biso   1.000  O
  O3       1.0000 0.26450  0.81120  0.50030  Biso   1.000  O
  O4       1.0000 0.45330  0.26450  0.00030  Biso   1.000  O
  O5       1.0000 0.18880  0.45330  0.50030  Biso   1.000  O
  O6       1.0000 0.73550  0.18880  0.00030  Biso   1.000  O
  O7       1.0000 0.67190  0.87750  0.57230  Biso   1.000  O
  O8       1.0000 0.79440  0.67190  0.07230  Biso   1.000  O
  O9       1.0000 0.12250  0.79440  0.57230  Biso   1.000  O
  O10      1.0000 0.32810  0.12250  0.07230  Biso   1.000  O
  O11      1.0000 0.20560  0.32810  0.57230  Biso   1.000  O
  O12      1.0000 0.87750  0.20560  0.07230  Biso   1.000  O
  N1       1.0000 0.68660  0.66640  0.45010  Biso   1.000  N
  N2       1.0000 0.02020  0.68660  0.95010  Biso   1.000  N
  N3       1.0000 0.33360  0.02020  0.45010  Biso   1.000  N
  N4       1.0000 0.31340  0.33360  0.95010  Biso   1.000  N
  N5       1.0000 0.97980  0.31340  0.45010  Biso   1.000  N
  N6       1.0000 0.66640  0.97980  0.95010  Biso   1.000  N
  H1       1.0000 0.61300  0.62410  0.45500  Biso   1.000  H
  H2       1.0000 0.98890  0.61300  0.95500  Biso   1.000  H
  H3       1.0000 0.37590  0.98890  0.45500  Biso   1.000  H
  H4       1.0000 0.38700  0.37590  0.95500  Biso   1.000  H
  H5       1.0000 0.01110  0.38700  0.45500  Biso   1.000  H
  H6       1.0000 0.62410  0.01110  0.95500  Biso   1.000  H
  H7       1.0000 0.71570  0.62290  0.45980  Biso   1.000  H
  H8       1.0000 0.09280  0.71570  0.95980  Biso   1.000  H
  H9       1.0000 0.37710  0.09280  0.45980  Biso   1.000  H
  H10      1.0000 0.28430  0.37710  0.95980  Biso   1.000  H
  H11      1.0000 0.90720  0.28430  0.45980  Biso   1.000  H
  H12      1.0000 0.62290  0.90720  0.95980  Biso   1.000  H
  N7       1.0000 0.74730  0.77760  0.21990  Biso   1.000  N
  N8       1.0000 0.96970  0.74730  0.71990  Biso   1.000  N
  N9       1.0000 0.22240  0.96970  0.21990  Biso   1.000  N
  N10      1.0000 0.25270  0.22240  0.71990  Biso   1.000  N
  N11      1.0000 0.03030  0.25270  0.21990  Biso   1.000  N
  N12      1.0000 0.77760  0.03030  0.71990  Biso   1.000  N
  H13      1.0000 0.81800  0.83100  0.21430  Biso   1.000  H
  H14      1.0000 0.98700  0.81800  0.71430  Biso   1.000  H
  H15      1.0000 0.16900  0.98700  0.21430  Biso   1.000  H
  H16      1.0000 0.18200  0.16900  0.71430  Biso   1.000  H
  H17      1.0000 0.01300  0.18200  0.21430  Biso   1.000  H
  H18      1.0000 0.83100  0.01300  0.71430  Biso   1.000  H
  H19      1.0000 0.73410  0.72330  0.18390  Biso   1.000  H
  H20      1.0000 0.01080  0.73410  0.68390  Biso   1.000  H
  H21      1.0000 0.27670  0.01080  0.18390  Biso   1.000  H
  H22      1.0000 0.26590  0.27670  0.68390  Biso   1.000  H
  H23      1.0000 0.98920  0.26590  0.18390  Biso   1.000  H
  H24      1.0000 0.72330  0.98920  0.68390  Biso   1.000  H
  N13      1.0000 0.58490  0.72930  0.32660  Biso   1.000  N
  N14      1.0000 0.85560  0.58490  0.82660  Biso   1.000  N
  N15      1.0000 0.27070  0.85560  0.32660  Biso   1.000  N
  N16      1.0000 0.41510  0.27070  0.82660  Biso   1.000  N
  N17      1.0000 0.14440  0.41510  0.32660  Biso   1.000  N
  N18      1.0000 0.72930  0.14440  0.82660  Biso   1.000  N
  H25      1.0000 0.52730  0.66630  0.34540  Biso   1.000  H
  H26      1.0000 0.86100  0.52730  0.84540  Biso   1.000  H
  H27      1.0000 0.33370  0.86100  0.34540  Biso   1.000  H
  H28      1.0000 0.47270  0.33370  0.84540  Biso   1.000  H
  H29      1.0000 0.13900  0.47270  0.34540  Biso   1.000  H
  H30      1.0000 0.66630  0.13900  0.84540  Biso   1.000  H
  H31      1.0000 0.59180  0.78490  0.35860  Biso   1.000  H
  H32      1.0000 0.80690  0.59180  0.85860  Biso   1.000  H
  H33      1.0000 0.21510  0.80690  0.35860  Biso   1.000  H
  H34      1.0000 0.40820  0.21510  0.85860  Biso   1.000  H
  H35      1.0000 0.19310  0.40820  0.35860  Biso   1.000  H
  H36      1.0000 0.78490  0.19310  0.85860  Biso   1.000  H
  N19      1.0000 0.85390  0.70390  0.32890  Biso   1.000  N
  N20      1.0000 0.15000  0.85390  0.82890  Biso   1.000  N
  N21      1.0000 0.29610  0.15000  0.32890  Biso   1.000  N
  N22      1.0000 0.14610  0.29610  0.82890  Biso   1.000  N
  N23      1.0000 0.85000  0.14610  0.32890  Biso   1.000  N
  N24      1.0000 0.70390  0.85000  0.82890  Biso   1.000  N
  H37      1.0000 0.91110  0.76520  0.30770  Biso   1.000  H
  H38      1.0000 0.14590  0.91110  0.80770  Biso   1.000  H
  H39      1.0000 0.23480  0.14590  0.30770  Biso   1.000  H
  H40      1.0000 0.08890  0.23480  0.80770  Biso   1.000  H
  H41      1.0000 0.85410  0.08890  0.30770  Biso   1.000  H
  H42      1.0000 0.76520  0.85410  0.80770  Biso   1.000  H
  H43      1.0000 0.87240  0.69320  0.38000  Biso   1.000  H
  H44      1.0000 0.17920  0.87240  0.88000  Biso   1.000  H
  H45      1.0000 0.30680  0.17920  0.38000  Biso   1.000  H
  H46      1.0000 0.12760  0.30680  0.88000  Biso   1.000  H
  H47      1.0000 0.82080  0.12760  0.38000  Biso   1.000  H
  H48      1.0000 0.69320  0.82080  0.88000  Biso   1.000  H
  N25      1.0000 0.64210  0.56540  0.29470  Biso   1.000  N
  N26      1.0000 0.07670  0.64210  0.79470  Biso   1.000  N
  N27      1.0000 0.43460  0.07670  0.29470  Biso   1.000  N
  N28      1.0000 0.35790  0.43460  0.79470  Biso   1.000  N
  N29      1.0000 0.92330  0.35790  0.29470  Biso   1.000  N
  N30      1.0000 0.56540  0.92330  0.79470  Biso   1.000  N
  H49      1.0000 0.58430  0.52430  0.32800  Biso   1.000  H
  H50      1.0000 0.06000  0.58430  0.82800  Biso   1.000  H
  H51      1.0000 0.47570  0.06000  0.32800  Biso   1.000  H
  H52      1.0000 0.41570  0.47570  0.82800  Biso   1.000  H
  H53      1.0000 0.94000  0.41570  0.32800  Biso   1.000  H
  H54      1.0000 0.52430  0.94000  0.82800  Biso   1.000  H
  H55      1.0000 0.61660  0.56230  0.24310  Biso   1.000  H
  H56      1.0000 0.05430  0.61660  0.74310  Biso   1.000  H
  H57      1.0000 0.43770  0.05430  0.24310  Biso   1.000  H
  H58      1.0000 0.38340  0.43770  0.74310  Biso   1.000  H
  H59      1.0000 0.94570  0.38340  0.24310  Biso   1.000  H
  H60      1.0000 0.56230  0.94570  0.74310  Biso   1.000  H
  C1       1.0000 0.83590  0.84860  0.49020  Biso   1.000  C
  C2       1.0000 0.98730  0.83590  0.99020  Biso   1.000  C
  C3       1.0000 0.15140  0.98730  0.49020  Biso   1.000  C
  C4       1.0000 0.16410  0.15140  0.99020  Biso   1.000  C
  C5       1.0000 0.01270  0.16410  0.49020  Biso   1.000  C
  C6       1.0000 0.84860  0.01270  0.99020  Biso   1.000  C
  H61      1.0000 0.89180  0.82710  0.48970  Biso   1.000  H
  H62      1.0000 0.06470  0.89180  0.98970  Biso   1.000  H
  H63      1.0000 0.17290  0.06470  0.48970  Biso   1.000  H
  H64      1.0000 0.10820  0.17290  0.98970  Biso   1.000  H
  H65      1.0000 0.93530  0.10820  0.48970  Biso   1.000  H
  H66      1.0000 0.82710  0.93530  0.98970  Biso   1.000  H
  H67      1.0000 0.85830  0.90890  0.52900  Biso   1.000  H
  H68      1.0000 0.94940  0.85830  0.02900  Biso   1.000  H
  H69      1.0000 0.09110  0.94940  0.52900  Biso   1.000  H
  H70      1.0000 0.14170  0.09110  0.02900  Biso   1.000  H
  H71      1.0000 0.05060  0.14170  0.52900  Biso   1.000  H
  H72      1.0000 0.90890  0.05060  0.02900  Biso   1.000  H
  C7       1.0000 0.72620  0.75220  0.51570  Biso   1.000  C
  C8       1.0000 0.97400  0.72620  0.01570  Biso   1.000  C
  C9       1.0000 0.24780  0.97400  0.51570  Biso   1.000  C
  C10      1.0000 0.27380  0.24780  0.01570  Biso   1.000  C
  C11      1.0000 0.02600  0.27380  0.51570  Biso   1.000  C
  C12      1.0000 0.75220  0.02600  0.01570  Biso   1.000  C
  H73      1.0000 0.73590  0.72110  0.56720  Biso   1.000  H
  H74      1.0000 0.01480  0.73590  0.06720  Biso   1.000  H
  H75      1.0000 0.27890  0.01480  0.56720  Biso   1.000  H
  H76      1.0000 0.26410  0.27890  0.06720  Biso   1.000  H
  H77      1.0000 0.98520  0.26410  0.56720  Biso   1.000  H
  H78      1.0000 0.72110  0.98520  0.06720  Biso   1.000  H
  C13      1.0000 0.64060  0.79170  0.53090  Biso   1.000  C
  C14      1.0000 0.84890  0.64060  0.03090  Biso   1.000  C
  C15      1.0000 0.20830  0.84890  0.53090  Biso   1.000  C
  C16      1.0000 0.35940  0.20830  0.03090  Biso   1.000  C
  C17      1.0000 0.15110  0.35940  0.53090  Biso   1.000  C
  C18      1.0000 0.79170  0.15110  0.03090  Biso   1.000  C
  C19      1.0000 0.67300  0.82280  0.20160  Biso   1.000  C
  C20      1.0000 0.85020  0.67300  0.70160  Biso   1.000  C
  C21      1.0000 0.17720  0.85020  0.20160  Biso   1.000  C
  C22      1.0000 0.32700  0.17720  0.70160  Biso   1.000  C
  C23      1.0000 0.14980  0.32700  0.20160  Biso   1.000  C
  C24      1.0000 0.82280  0.14980  0.70160  Biso   1.000  C
  H79      1.0000 0.70340  0.89650  0.22440  Biso   1.000  H
  H80      1.0000 0.80690  0.70340  0.72440  Biso   1.000  H
  H81      1.0000 0.10350  0.80690  0.22440  Biso   1.000  H
  H82      1.0000 0.29660  0.10350  0.72440  Biso   1.000  H
  H83      1.0000 0.19310  0.29660  0.22440  Biso   1.000  H
  H84      1.0000 0.89650  0.19310  0.72440  Biso   1.000  H
  H85      1.0000 0.66470  0.82680  0.14230  Biso   1.000  H
  H86      1.0000 0.83790  0.66470  0.64230  Biso   1.000  H
  H87      1.0000 0.17320  0.83790  0.14230  Biso   1.000  H
  H88      1.0000 0.33530  0.17320  0.64230  Biso   1.000  H
  H89      1.0000 0.16210  0.33530  0.14230  Biso   1.000  H
  H90      1.0000 0.82680  0.16210  0.64230  Biso   1.000  H
  C25      1.0000 0.56440  0.74820  0.23980  Biso   1.000  C
  C26      1.0000 0.81620  0.56440  0.73980  Biso   1.000  C
  C27      1.0000 0.25180  0.81620  0.23980  Biso   1.000  C
  C28      1.0000 0.43560  0.25180  0.73980  Biso   1.000  C
  C29      1.0000 0.18380  0.43560  0.23980  Biso   1.000  C
  C30      1.0000 0.74820  0.18380  0.73980  Biso   1.000  C
  H91      1.0000 0.52730  0.67890  0.21000  Biso   1.000  H
  H92      1.0000 0.84840  0.52730  0.71000  Biso   1.000  H
  H93      1.0000 0.32110  0.84840  0.21000  Biso   1.000  H
  H94      1.0000 0.47270  0.32110  0.71000  Biso   1.000  H
  H95      1.0000 0.15160  0.47270  0.21000  Biso   1.000  H
  H96      1.0000 0.67890  0.15160  0.71000  Biso   1.000  H
  H97      1.0000 0.51810  0.78150  0.23830  Biso   1.000  H
  H98      1.0000 0.73660  0.51810  0.73830  Biso   1.000  H
  H99      1.0000 0.21850  0.73660  0.23830  Biso   1.000  H
  H100     1.0000 0.48190  0.21850  0.73830  Biso   1.000  H
  H101     1.0000 0.26340  0.48190  0.23830  Biso   1.000  H
  H102     1.0000 0.78150  0.26340  0.73830  Biso   1.000  H
  C31      1.0000 0.82700  0.60600  0.27480  Biso   1.000  C
  C32      1.0000 0.22100  0.82700  0.77480  Biso   1.000  C
  C33      1.0000 0.39400  0.22100  0.27480  Biso   1.000  C
  C34      1.0000 0.17300  0.39400  0.77480  Biso   1.000  C
  C35      1.0000 0.77900  0.17300  0.27480  Biso   1.000  C
  C36      1.0000 0.60600  0.77900  0.77480  Biso   1.000  C
  H103     1.0000 0.82960  0.62610  0.21700  Biso   1.000  H
  H104     1.0000 0.20350  0.82960  0.71700  Biso   1.000  H
  H105     1.0000 0.37390  0.20350  0.21700  Biso   1.000  H
  H106     1.0000 0.17040  0.37390  0.71700  Biso   1.000  H
  H107     1.0000 0.79650  0.17040  0.21700  Biso   1.000  H
  H108     1.0000 0.62610  0.79650  0.71700  Biso   1.000  H
  H109     1.0000 0.87940  0.58160  0.28380  Biso   1.000  H
  H110     1.0000 0.29780  0.87940  0.78380  Biso   1.000  H
  H111     1.0000 0.41840  0.29780  0.28380  Biso   1.000  H
  H112     1.0000 0.12060  0.41840  0.78380  Biso   1.000  H
  H113     1.0000 0.70220  0.12060  0.28380  Biso   1.000  H
  H114     1.0000 0.58160  0.70220  0.78380  Biso   1.000  H
  C37      1.0000 0.72000  0.52210  0.29560  Biso   1.000  C
  C38      1.0000 0.19790  0.72000  0.79560  Biso   1.000  C
  C39      1.0000 0.47790  0.19790  0.29560  Biso   1.000  C
  C40      1.0000 0.28000  0.47790  0.79560  Biso   1.000  C
  C41      1.0000 0.80210  0.28000  0.29560  Biso   1.000  C
  C42      1.0000 0.52210  0.80210  0.79560  Biso   1.000  C
  H115     1.0000 0.72070  0.49380  0.35020  Biso   1.000  H
  H116     1.0000 0.22690  0.72070  0.85020  Biso   1.000  H
  H117     1.0000 0.50620  0.22690  0.35020  Biso   1.000  H
  H118     1.0000 0.27930  0.50620  0.85020  Biso   1.000  H
  H119     1.0000 0.77310  0.27930  0.35020  Biso   1.000  H
  H120     1.0000 0.49380  0.77310  0.85020  Biso   1.000  H
  H121     1.0000 0.69560  0.46210  0.25630  Biso   1.000  H
  H122     1.0000 0.23350  0.69560  0.75630  Biso   1.000  H
  H123     1.0000 0.53790  0.23350  0.25630  Biso   1.000  H
  H124     1.0000 0.30440  0.53790  0.75630  Biso   1.000  H
  H125     1.0000 0.76650  0.30440  0.25630  Biso   1.000  H
  H126     1.0000 0.46210  0.76650  0.75630  Biso   1.000  H
  Re1      1.0000 0.66670  0.33330  0.52960  Biso   1.000  Re
  Re2      1.0000 0.33340  0.66670  0.02960  Biso   1.000  Re
  O13      1.0000 0.66670  0.33330  0.62900  Biso   1.000  O
  O14      1.0000 0.33340  0.66670  0.12900  Biso   1.000  O
  O15      1.0000 0.72000  0.46300  0.50000  Biso   1.000  O
  O16      1.0000 0.25700  0.72000  0.00000  Biso   1.000  O
  O17      1.0000 0.53700  0.25700  0.50000  Biso   1.000  O
  O18      1.0000 0.28000  0.53700  0.00000  Biso   1.000  O
  O19      1.0000 0.74300  0.28000  0.50000  Biso   1.000  O
  O20      1.0000 0.46300  0.74300  0.00000  Biso   1.000  O
  O21      1.0000 0.89410  0.65020  0.50290  Biso   1.000  O
  O22      1.0000 0.24390  0.89410  0.00290  Biso   1.000  O
  O23      1.0000 0.34980  0.24390  0.50290  Biso   1.000  O
  O24      1.0000 0.10590  0.34980  0.00290  Biso   1.000  O
  O25      1.0000 0.75610  0.10590  0.50290  Biso   1.000  O
  O26      1.0000 0.65020  0.75610  0.00290  Biso   1.000  O
  O27      1.0000 0.63700  0.42900  0.48900  Biso   1.000  O
  O28      1.0000 0.20800  0.63700  0.98900  Biso   1.000  O
  O29      1.0000 0.57100  0.20800  0.48900  Biso   1.000  O
  O30      1.0000 0.36300  0.57100  0.98900  Biso   1.000  O
  O31      1.0000 0.79200  0.36300  0.48900  Biso   1.000  O
  O32      1.0000 0.42900  0.79200  0.98900  Biso   1.000  O
