data_image0
_cell_length_a       10.8292
_cell_length_b       19.6626
_cell_length_c       15.1761
_cell_angle_alpha    90
_cell_angle_beta     103.504
_cell_angle_gamma    90

_symmetry_space_group_name_H-M    "P 1"
_symmetry_int_tables_number       1

loop_
  _symmetry_equiv_pos_as_xyz
  'x, y, z'

loop_
  _atom_site_label
  _atom_site_occupancy
  _atom_site_fract_x
  _atom_site_fract_y
  _atom_site_fract_z
  _atom_site_thermal_displace_type
  _atom_site_B_iso_or_equiv
  _atom_site_type_symbol
  Cu1      1.0000 0.53443  0.02352  0.03013  Biso   1.000  Cu
  Cu2      1.0000 0.46557  0.52352  0.96987  Biso   1.000  Cu
  Cu3      1.0000 0.30352  0.04171  0.93266  Biso   1.000  Cu
  Cu4      1.0000 0.69648  0.54171  0.06734  Biso   1.000  Cu
  Cu5      1.0000 0.48261  0.10387  0.87085  Biso   1.000  Cu
  Cu6      1.0000 0.51739  0.60387  0.12915  Biso   1.000  Cu
  Cu7      1.0000 0.67381  0.18446  0.86880  Biso   1.000  Cu
  Cu8      1.0000 0.32619  0.68446  0.13120  Biso   1.000  Cu
  I1       1.0000 0.34469  0.03264  0.11116  Biso   1.000  I
  I2       1.0000 0.65531  0.53264  0.88884  Biso   1.000  I
  I3       1.0000 0.66638  0.13787  0.02857  Biso   1.000  I
  I4       1.0000 0.33362  0.63787  0.97143  Biso   1.000  I
  I5       1.0000 0.49085  0.96726  0.86667  Biso   1.000  I
  I6       1.0000 0.50915  0.46726  0.13333  Biso   1.000  I
  I7       1.0000 0.27026  0.16572  0.87562  Biso   1.000  I
  I8       1.0000 0.72974  0.66572  0.12438  Biso   1.000  I
  I9       1.0000 0.53516  0.14638  0.71850  Biso   1.000  I
  I10      1.0000 0.46484  0.64638  0.28150  Biso   1.000  I
  I11      1.0000 0.83893  0.27388  0.87384  Biso   1.000  I
  I12      1.0000 0.16107  0.77388  0.12616  Biso   1.000  I
  K1       1.0000 0.81760  0.91553  0.32390  Biso   1.000  K
  K2       1.0000 0.18240  0.41553  0.67610  Biso   1.000  K
  K3       1.0000 0.98570  0.94528  0.65739  Biso   1.000  K
  K4       1.0000 0.01430  0.44528  0.34261  Biso   1.000  K
  S1       1.0000 0.68180  0.94943  0.11675  Biso   1.000  S
  S2       1.0000 0.31820  0.44943  0.88325  Biso   1.000  S
  S3       1.0000 0.14160  0.97197  0.86163  Biso   1.000  S
  S4       1.0000 0.85840  0.47197  0.13837  Biso   1.000  S
  O1       1.0000 0.05160  0.97170  0.37480  Biso   1.000  O
  O2       1.0000 0.94840  0.47170  0.62520  Biso   1.000  O
  O3       1.0000 0.96970  0.92250  0.20010  Biso   1.000  O
  O4       1.0000 0.03030  0.42250  0.79990  Biso   1.000  O
  O5       1.0000 0.58610  0.85270  0.24560  Biso   1.000  O
  O6       1.0000 0.41390  0.35270  0.75440  Biso   1.000  O
  O7       1.0000 0.66470  0.87640  0.42840  Biso   1.000  O
  O8       1.0000 0.33530  0.37640  0.57160  Biso   1.000  O
  O9       1.0000 0.85880  0.04950  0.56530  Biso   1.000  O
  O10      1.0000 0.14120  0.54950  0.43470  Biso   1.000  O
  O11      1.0000 0.90640  0.04820  0.75550  Biso   1.000  O
  O12      1.0000 0.09360  0.54820  0.24450  Biso   1.000  O
  O13      1.0000 0.07360  0.83010  0.77620  Biso   1.000  O
  O14      1.0000 0.92640  0.33010  0.22380  Biso   1.000  O
  O15      1.0000 0.05650  0.82870  0.59270  Biso   1.000  O
  O16      1.0000 0.94350  0.32870  0.40730  Biso   1.000  O
  C1       1.0000 0.12350  0.98430  0.30750  Biso   1.000  C
  C2       1.0000 0.87650  0.48430  0.69250  Biso   1.000  C
  H1       1.0000 0.18980  0.94900  0.31170  Biso   1.000  H
  H2       1.0000 0.81020  0.44900  0.68830  Biso   1.000  H
  H3       1.0000 0.16610  0.02910  0.31880  Biso   1.000  H
  H4       1.0000 0.83390  0.52910  0.68120  Biso   1.000  H
  C3       1.0000 0.03610  0.98340  0.21370  Biso   1.000  C
  C4       1.0000 0.96390  0.48340  0.78630  Biso   1.000  C
  H5       1.0000 0.97570  0.02180  0.20740  Biso   1.000  H
  H6       1.0000 0.02430  0.52180  0.79260  Biso   1.000  H
  H7       1.0000 0.08660  0.98870  0.16750  Biso   1.000  H
  H8       1.0000 0.91340  0.48870  0.83250  Biso   1.000  H
  C5       1.0000 0.92270  0.90590  0.10730  Biso   1.000  C
  C6       1.0000 0.07730  0.40590  0.89270  Biso   1.000  C
  H9       1.0000 0.89830  0.85730  0.10250  Biso   1.000  H
  H10      1.0000 0.10170  0.35730  0.89750  Biso   1.000  H
  H11      1.0000 0.99170  0.91220  0.07520  Biso   1.000  H
  H12      1.0000 0.00830  0.41220  0.92480  Biso   1.000  H
  C7       1.0000 0.81060  0.94770  0.06100  Biso   1.000  C
  C8       1.0000 0.18940  0.44770  0.93900  Biso   1.000  C
  H13      1.0000 0.77850  0.92970  0.99890  Biso   1.000  H
  H14      1.0000 0.22150  0.42970  0.00110  Biso   1.000  H
  H15      1.0000 0.83950  0.99490  0.05540  Biso   1.000  H
  H16      1.0000 0.16050  0.49490  0.94460  Biso   1.000  H
  C9       1.0000 0.62150  0.86270  0.09510  Biso   1.000  C
  C10      1.0000 0.37850  0.36270  0.90490  Biso   1.000  C
  H17      1.0000 0.58200  0.85700  0.02970  Biso   1.000  H
  H18      1.0000 0.41800  0.35700  0.97030  Biso   1.000  H
  H19      1.0000 0.69240  0.82990  0.11190  Biso   1.000  H
  H20      1.0000 0.30760  0.32990  0.88810  Biso   1.000  H
  C11      1.0000 0.52550  0.84880  0.14920  Biso   1.000  C
  C12      1.0000 0.47450  0.34880  0.85080  Biso   1.000  C
  H21      1.0000 0.45610  0.88270  0.13400  Biso   1.000  H
  H22      1.0000 0.54390  0.38270  0.86600  Biso   1.000  H
  H23      1.0000 0.48850  0.80300  0.13440  Biso   1.000  H
  H24      1.0000 0.51150  0.30300  0.86560  Biso   1.000  H
  C13      1.0000 0.49620  0.85370  0.30030  Biso   1.000  C
  C14      1.0000 0.50380  0.35370  0.69970  Biso   1.000  C
  H25      1.0000 0.42570  0.82200  0.27530  Biso   1.000  H
  H26      1.0000 0.57430  0.32200  0.72470  Biso   1.000  H
  H27      1.0000 0.46050  0.90000  0.30070  Biso   1.000  H
  H28      1.0000 0.53950  0.40000  0.69930  Biso   1.000  H
  C15      1.0000 0.55850  0.83340  0.39250  Biso   1.000  C
  C16      1.0000 0.44150  0.33340  0.60750  Biso   1.000  C
  H29      1.0000 0.49700  0.83620  0.43150  Biso   1.000  H
  H30      1.0000 0.50300  0.33620  0.56850  Biso   1.000  H
  H31      1.0000 0.58740  0.78570  0.39250  Biso   1.000  H
  H32      1.0000 0.41260  0.28570  0.60750  Biso   1.000  H
  C17      1.0000 0.69500  0.88030  0.52360  Biso   1.000  C
  C18      1.0000 0.30500  0.38030  0.47640  Biso   1.000  C
  C19      1.0000 0.65750  0.93970  0.56220  Biso   1.000  C
  C20      1.0000 0.34250  0.43970  0.43780  Biso   1.000  C
  C21      1.0000 0.67740  0.94200  0.65640  Biso   1.000  C
  C22      1.0000 0.32260  0.44200  0.34360  Biso   1.000  C
  H33      1.0000 0.63980  0.97990  0.68540  Biso   1.000  H
  H34      1.0000 0.36020  0.47990  0.31460  Biso   1.000  H
  C23      1.0000 0.73230  0.88830  0.70790  Biso   1.000  C
  C24      1.0000 0.26770  0.38830  0.29210  Biso   1.000  C
  H35      1.0000 0.72870  0.88640  0.77310  Biso   1.000  H
  H36      1.0000 0.27130  0.38640  0.22690  Biso   1.000  H
  C25      1.0000 0.77710  0.83120  0.66930  Biso   1.000  C
  C26      1.0000 0.22290  0.33120  0.33070  Biso   1.000  C
  H37      1.0000 0.80360  0.78990  0.70750  Biso   1.000  H
  H38      1.0000 0.19640  0.28990  0.29250  Biso   1.000  H
  C27      1.0000 0.76030  0.82650  0.57570  Biso   1.000  C
  C28      1.0000 0.23970  0.32650  0.42430  Biso   1.000  C
  C29      1.0000 0.80960  0.76410  0.53560  Biso   1.000  C
  C30      1.0000 0.19040  0.26410  0.46440  Biso   1.000  C
  H39      1.0000 0.85740  0.73570  0.58600  Biso   1.000  H
  H40      1.0000 0.14260  0.23570  0.41400  Biso   1.000  H
  H41      1.0000 0.73580  0.73710  0.50290  Biso   1.000  H
  H42      1.0000 0.26420  0.23710  0.49710  Biso   1.000  H
  C31      1.0000 0.89450  0.77830  0.47120  Biso   1.000  C
  C32      1.0000 0.10550  0.27830  0.52880  Biso   1.000  C
  C33      1.0000 0.01470  0.81000  0.50050  Biso   1.000  C
  C34      1.0000 0.98530  0.31000  0.49950  Biso   1.000  C
  C35      1.0000 0.09340  0.82560  0.44400  Biso   1.000  C
  C36      1.0000 0.90660  0.32560  0.55600  Biso   1.000  C
  C37      1.0000 0.05630  0.80280  0.35330  Biso   1.000  C
  C38      1.0000 0.94370  0.30280  0.64670  Biso   1.000  C
  H43      1.0000 0.11800  0.80500  0.31370  Biso   1.000  H
  H44      1.0000 0.88200  0.30500  0.68630  Biso   1.000  H
  C39      1.0000 0.94260  0.76910  0.32350  Biso   1.000  C
  C40      1.0000 0.05740  0.26910  0.67650  Biso   1.000  C
  H45      1.0000 0.92760  0.74290  0.26560  Biso   1.000  H
  H46      1.0000 0.07240  0.24290  0.73440  Biso   1.000  H
  C41      1.0000 0.86470  0.75700  0.38360  Biso   1.000  C
  C42      1.0000 0.13530  0.25700  0.61640  Biso   1.000  C
  H47      1.0000 0.79240  0.72450  0.36450  Biso   1.000  H
  H48      1.0000 0.20760  0.22450  0.63550  Biso   1.000  H
  C43      1.0000 0.21420  0.86470  0.47620  Biso   1.000  C
  C44      1.0000 0.78580  0.36470  0.52380  Biso   1.000  C
  H49      1.0000 0.25600  0.86900  0.42500  Biso   1.000  H
  H50      1.0000 0.74400  0.36900  0.57500  Biso   1.000  H
  H51      1.0000 0.27130  0.83780  0.52400  Biso   1.000  H
  H52      1.0000 0.72870  0.33780  0.47600  Biso   1.000  H
  C45      1.0000 0.20150  0.93550  0.51350  Biso   1.000  C
  C46      1.0000 0.79850  0.43550  0.48650  Biso   1.000  C
  C47      1.0000 0.26880  0.95260  0.59920  Biso   1.000  C
  C48      1.0000 0.73120  0.45260  0.40080  Biso   1.000  C
  H53      1.0000 0.33900  0.92200  0.63080  Biso   1.000  H
  H54      1.0000 0.66100  0.42200  0.36920  Biso   1.000  H
  C49      1.0000 0.25590  0.01710  0.63690  Biso   1.000  C
  C50      1.0000 0.74410  0.51710  0.36310  Biso   1.000  C
  H55      1.0000 0.31950  0.03230  0.69230  Biso   1.000  H
  H56      1.0000 0.68050  0.53230  0.30770  Biso   1.000  H
  C51      1.0000 0.17020  0.06290  0.58930  Biso   1.000  C
  C52      1.0000 0.82980  0.56290  0.41070  Biso   1.000  C
  H57      1.0000 0.17010  0.11060  0.61210  Biso   1.000  H
  H58      1.0000 0.82990  0.61060  0.38790  Biso   1.000  H
  C53      1.0000 0.09910  0.04720  0.50160  Biso   1.000  C
  C54      1.0000 0.90090  0.54720  0.49840  Biso   1.000  C
  C55      1.0000 0.00570  0.10020  0.44810  Biso   1.000  C
  C56      1.0000 0.99430  0.60020  0.55190  Biso   1.000  C
  H59      1.0000 0.00780  0.14080  0.48700  Biso   1.000  H
  H60      1.0000 0.99220  0.64080  0.51300  Biso   1.000  H
  H61      1.0000 0.03750  0.11430  0.39480  Biso   1.000  H
  H62      1.0000 0.96250  0.61430  0.60520  Biso   1.000  H
  C57      1.0000 0.87020  0.07890  0.41530  Biso   1.000  C
  C58      1.0000 0.12980  0.57890  0.58470  Biso   1.000  C
  C59      1.0000 0.80060  0.05140  0.47310  Biso   1.000  C
  C60      1.0000 0.19940  0.55140  0.52690  Biso   1.000  C
  C61      1.0000 0.67370  0.02910  0.44140  Biso   1.000  C
  C62      1.0000 0.32630  0.52910  0.55860  Biso   1.000  C
  C63      1.0000 0.61720  0.03700  0.35050  Biso   1.000  C
  C64      1.0000 0.38280  0.53700  0.64950  Biso   1.000  C
  H63      1.0000 0.52380  0.02910  0.32890  Biso   1.000  H
  H64      1.0000 0.47620  0.52910  0.67110  Biso   1.000  H
  C65      1.0000 0.68520  0.06860  0.29090  Biso   1.000  C
  C66      1.0000 0.31480  0.56860  0.70910  Biso   1.000  C
  H65      1.0000 0.63890  0.08270  0.22860  Biso   1.000  H
  H66      1.0000 0.36110  0.58270  0.77140  Biso   1.000  H
  C67      1.0000 0.81100  0.08780  0.32370  Biso   1.000  C
  C68      1.0000 0.18900  0.58780  0.67630  Biso   1.000  C
  H67      1.0000 0.85580  0.11350  0.28360  Biso   1.000  H
  H68      1.0000 0.14420  0.61350  0.71640  Biso   1.000  H
  C69      1.0000 0.81710  0.10610  0.61510  Biso   1.000  C
  C70      1.0000 0.18290  0.60610  0.38490  Biso   1.000  C
  H69      1.0000 0.72900  0.09780  0.62060  Biso   1.000  H
  H70      1.0000 0.27100  0.59780  0.37940  Biso   1.000  H
  H71      1.0000 0.81810  0.14900  0.58120  Biso   1.000  H
  H72      1.0000 0.18190  0.64900  0.41880  Biso   1.000  H
  C71      1.0000 0.90280  0.11240  0.70720  Biso   1.000  C
  C72      1.0000 0.09720  0.61240  0.29280  Biso   1.000  C
  H73      1.0000 0.98950  0.12460  0.70190  Biso   1.000  H
  H74      1.0000 0.01050  0.62460  0.29810  Biso   1.000  H
  H75      1.0000 0.87160  0.14890  0.74140  Biso   1.000  H
  H76      1.0000 0.12840  0.64890  0.25860  Biso   1.000  H
  C73      1.0000 0.94210  0.05760  0.85120  Biso   1.000  C
  C74      1.0000 0.05790  0.55760  0.14880  Biso   1.000  C
  H77      1.0000 0.86660  0.06950  0.87430  Biso   1.000  H
  H78      1.0000 0.13340  0.56950  0.12570  Biso   1.000  H
  H79      1.0000 0.00450  0.09510  0.86640  Biso   1.000  H
  H80      1.0000 0.99550  0.59510  0.13360  Biso   1.000  H
  C75      1.0000 0.99840  0.99380  0.89320  Biso   1.000  C
  C76      1.0000 0.00160  0.49380  0.10680  Biso   1.000  C
  H81      1.0000 0.93630  0.95650  0.87520  Biso   1.000  H
  H82      1.0000 0.06370  0.45650  0.12480  Biso   1.000  H
  H83      1.0000 0.01600  0.99840  0.95990  Biso   1.000  H
  H84      1.0000 0.98400  0.49840  0.04010  Biso   1.000  H
  C77      1.0000 0.17920  0.88830  0.91470  Biso   1.000  C
  C78      1.0000 0.82080  0.38830  0.08530  Biso   1.000  C
  H85      1.0000 0.26780  0.87680  0.91350  Biso   1.000  H
  H86      1.0000 0.73220  0.37680  0.08650  Biso   1.000  H
  H87      1.0000 0.17530  0.89190  0.97910  Biso   1.000  H
  H88      1.0000 0.82470  0.39190  0.02090  Biso   1.000  H
  C79      1.0000 0.09450  0.83060  0.87200  Biso   1.000  C
  C80      1.0000 0.90550  0.33060  0.12800  Biso   1.000  C
  H89      1.0000 0.13380  0.78690  0.89630  Biso   1.000  H
  H90      1.0000 0.86620  0.28690  0.10370  Biso   1.000  H
  H91      1.0000 0.01180  0.83450  0.88890  Biso   1.000  H
  H92      1.0000 0.98820  0.33450  0.11110  Biso   1.000  H
  C81      1.0000 0.17040  0.80140  0.74350  Biso   1.000  C
  C82      1.0000 0.82960  0.30140  0.25650  Biso   1.000  C
  H93      1.0000 0.20940  0.76370  0.78380  Biso   1.000  H
  H94      1.0000 0.79060  0.26370  0.21620  Biso   1.000  H
  H95      1.0000 0.23680  0.83590  0.74330  Biso   1.000  H
  H96      1.0000 0.76320  0.33590  0.25670  Biso   1.000  H
  C83      1.0000 0.12080  0.77460  0.64880  Biso   1.000  C
  C84      1.0000 0.87920  0.27460  0.35120  Biso   1.000  C
  H97      1.0000 0.19210  0.75750  0.62430  Biso   1.000  H
  H98      1.0000 0.80790  0.25750  0.37570  Biso   1.000  H
  H99      1.0000 0.06140  0.73650  0.64960  Biso   1.000  H
  H100     1.0000 0.93860  0.23650  0.35040  Biso   1.000  H
  C85      1.0000 0.59690  0.99720  0.50260  Biso   1.000  C
  C86      1.0000 0.40310  0.49720  0.49740  Biso   1.000  C
  H101     1.0000 0.57560  0.03340  0.54190  Biso   1.000  H
  H102     1.0000 0.42440  0.53340  0.45810  Biso   1.000  H
  H103     1.0000 0.51600  0.98060  0.46390  Biso   1.000  H
  H104     1.0000 0.48400  0.48060  0.53610  Biso   1.000  H
  C87      1.0000 0.11870  0.98500  0.46480  Biso   1.000  C
  C88      1.0000 0.88130  0.48500  0.53520  Biso   1.000  C
  C89      1.0000 0.95750  0.65560  0.93330  Biso   1.000  C
  C90      1.0000 0.04250  0.15560  0.06670  Biso   1.000  C
  H105     1.0000 0.98970  0.60960  0.94960  Biso   1.000  H
  H106     1.0000 0.01030  0.10960  0.05040  Biso   1.000  H
  H107     1.0000 0.87930  0.66270  0.95390  Biso   1.000  H
  H108     1.0000 0.12070  0.16270  0.04610  Biso   1.000  H
  H109     1.0000 0.02140  0.68900  0.96220  Biso   1.000  H
  H110     1.0000 0.97860  0.18900  0.03780  Biso   1.000  H
  C91      1.0000 0.93140  0.66370  0.83590  Biso   1.000  C
  C92      1.0000 0.06860  0.16370  0.16410  Biso   1.000  C
  N1       1.0000 0.91480  0.66750  0.76070  Biso   1.000  N
  N2       1.0000 0.08520  0.16750  0.23930  Biso   1.000  N
  C93      1.0000 0.60390  0.73890  0.89960  Biso   1.000  C
  C94      1.0000 0.39610  0.23890  0.10040  Biso   1.000  C
  H111     1.0000 0.62310  0.68980  0.89750  Biso   1.000  H
  H112     1.0000 0.37690  0.18980  0.10250  Biso   1.000  H
  H113     1.0000 0.56440  0.74710  0.95130  Biso   1.000  H
  H114     1.0000 0.43560  0.24710  0.04870  Biso   1.000  H
  Cl1      1.0000 0.75010  0.78910  0.91300  Biso   1.000  Cl
  Cl2      1.0000 0.24990  0.28910  0.08700  Biso   1.000  Cl
  Cl3      1.0000 0.50260  0.76390  0.80000  Biso   1.000  Cl
  Cl4      1.0000 0.49740  0.26390  0.20000  Biso   1.000  Cl
  C95      1.0000 0.58410  0.67500  0.64080  Biso   1.000  C
  C96      1.0000 0.41590  0.17500  0.35920  Biso   1.000  C
  H115     1.0000 0.56250  0.64970  0.69160  Biso   1.000  H
  H116     1.0000 0.43750  0.14970  0.30840  Biso   1.000  H
  H117     1.0000 0.65380  0.70700  0.66660  Biso   1.000  H
  H118     1.0000 0.34620  0.20700  0.33340  Biso   1.000  H
  Cl5      1.0000 0.63540  0.61820  0.56960  Biso   1.000  Cl
  Cl6      1.0000 0.36460  0.11820  0.43040  Biso   1.000  Cl
  Cl7      1.0000 0.45270  0.72050  0.58410  Biso   1.000  Cl
  Cl8      1.0000 0.54730  0.22050  0.41590  Biso   1.000  Cl
