data_image0
_cell_length_a       13.0427
_cell_length_b       10.2452
_cell_length_c       14.6127
_cell_angle_alpha    90
_cell_angle_beta     92.874
_cell_angle_gamma    90

_symmetry_space_group_name_H-M    "P 1"
_symmetry_int_tables_number       1

loop_
  _symmetry_equiv_pos_as_xyz
  'x, y, z'

loop_
  _atom_site_label
  _atom_site_occupancy
  _atom_site_fract_x
  _atom_site_fract_y
  _atom_site_fract_z
  _atom_site_thermal_displace_type
  _atom_site_B_iso_or_equiv
  _atom_site_type_symbol
  C1       1.0000 0.70180  0.89840  0.34530  Biso   1.000  C
  C2       1.0000 0.29820  0.39840  0.15470  Biso   1.000  C
  C3       1.0000 0.29820  0.10160  0.65470  Biso   1.000  C
  C4       1.0000 0.70180  0.60160  0.84530  Biso   1.000  C
  C5       1.0000 0.82590  0.05100  0.37650  Biso   1.000  C
  C6       1.0000 0.17410  0.55100  0.12350  Biso   1.000  C
  C7       1.0000 0.17410  0.94900  0.62350  Biso   1.000  C
  C8       1.0000 0.82590  0.44900  0.87650  Biso   1.000  C
  H1       1.0000 0.88310  0.09450  0.40540  Biso   1.000  H
  H2       1.0000 0.11690  0.59450  0.09460  Biso   1.000  H
  H3       1.0000 0.11690  0.90550  0.59460  Biso   1.000  H
  H4       1.0000 0.88310  0.40550  0.90540  Biso   1.000  H
  C9       1.0000 0.76940  0.09030  0.30120  Biso   1.000  C
  C10      1.0000 0.23060  0.59030  0.19880  Biso   1.000  C
  C11      1.0000 0.23060  0.90970  0.69880  Biso   1.000  C
  C12      1.0000 0.76940  0.40970  0.80120  Biso   1.000  C
  H5       1.0000 0.77910  0.16790  0.26720  Biso   1.000  H
  H6       1.0000 0.22090  0.66790  0.23280  Biso   1.000  H
  H7       1.0000 0.22090  0.83210  0.73280  Biso   1.000  H
  H8       1.0000 0.77910  0.33210  0.76720  Biso   1.000  H
  C13      1.0000 0.61830  0.00070  0.20750  Biso   1.000  C
  C14      1.0000 0.38170  0.50070  0.29250  Biso   1.000  C
  C15      1.0000 0.38170  0.99930  0.79250  Biso   1.000  C
  C16      1.0000 0.61830  0.49930  0.70750  Biso   1.000  C
  H9       1.0000 0.57390  0.92270  0.21090  Biso   1.000  H
  H10      1.0000 0.42610  0.42270  0.28910  Biso   1.000  H
  H11      1.0000 0.42610  0.07730  0.78910  Biso   1.000  H
  H12      1.0000 0.57390  0.57730  0.71090  Biso   1.000  H
  H13      1.0000 0.65340  0.99630  0.14900  Biso   1.000  H
  H14      1.0000 0.34660  0.49630  0.35100  Biso   1.000  H
  H15      1.0000 0.34660  0.00370  0.85100  Biso   1.000  H
  H16      1.0000 0.65340  0.50370  0.64900  Biso   1.000  H
  C17      1.0000 0.55140  0.12240  0.20710  Biso   1.000  C
  C18      1.0000 0.44860  0.62240  0.29290  Biso   1.000  C
  C19      1.0000 0.44860  0.87760  0.79290  Biso   1.000  C
  C20      1.0000 0.55140  0.37760  0.70710  Biso   1.000  C
  C21      1.0000 0.82250  0.85360  0.47670  Biso   1.000  C
  C22      1.0000 0.17750  0.35360  0.02330  Biso   1.000  C
  C23      1.0000 0.17750  0.14640  0.52330  Biso   1.000  C
  C24      1.0000 0.82250  0.64640  0.97670  Biso   1.000  C
  C25      1.0000 0.77220  0.85140  0.56020  Biso   1.000  C
  C26      1.0000 0.22780  0.35140  0.93980  Biso   1.000  C
  C27      1.0000 0.22780  0.14860  0.43980  Biso   1.000  C
  C28      1.0000 0.77220  0.64860  0.06020  Biso   1.000  C
  C29      1.0000 0.81520  0.77190  0.62970  Biso   1.000  C
  C30      1.0000 0.18480  0.27190  0.87030  Biso   1.000  C
  C31      1.0000 0.18480  0.22810  0.37030  Biso   1.000  C
  C32      1.0000 0.81520  0.72810  0.12970  Biso   1.000  C
  H17      1.0000 0.78310  0.76690  0.68660  Biso   1.000  H
  H18      1.0000 0.21690  0.26690  0.81340  Biso   1.000  H
  H19      1.0000 0.21690  0.23310  0.31340  Biso   1.000  H
  H20      1.0000 0.78310  0.73310  0.18660  Biso   1.000  H
  C33      1.0000 0.90280  0.70090  0.61800  Biso   1.000  C
  C34      1.0000 0.09720  0.20090  0.88200  Biso   1.000  C
  C35      1.0000 0.09720  0.29910  0.38200  Biso   1.000  C
  C36      1.0000 0.90280  0.79910  0.11800  Biso   1.000  C
  H21      1.0000 0.93060  0.64870  0.66690  Biso   1.000  H
  H22      1.0000 0.06940  0.14870  0.83310  Biso   1.000  H
  H23      1.0000 0.06940  0.35130  0.33310  Biso   1.000  H
  H24      1.0000 0.93060  0.85130  0.16690  Biso   1.000  H
  C37      1.0000 0.95120  0.70410  0.53550  Biso   1.000  C
  C38      1.0000 0.04880  0.20410  0.96450  Biso   1.000  C
  C39      1.0000 0.04880  0.29590  0.46450  Biso   1.000  C
  C40      1.0000 0.95120  0.79590  0.03550  Biso   1.000  C
  H25      1.0000 0.01210  0.65480  0.52890  Biso   1.000  H
  H26      1.0000 0.98790  0.15480  0.97110  Biso   1.000  H
  H27      1.0000 0.98790  0.34520  0.47110  Biso   1.000  H
  H28      1.0000 0.01210  0.84520  0.02890  Biso   1.000  H
  C41      1.0000 0.91150  0.77880  0.46270  Biso   1.000  C
  C42      1.0000 0.08850  0.27880  0.03730  Biso   1.000  C
  C43      1.0000 0.08850  0.22120  0.53730  Biso   1.000  C
  C44      1.0000 0.91150  0.72120  0.96270  Biso   1.000  C
  C45      1.0000 0.96060  0.77760  0.37070  Biso   1.000  C
  C46      1.0000 0.03940  0.27760  0.12930  Biso   1.000  C
  C47      1.0000 0.03940  0.22240  0.62930  Biso   1.000  C
  C48      1.0000 0.96060  0.72240  0.87070  Biso   1.000  C
  H29      1.0000 0.90910  0.81270  0.32400  Biso   1.000  H
  H30      1.0000 0.09090  0.31270  0.17600  Biso   1.000  H
  H31      1.0000 0.09090  0.18730  0.67600  Biso   1.000  H
  H32      1.0000 0.90910  0.68730  0.82400  Biso   1.000  H
  C49      1.0000 0.98980  0.63970  0.34040  Biso   1.000  C
  C50      1.0000 0.01020  0.13970  0.15960  Biso   1.000  C
  C51      1.0000 0.01020  0.36030  0.65960  Biso   1.000  C
  C52      1.0000 0.98980  0.86030  0.84040  Biso   1.000  C
  H33      1.0000 0.04320  0.60460  0.38310  Biso   1.000  H
  H34      1.0000 0.95680  0.10460  0.11690  Biso   1.000  H
  H35      1.0000 0.95680  0.39540  0.61690  Biso   1.000  H
  H36      1.0000 0.04320  0.89540  0.88310  Biso   1.000  H
  H37      1.0000 0.01570  0.64320  0.27860  Biso   1.000  H
  H38      1.0000 0.98430  0.14320  0.22140  Biso   1.000  H
  H39      1.0000 0.98430  0.35680  0.72140  Biso   1.000  H
  H40      1.0000 0.01570  0.85680  0.77860  Biso   1.000  H
  H41      1.0000 0.92920  0.58320  0.34020  Biso   1.000  H
  H42      1.0000 0.07080  0.08320  0.15980  Biso   1.000  H
  H43      1.0000 0.07080  0.41680  0.65980  Biso   1.000  H
  H44      1.0000 0.92920  0.91680  0.84020  Biso   1.000  H
  C53      1.0000 0.05480  0.86740  0.37190  Biso   1.000  C
  C54      1.0000 0.94520  0.36740  0.12810  Biso   1.000  C
  C55      1.0000 0.94520  0.13260  0.62810  Biso   1.000  C
  C56      1.0000 0.05480  0.63260  0.87190  Biso   1.000  C
  H45      1.0000 0.03470  0.95590  0.38920  Biso   1.000  H
  H46      1.0000 0.96530  0.45590  0.11080  Biso   1.000  H
  H47      1.0000 0.96530  0.04410  0.61080  Biso   1.000  H
  H48      1.0000 0.03470  0.54410  0.88920  Biso   1.000  H
  H49      1.0000 0.08260  0.86930  0.31080  Biso   1.000  H
  H50      1.0000 0.91740  0.36930  0.18920  Biso   1.000  H
  H51      1.0000 0.91740  0.13070  0.68920  Biso   1.000  H
  H52      1.0000 0.08260  0.63070  0.81080  Biso   1.000  H
  H53      1.0000 0.10730  0.83450  0.41640  Biso   1.000  H
  H54      1.0000 0.89270  0.33450  0.08360  Biso   1.000  H
  H55      1.0000 0.89270  0.16550  0.58360  Biso   1.000  H
  H56      1.0000 0.10730  0.66550  0.91640  Biso   1.000  H
  C57      1.0000 0.67460  0.92810  0.57410  Biso   1.000  C
  C58      1.0000 0.32540  0.42810  0.92590  Biso   1.000  C
  C59      1.0000 0.32540  0.07190  0.42590  Biso   1.000  C
  C60      1.0000 0.67460  0.57190  0.07410  Biso   1.000  C
  H57      1.0000 0.66530  0.99210  0.52270  Biso   1.000  H
  H58      1.0000 0.33470  0.49210  0.97730  Biso   1.000  H
  H59      1.0000 0.33470  0.00790  0.47730  Biso   1.000  H
  H60      1.0000 0.66530  0.50790  0.02270  Biso   1.000  H
  C61      1.0000 0.67930  0.00420  0.66410  Biso   1.000  C
  C62      1.0000 0.32070  0.50420  0.83590  Biso   1.000  C
  C63      1.0000 0.32070  0.99580  0.33590  Biso   1.000  C
  C64      1.0000 0.67930  0.49580  0.16410  Biso   1.000  C
  H61      1.0000 0.68010  0.94300  0.71560  Biso   1.000  H
  H62      1.0000 0.31990  0.44300  0.78440  Biso   1.000  H
  H63      1.0000 0.31990  0.05700  0.28440  Biso   1.000  H
  H64      1.0000 0.68010  0.55700  0.21560  Biso   1.000  H
  H65      1.0000 0.61910  0.06120  0.66620  Biso   1.000  H
  H66      1.0000 0.38090  0.56120  0.83380  Biso   1.000  H
  H67      1.0000 0.38090  0.93880  0.33380  Biso   1.000  H
  H68      1.0000 0.61910  0.43880  0.16620  Biso   1.000  H
  H69      1.0000 0.74190  0.05740  0.66810  Biso   1.000  H
  H70      1.0000 0.25810  0.55740  0.83190  Biso   1.000  H
  H71      1.0000 0.25810  0.94260  0.33190  Biso   1.000  H
  H72      1.0000 0.74190  0.44260  0.16810  Biso   1.000  H
  C65      1.0000 0.58190  0.83830  0.57120  Biso   1.000  C
  C66      1.0000 0.41810  0.33830  0.92880  Biso   1.000  C
  C67      1.0000 0.41810  0.16170  0.42880  Biso   1.000  C
  C68      1.0000 0.58190  0.66170  0.07120  Biso   1.000  C
  H73      1.0000 0.57920  0.78880  0.51380  Biso   1.000  H
  H74      1.0000 0.42080  0.28880  0.98620  Biso   1.000  H
  H75      1.0000 0.42080  0.21120  0.48620  Biso   1.000  H
  H76      1.0000 0.57920  0.71120  0.01380  Biso   1.000  H
  H77      1.0000 0.51930  0.89050  0.57480  Biso   1.000  H
  H78      1.0000 0.48070  0.39050  0.92520  Biso   1.000  H
  H79      1.0000 0.48070  0.10950  0.42520  Biso   1.000  H
  H80      1.0000 0.51930  0.60950  0.07480  Biso   1.000  H
  H81      1.0000 0.58760  0.77780  0.62310  Biso   1.000  H
  H82      1.0000 0.41240  0.27780  0.87690  Biso   1.000  H
  H83      1.0000 0.41240  0.22220  0.37690  Biso   1.000  H
  H84      1.0000 0.58760  0.72220  0.12310  Biso   1.000  H
  C69      1.0000 0.65420  0.38310  0.43570  Biso   1.000  C
  C70      1.0000 0.34580  0.88310  0.06430  Biso   1.000  C
  C71      1.0000 0.34580  0.61690  0.56430  Biso   1.000  C
  C72      1.0000 0.65420  0.11690  0.93570  Biso   1.000  C
  H85      1.0000 0.58820  0.42750  0.44520  Biso   1.000  H
  H86      1.0000 0.41180  0.92750  0.05480  Biso   1.000  H
  H87      1.0000 0.41180  0.57250  0.55480  Biso   1.000  H
  H88      1.0000 0.58820  0.07250  0.94520  Biso   1.000  H
  H89      1.0000 0.64870  0.33830  0.37570  Biso   1.000  H
  H90      1.0000 0.35130  0.83830  0.12430  Biso   1.000  H
  H91      1.0000 0.35130  0.66170  0.62430  Biso   1.000  H
  H92      1.0000 0.64870  0.16170  0.87570  Biso   1.000  H
  N1       1.0000 0.78270  0.93430  0.40247  Biso   1.000  N
  N2       1.0000 0.21730  0.43430  0.09753  Biso   1.000  N
  N3       1.0000 0.21730  0.06570  0.59753  Biso   1.000  N
  N4       1.0000 0.78270  0.56570  0.90247  Biso   1.000  N
  N5       1.0000 0.69540  0.99680  0.28320  Biso   1.000  N
  N6       1.0000 0.30460  0.49680  0.21680  Biso   1.000  N
  N7       1.0000 0.30460  0.00320  0.71680  Biso   1.000  N
  N8       1.0000 0.69540  0.50320  0.78320  Biso   1.000  N
  O1       1.0000 0.47410  0.11280  0.14787  Biso   1.000  O
  O2       1.0000 0.52590  0.61280  0.35213  Biso   1.000  O
  O3       1.0000 0.52590  0.88720  0.85213  Biso   1.000  O
  O4       1.0000 0.47410  0.38720  0.64787  Biso   1.000  O
  O5       1.0000 0.57140  0.21580  0.25713  Biso   1.000  O
  O6       1.0000 0.42860  0.71580  0.24287  Biso   1.000  O
  O7       1.0000 0.42860  0.78420  0.74287  Biso   1.000  O
  O8       1.0000 0.57140  0.28420  0.75713  Biso   1.000  O
  Cu1      1.0000 0.61646  0.75343  0.35034  Biso   1.000  Cu
  Cu2      1.0000 0.38354  0.25343  0.14966  Biso   1.000  Cu
  Cu3      1.0000 0.38354  0.24657  0.64966  Biso   1.000  Cu
  Cu4      1.0000 0.61646  0.74657  0.85034  Biso   1.000  Cu
  Cl1      1.0000 0.75407  0.49924  0.43619  Biso   1.000  Cl
  Cl2      1.0000 0.24593  0.99924  0.06381  Biso   1.000  Cl
  Cl3      1.0000 0.24593  0.50076  0.56381  Biso   1.000  Cl
  Cl4      1.0000 0.75407  0.00076  0.93619  Biso   1.000  Cl
  Cl5      1.0000 0.67915  0.26823  0.52326  Biso   1.000  Cl
  Cl6      1.0000 0.32085  0.76823  0.97674  Biso   1.000  Cl
  Cl7      1.0000 0.32085  0.73177  0.47674  Biso   1.000  Cl
  Cl8      1.0000 0.67915  0.23177  0.02326  Biso   1.000  Cl
