data_image0
_cell_length_a       8.354
_cell_length_b       18.022
_cell_length_c       10.422
_cell_angle_alpha    90
_cell_angle_beta     96.96
_cell_angle_gamma    90

_symmetry_space_group_name_H-M    "P 1"
_symmetry_int_tables_number       1

loop_
  _symmetry_equiv_pos_as_xyz
  'x, y, z'

loop_
  _atom_site_label
  _atom_site_occupancy
  _atom_site_fract_x
  _atom_site_fract_y
  _atom_site_fract_z
  _atom_site_thermal_displace_type
  _atom_site_B_iso_or_equiv
  _atom_site_type_symbol
  Cu1      1.0000 0.62748  0.74796  0.98846  Biso   1.000  Cu
  Cu2      1.0000 0.37252  0.24796  0.51154  Biso   1.000  Cu
  Cu3      1.0000 0.37252  0.25204  0.01154  Biso   1.000  Cu
  Cu4      1.0000 0.62748  0.75204  0.48846  Biso   1.000  Cu
  B1       1.0000 0.52610  0.80990  0.81910  Biso   1.000  B
  B2       1.0000 0.47390  0.30990  0.68090  Biso   1.000  B
  B3       1.0000 0.47390  0.19010  0.18090  Biso   1.000  B
  B4       1.0000 0.52610  0.69010  0.31910  Biso   1.000  B
  B5       1.0000 0.72910  0.82040  0.84720  Biso   1.000  B
  B6       1.0000 0.27090  0.32040  0.65280  Biso   1.000  B
  B7       1.0000 0.27090  0.17960  0.15280  Biso   1.000  B
  B8       1.0000 0.72910  0.67960  0.34720  Biso   1.000  B
  B9       1.0000 0.62730  0.78540  0.69430  Biso   1.000  B
  B10      1.0000 0.37270  0.28540  0.80570  Biso   1.000  B
  B11      1.0000 0.37270  0.21460  0.30570  Biso   1.000  B
  B12      1.0000 0.62730  0.71460  0.19430  Biso   1.000  B
  B13      1.0000 0.48620  0.86480  0.68790  Biso   1.000  B
  B14      1.0000 0.51380  0.36480  0.81210  Biso   1.000  B
  B15      1.0000 0.51380  0.13520  0.31210  Biso   1.000  B
  B16      1.0000 0.48620  0.63520  0.18790  Biso   1.000  B
  B17      1.0000 0.58970  0.89970  0.84000  Biso   1.000  B
  B18      1.0000 0.41030  0.39970  0.66000  Biso   1.000  B
  B19      1.0000 0.41030  0.10030  0.16000  Biso   1.000  B
  B20      1.0000 0.58970  0.60030  0.34000  Biso   1.000  B
  B21      1.0000 0.82270  0.83100  0.70230  Biso   1.000  B
  B22      1.0000 0.17730  0.33100  0.79770  Biso   1.000  B
  B23      1.0000 0.17730  0.16900  0.29770  Biso   1.000  B
  B24      1.0000 0.82270  0.66900  0.20230  Biso   1.000  B
  B25      1.0000 0.65350  0.86210  0.58740  Biso   1.000  B
  B26      1.0000 0.34650  0.36210  0.91260  Biso   1.000  B
  B27      1.0000 0.34650  0.13790  0.41260  Biso   1.000  B
  B28      1.0000 0.65350  0.63790  0.08740  Biso   1.000  B
  B29      1.0000 0.62400  0.94270  0.68920  Biso   1.000  B
  B30      1.0000 0.37600  0.44270  0.81080  Biso   1.000  B
  B31      1.0000 0.37600  0.05730  0.31080  Biso   1.000  B
  B32      1.0000 0.62400  0.55730  0.18920  Biso   1.000  B
  B33      1.0000 0.79270  0.91170  0.80480  Biso   1.000  B
  B34      1.0000 0.20730  0.41170  0.69520  Biso   1.000  B
  B35      1.0000 0.20730  0.08830  0.19520  Biso   1.000  B
  B36      1.0000 0.79270  0.58830  0.30480  Biso   1.000  B
  B37      1.0000 0.80490  0.91830  0.64500  Biso   1.000  B
  B38      1.0000 0.19510  0.41830  0.85500  Biso   1.000  B
  B39      1.0000 0.19510  0.08170  0.35500  Biso   1.000  B
  B40      1.0000 0.80490  0.58170  0.14500  Biso   1.000  B
  N1       1.0000 0.07460  0.90960  0.26340  Biso   1.000  N
  N2       1.0000 0.92540  0.40960  0.23660  Biso   1.000  N
  N3       1.0000 0.92540  0.09040  0.73660  Biso   1.000  N
  N4       1.0000 0.07460  0.59040  0.76340  Biso   1.000  N
  C1       1.0000 0.89410  0.91300  0.28210  Biso   1.000  C
  C2       1.0000 0.10590  0.41300  0.21790  Biso   1.000  C
  C3       1.0000 0.10590  0.08700  0.71790  Biso   1.000  C
  C4       1.0000 0.89410  0.58700  0.78210  Biso   1.000  C
  H1       1.0000 0.84790  0.86410  0.26430  Biso   1.000  H
  H2       1.0000 0.15210  0.36410  0.23570  Biso   1.000  H
  H3       1.0000 0.15210  0.13590  0.73570  Biso   1.000  H
  H4       1.0000 0.84790  0.63590  0.76430  Biso   1.000  H
  H5       1.0000 0.88610  0.92400  0.37220  Biso   1.000  H
  H6       1.0000 0.11390  0.42400  0.12780  Biso   1.000  H
  H7       1.0000 0.11390  0.07600  0.62780  Biso   1.000  H
  H8       1.0000 0.88610  0.57600  0.87220  Biso   1.000  H
  C5       1.0000 0.79980  0.96470  0.20600  Biso   1.000  C
  C6       1.0000 0.20020  0.46470  0.29400  Biso   1.000  C
  C7       1.0000 0.20020  0.03530  0.79400  Biso   1.000  C
  C8       1.0000 0.79980  0.53530  0.70600  Biso   1.000  C
  H9       1.0000 0.69040  0.96210  0.22520  Biso   1.000  H
  H10      1.0000 0.30960  0.46210  0.27480  Biso   1.000  H
  H11      1.0000 0.30960  0.03790  0.77480  Biso   1.000  H
  H12      1.0000 0.69040  0.53790  0.72520  Biso   1.000  H
  H13      1.0000 0.80290  0.95360  0.11620  Biso   1.000  H
  H14      1.0000 0.19710  0.45360  0.38380  Biso   1.000  H
  H15      1.0000 0.19710  0.04640  0.88380  Biso   1.000  H
  H16      1.0000 0.80290  0.54640  0.61620  Biso   1.000  H
  H17      1.0000 0.84140  0.01370  0.22430  Biso   1.000  H
  H18      1.0000 0.15860  0.51370  0.27570  Biso   1.000  H
  H19      1.0000 0.15860  0.98630  0.77570  Biso   1.000  H
  H20      1.0000 0.84140  0.48630  0.72430  Biso   1.000  H
  C9       1.0000 0.09780  0.87200  0.14050  Biso   1.000  C
  C10      1.0000 0.90220  0.37200  0.35950  Biso   1.000  C
  C11      1.0000 0.90220  0.12800  0.85950  Biso   1.000  C
  C12      1.0000 0.09780  0.62800  0.64050  Biso   1.000  C
  H21      1.0000 0.02010  0.89150  0.07210  Biso   1.000  H
  H22      1.0000 0.97990  0.39150  0.42790  Biso   1.000  H
  H23      1.0000 0.97990  0.10850  0.92790  Biso   1.000  H
  H24      1.0000 0.02010  0.60850  0.57210  Biso   1.000  H
  H25      1.0000 0.07590  0.81940  0.14890  Biso   1.000  H
  H26      1.0000 0.92410  0.31940  0.35110  Biso   1.000  H
  H27      1.0000 0.92410  0.18060  0.85110  Biso   1.000  H
  H28      1.0000 0.07590  0.68060  0.64890  Biso   1.000  H
  C13      1.0000 0.26370  0.88120  0.10230  Biso   1.000  C
  C14      1.0000 0.73630  0.38120  0.39770  Biso   1.000  C
  C15      1.0000 0.73630  0.11880  0.89770  Biso   1.000  C
  C16      1.0000 0.26370  0.61880  0.60230  Biso   1.000  C
  H29      1.0000 0.27020  0.85630  0.02170  Biso   1.000  H
  H30      1.0000 0.72980  0.35630  0.47830  Biso   1.000  H
  H31      1.0000 0.72980  0.14370  0.97830  Biso   1.000  H
  H32      1.0000 0.27020  0.64370  0.52170  Biso   1.000  H
  H33      1.0000 0.34120  0.86020  0.16780  Biso   1.000  H
  H34      1.0000 0.65880  0.36020  0.33220  Biso   1.000  H
  H35      1.0000 0.65880  0.13980  0.83220  Biso   1.000  H
  H36      1.0000 0.34120  0.63980  0.66780  Biso   1.000  H
  H37      1.0000 0.28620  0.93300  0.09290  Biso   1.000  H
  H38      1.0000 0.71380  0.43300  0.40710  Biso   1.000  H
  H39      1.0000 0.71380  0.06700  0.90710  Biso   1.000  H
  H40      1.0000 0.28620  0.56700  0.59290  Biso   1.000  H
  C17      1.0000 0.16450  0.88040  0.38500  Biso   1.000  C
  C18      1.0000 0.83550  0.38040  0.11500  Biso   1.000  C
  C19      1.0000 0.83550  0.11960  0.61500  Biso   1.000  C
  C20      1.0000 0.16450  0.61960  0.88500  Biso   1.000  C
  H41      1.0000 0.27890  0.88240  0.37710  Biso   1.000  H
  H42      1.0000 0.72110  0.38240  0.12290  Biso   1.000  H
  H43      1.0000 0.72110  0.11760  0.62290  Biso   1.000  H
  H44      1.0000 0.27890  0.61760  0.87710  Biso   1.000  H
  H45      1.0000 0.14490  0.91300  0.45550  Biso   1.000  H
  H46      1.0000 0.85510  0.41300  0.04450  Biso   1.000  H
  H47      1.0000 0.85510  0.08700  0.54450  Biso   1.000  H
  H48      1.0000 0.14490  0.58700  0.95550  Biso   1.000  H
  C21      1.0000 0.12300  0.80340  0.41950  Biso   1.000  C
  C22      1.0000 0.87700  0.30340  0.08050  Biso   1.000  C
  C23      1.0000 0.87700  0.19660  0.58050  Biso   1.000  C
  C24      1.0000 0.12300  0.69660  0.91950  Biso   1.000  C
  H49      1.0000 0.18680  0.78930  0.49860  Biso   1.000  H
  H50      1.0000 0.81320  0.28930  0.00140  Biso   1.000  H
  H51      1.0000 0.81320  0.21070  0.50140  Biso   1.000  H
  H52      1.0000 0.18680  0.71070  0.99860  Biso   1.000  H
  H53      1.0000 0.14470  0.77020  0.35160  Biso   1.000  H
  H54      1.0000 0.85530  0.27020  0.14840  Biso   1.000  H
  H55      1.0000 0.85530  0.22980  0.64840  Biso   1.000  H
  H56      1.0000 0.14470  0.72980  0.85160  Biso   1.000  H
  H57      1.0000 0.01070  0.80090  0.43050  Biso   1.000  H
  H58      1.0000 0.98930  0.30090  0.06950  Biso   1.000  H
  H59      1.0000 0.98930  0.19910  0.56950  Biso   1.000  H
  H60      1.0000 0.01070  0.69910  0.93050  Biso   1.000  H
  H61      1.0000 0.44300  0.77800  0.86600  Biso   1.000  H
  H62      1.0000 0.55700  0.27800  0.63400  Biso   1.000  H
  H63      1.0000 0.55700  0.22200  0.13400  Biso   1.000  H
  H64      1.0000 0.44300  0.72200  0.36600  Biso   1.000  H
  H65      1.0000 0.80800  0.79600  0.92200  Biso   1.000  H
  H66      1.0000 0.19200  0.29600  0.57800  Biso   1.000  H
  H67      1.0000 0.19200  0.20400  0.07800  Biso   1.000  H
  H68      1.0000 0.80800  0.70400  0.42200  Biso   1.000  H
  H69      1.0000 0.60900  0.73200  0.65700  Biso   1.000  H
  H70      1.0000 0.39100  0.23200  0.84300  Biso   1.000  H
  H71      1.0000 0.39100  0.26800  0.34300  Biso   1.000  H
  H72      1.0000 0.60900  0.76800  0.15700  Biso   1.000  H
  H73      1.0000 0.37600  0.87200  0.65300  Biso   1.000  H
  H74      1.0000 0.62400  0.37200  0.84700  Biso   1.000  H
  H75      1.0000 0.62400  0.12800  0.34700  Biso   1.000  H
  H76      1.0000 0.37600  0.62800  0.15300  Biso   1.000  H
  H77      1.0000 0.54800  0.93360  0.91300  Biso   1.000  H
  H78      1.0000 0.45200  0.43360  0.58700  Biso   1.000  H
  H79      1.0000 0.45200  0.06640  0.08700  Biso   1.000  H
  H80      1.0000 0.54800  0.56640  0.41300  Biso   1.000  H
  H81      1.0000 0.92600  0.80100  0.68500  Biso   1.000  H
  H82      1.0000 0.07400  0.30100  0.81500  Biso   1.000  H
  H83      1.0000 0.07400  0.19900  0.31500  Biso   1.000  H
  H84      1.0000 0.92600  0.69900  0.18500  Biso   1.000  H
  H85      1.0000 0.63700  0.85600  0.48400  Biso   1.000  H
  H86      1.0000 0.36300  0.35600  0.01600  Biso   1.000  H
  H87      1.0000 0.36300  0.14400  0.51600  Biso   1.000  H
  H88      1.0000 0.63700  0.64400  0.98400  Biso   1.000  H
  H89      1.0000 0.56000  0.99400  0.65800  Biso   1.000  H
  H90      1.0000 0.44000  0.49400  0.84200  Biso   1.000  H
  H91      1.0000 0.44000  0.00600  0.34200  Biso   1.000  H
  H92      1.0000 0.56000  0.50600  0.15800  Biso   1.000  H
  H93      1.0000 0.87800  0.93800  0.87400  Biso   1.000  H
  H94      1.0000 0.12200  0.43800  0.62600  Biso   1.000  H
  H95      1.0000 0.12200  0.06200  0.12600  Biso   1.000  H
  H96      1.0000 0.87800  0.56200  0.37400  Biso   1.000  H
  H97      1.0000 0.89300  0.95200  0.59400  Biso   1.000  H
  H98      1.0000 0.10700  0.45200  0.90600  Biso   1.000  H
  H99      1.0000 0.10700  0.04800  0.40600  Biso   1.000  H
  H100     1.0000 0.89300  0.54800  0.09400  Biso   1.000  H
  H101     1.0000 0.10900  0.96200  0.25500  Biso   1.000  H
  H102     1.0000 0.89100  0.46200  0.24500  Biso   1.000  H
  H103     1.0000 0.89100  0.03800  0.74500  Biso   1.000  H
  H104     1.0000 0.10900  0.53800  0.75500  Biso   1.000  H
