data_image0
_cell_length_a       7.4652
_cell_length_b       19.9503
_cell_length_c       8.83
_cell_angle_alpha    90
_cell_angle_beta     111.202
_cell_angle_gamma    90

_symmetry_space_group_name_H-M    "P 1"
_symmetry_int_tables_number       1

loop_
  _symmetry_equiv_pos_as_xyz
  'x, y, z'

loop_
  _atom_site_label
  _atom_site_occupancy
  _atom_site_fract_x
  _atom_site_fract_y
  _atom_site_fract_z
  _atom_site_thermal_displace_type
  _atom_site_B_iso_or_equiv
  _atom_site_type_symbol
  Br1      1.0000 0.36639  0.46819  0.15072  Biso   1.000  Br
  Br2      1.0000 0.63361  0.96819  0.34928  Biso   1.000  Br
  Br3      1.0000 0.63361  0.53181  0.84928  Biso   1.000  Br
  Br4      1.0000 0.36639  0.03181  0.65072  Biso   1.000  Br
  Cu1      1.0000 0.44645  0.43125  0.91624  Biso   1.000  Cu
  Cu2      1.0000 0.55355  0.93125  0.58376  Biso   1.000  Cu
  Cu3      1.0000 0.55355  0.56875  0.08376  Biso   1.000  Cu
  Cu4      1.0000 0.44645  0.06875  0.41624  Biso   1.000  Cu
  S1       1.0000 0.43097  0.36828  0.58412  Biso   1.000  S
  S2       1.0000 0.56903  0.86828  0.91588  Biso   1.000  S
  S3       1.0000 0.56903  0.63172  0.41588  Biso   1.000  S
  S4       1.0000 0.43097  0.13172  0.08412  Biso   1.000  S
  S5       1.0000 0.37045  0.22923  0.43133  Biso   1.000  S
  S6       1.0000 0.62955  0.72923  0.06867  Biso   1.000  S
  S7       1.0000 0.62955  0.77077  0.56867  Biso   1.000  S
  S8       1.0000 0.37045  0.27077  0.93133  Biso   1.000  S
  N1       1.0000 0.20510  0.42344  0.71560  Biso   1.000  N
  N2       1.0000 0.79490  0.92344  0.78440  Biso   1.000  N
  N3       1.0000 0.79490  0.57656  0.28440  Biso   1.000  N
  N4       1.0000 0.20510  0.07656  0.21560  Biso   1.000  N
  N5       1.0000 0.64870  0.14248  0.48270  Biso   1.000  N
  N6       1.0000 0.35130  0.64248  0.01730  Biso   1.000  N
  N7       1.0000 0.35130  0.85752  0.51730  Biso   1.000  N
  N8       1.0000 0.64870  0.35752  0.98270  Biso   1.000  N
  C1       1.0000 0.20350  0.39516  0.57660  Biso   1.000  C
  C2       1.0000 0.79650  0.89516  0.92340  Biso   1.000  C
  C3       1.0000 0.79650  0.60484  0.42340  Biso   1.000  C
  C4       1.0000 0.20350  0.10484  0.07660  Biso   1.000  C
  N9       1.0000 0.05070  0.38781  0.44060  Biso   1.000  N
  N10      1.0000 0.94930  0.88781  0.05940  Biso   1.000  N
  N11      1.0000 0.94930  0.61219  0.55940  Biso   1.000  N
  N12      1.0000 0.05070  0.11219  0.94060  Biso   1.000  N
  C5       1.0000 0.86910  0.44203  0.57920  Biso   1.000  C
  C6       1.0000 0.13090  0.94203  0.92080  Biso   1.000  C
  C7       1.0000 0.13090  0.55797  0.42080  Biso   1.000  C
  C8       1.0000 0.86910  0.05797  0.07920  Biso   1.000  C
  H1       1.0000 0.75290  0.45880  0.57920  Biso   1.000  H
  H2       1.0000 0.24710  0.95880  0.92080  Biso   1.000  H
  H3       1.0000 0.24710  0.54120  0.42080  Biso   1.000  H
  H4       1.0000 0.75290  0.04120  0.07920  Biso   1.000  H
  C9       1.0000 0.83090  0.12509  0.51160  Biso   1.000  C
  C10      1.0000 0.16910  0.62509  0.98840  Biso   1.000  C
  C11      1.0000 0.16910  0.87491  0.48840  Biso   1.000  C
  C12      1.0000 0.83090  0.37491  0.01160  Biso   1.000  C
  H5       1.0000 0.86290  0.07980  0.52030  Biso   1.000  H
  H6       1.0000 0.13710  0.57980  0.97970  Biso   1.000  H
  H7       1.0000 0.13710  0.92020  0.47970  Biso   1.000  H
  H8       1.0000 0.86290  0.42020  0.02030  Biso   1.000  H
  C13      1.0000 0.03510  0.44653  0.71320  Biso   1.000  C
  C14      1.0000 0.96490  0.94653  0.78680  Biso   1.000  C
  C15      1.0000 0.96490  0.55347  0.28680  Biso   1.000  C
  C16      1.0000 0.03510  0.05347  0.21320  Biso   1.000  C
  H9       1.0000 0.02960  0.46650  0.80660  Biso   1.000  H
  H10      1.0000 0.97040  0.96650  0.69340  Biso   1.000  H
  H11      1.0000 0.97040  0.53350  0.19340  Biso   1.000  H
  H12      1.0000 0.02960  0.03350  0.30660  Biso   1.000  H
  C17      1.0000 0.97120  0.17118  0.52890  Biso   1.000  C
  C18      1.0000 0.02880  0.67118  0.97110  Biso   1.000  C
  C19      1.0000 0.02880  0.82882  0.47110  Biso   1.000  C
  C20      1.0000 0.97120  0.32882  0.02890  Biso   1.000  C
  H13      1.0000 0.09680  0.15860  0.54560  Biso   1.000  H
  H14      1.0000 0.90320  0.65860  0.95440  Biso   1.000  H
  H15      1.0000 0.90320  0.84140  0.45440  Biso   1.000  H
  H16      1.0000 0.09680  0.34140  0.04560  Biso   1.000  H
  C21      1.0000 0.88410  0.41140  0.44510  Biso   1.000  C
  C22      1.0000 0.11590  0.91140  0.05490  Biso   1.000  C
  C23      1.0000 0.11590  0.58860  0.55490  Biso   1.000  C
  C24      1.0000 0.88410  0.08860  0.94510  Biso   1.000  C
  H17      1.0000 0.77360  0.40670  0.35290  Biso   1.000  H
  H18      1.0000 0.22640  0.90670  0.14710  Biso   1.000  H
  H19      1.0000 0.22640  0.59330  0.64710  Biso   1.000  H
  H20      1.0000 0.77360  0.09330  0.85290  Biso   1.000  H
  C25      1.0000 0.61240  0.20847  0.47460  Biso   1.000  C
  C26      1.0000 0.38760  0.70847  0.02540  Biso   1.000  C
  C27      1.0000 0.38760  0.79153  0.52540  Biso   1.000  C
  C28      1.0000 0.61240  0.29153  0.97460  Biso   1.000  C
  N13      1.0000 0.73910  0.25672  0.49430  Biso   1.000  N
  N14      1.0000 0.26090  0.75672  0.00570  Biso   1.000  N
  N15      1.0000 0.26090  0.74328  0.50570  Biso   1.000  N
  N16      1.0000 0.73910  0.24328  0.99430  Biso   1.000  N
  C29      1.0000 0.91840  0.23620  0.52040  Biso   1.000  C
  C30      1.0000 0.08160  0.73620  0.97960  Biso   1.000  C
  C31      1.0000 0.08160  0.76380  0.47960  Biso   1.000  C
  C32      1.0000 0.91840  0.26380  0.02040  Biso   1.000  C
  H21      1.0000 0.01220  0.26860  0.53350  Biso   1.000  H
  H22      1.0000 0.98780  0.76860  0.96650  Biso   1.000  H
  H23      1.0000 0.98780  0.73140  0.46650  Biso   1.000  H
  H24      1.0000 0.01220  0.23140  0.03350  Biso   1.000  H
  C33      1.0000 0.37100  0.31867  0.40290  Biso   1.000  C
  C34      1.0000 0.62900  0.81867  0.09710  Biso   1.000  C
  C35      1.0000 0.62900  0.68133  0.59710  Biso   1.000  C
  C36      1.0000 0.37100  0.18133  0.90290  Biso   1.000  C
  H25      1.0000 0.46160  0.32910  0.35050  Biso   1.000  H
  H26      1.0000 0.53840  0.82910  0.14950  Biso   1.000  H
  H27      1.0000 0.53840  0.67090  0.64950  Biso   1.000  H
  H28      1.0000 0.46160  0.17090  0.85050  Biso   1.000  H
  H29      1.0000 0.24450  0.33200  0.32920  Biso   1.000  H
  H30      1.0000 0.75550  0.83200  0.17080  Biso   1.000  H
  H31      1.0000 0.75550  0.66800  0.67080  Biso   1.000  H
  H32      1.0000 0.24450  0.16800  0.82920  Biso   1.000  H
