data_image0
_cell_length_a       7.4615
_cell_length_b       19.921
_cell_length_c       8.8263
_cell_angle_alpha    90
_cell_angle_beta     111.281
_cell_angle_gamma    90

_symmetry_space_group_name_H-M    "P 1"
_symmetry_int_tables_number       1

loop_
  _symmetry_equiv_pos_as_xyz
  'x, y, z'

loop_
  _atom_site_label
  _atom_site_occupancy
  _atom_site_fract_x
  _atom_site_fract_y
  _atom_site_fract_z
  _atom_site_thermal_displace_type
  _atom_site_B_iso_or_equiv
  _atom_site_type_symbol
  Br1      1.0000 0.13333  0.53183  0.34906  Biso   1.000  Br
  Br2      1.0000 0.86667  0.03183  0.15094  Biso   1.000  Br
  Br3      1.0000 0.86667  0.46817  0.65094  Biso   1.000  Br
  Br4      1.0000 0.13333  0.96817  0.84906  Biso   1.000  Br
  Cu1      1.0000 0.05341  0.56823  0.58332  Biso   1.000  Cu
  Cu2      1.0000 0.94659  0.06823  0.91668  Biso   1.000  Cu
  Cu3      1.0000 0.94659  0.43177  0.41668  Biso   1.000  Cu
  Cu4      1.0000 0.05341  0.93177  0.08332  Biso   1.000  Cu
  S1       1.0000 0.06942  0.63195  0.91543  Biso   1.000  S
  S2       1.0000 0.93058  0.13195  0.58457  Biso   1.000  S
  S3       1.0000 0.93058  0.36805  0.08457  Biso   1.000  S
  S4       1.0000 0.06942  0.86805  0.41543  Biso   1.000  S
  S5       1.0000 0.12945  0.77104  0.06886  Biso   1.000  S
  S6       1.0000 0.87055  0.27104  0.43114  Biso   1.000  S
  S7       1.0000 0.87055  0.22896  0.93114  Biso   1.000  S
  S8       1.0000 0.12945  0.72896  0.56886  Biso   1.000  S
  N1       1.0000 0.45070  0.61249  0.05810  Biso   1.000  N
  N2       1.0000 0.54930  0.11249  0.44190  Biso   1.000  N
  N3       1.0000 0.54930  0.38751  0.94190  Biso   1.000  N
  N4       1.0000 0.45070  0.88751  0.55810  Biso   1.000  N
  N5       1.0000 0.29600  0.57654  0.78360  Biso   1.000  N
  N6       1.0000 0.70400  0.07654  0.71640  Biso   1.000  N
  N7       1.0000 0.70400  0.42346  0.21640  Biso   1.000  N
  N8       1.0000 0.29600  0.92346  0.28360  Biso   1.000  N
  N9       1.0000 0.85130  0.85781  0.01710  Biso   1.000  N
  N10      1.0000 0.14870  0.35781  0.48290  Biso   1.000  N
  N11      1.0000 0.14870  0.14219  0.98290  Biso   1.000  N
  N12      1.0000 0.85130  0.64219  0.51710  Biso   1.000  N
  N13      1.0000 0.76140  0.74366  0.00410  Biso   1.000  N
  N14      1.0000 0.23860  0.24366  0.49590  Biso   1.000  N
  N15      1.0000 0.23860  0.25634  0.99590  Biso   1.000  N
  N16      1.0000 0.76140  0.75634  0.50410  Biso   1.000  N
  C1       1.0000 0.12880  0.68182  0.09680  Biso   1.000  C
  C2       1.0000 0.87120  0.18182  0.40320  Biso   1.000  C
  C3       1.0000 0.87120  0.31818  0.90320  Biso   1.000  C
  C4       1.0000 0.12880  0.81818  0.59680  Biso   1.000  C
  H1       1.0000 0.03780  0.67140  0.14870  Biso   1.000  H
  H2       1.0000 0.96220  0.17140  0.35130  Biso   1.000  H
  H3       1.0000 0.96220  0.32860  0.85130  Biso   1.000  H
  H4       1.0000 0.03780  0.82860  0.64870  Biso   1.000  H
  H5       1.0000 0.25530  0.66850  0.17090  Biso   1.000  H
  H6       1.0000 0.74470  0.16850  0.32910  Biso   1.000  H
  H7       1.0000 0.74470  0.33150  0.82910  Biso   1.000  H
  H8       1.0000 0.25530  0.83150  0.67090  Biso   1.000  H
  C5       1.0000 0.29650  0.60505  0.92330  Biso   1.000  C
  C6       1.0000 0.70350  0.10505  0.57670  Biso   1.000  C
  C7       1.0000 0.70350  0.39495  0.07670  Biso   1.000  C
  C8       1.0000 0.29650  0.89495  0.42330  Biso   1.000  C
  C9       1.0000 0.61670  0.58880  0.05370  Biso   1.000  C
  C10      1.0000 0.38330  0.08880  0.44630  Biso   1.000  C
  C11      1.0000 0.38330  0.41120  0.94630  Biso   1.000  C
  C12      1.0000 0.61670  0.91120  0.55370  Biso   1.000  C
  H9       1.0000 0.72730  0.59360  0.14590  Biso   1.000  H
  H10      1.0000 0.27270  0.09360  0.35410  Biso   1.000  H
  H11      1.0000 0.27270  0.40640  0.85410  Biso   1.000  H
  H12      1.0000 0.72730  0.90640  0.64590  Biso   1.000  H
  C13      1.0000 0.63170  0.55800  0.92070  Biso   1.000  C
  C14      1.0000 0.36830  0.05800  0.57930  Biso   1.000  C
  C15      1.0000 0.36830  0.44200  0.07930  Biso   1.000  C
  C16      1.0000 0.63170  0.94200  0.42070  Biso   1.000  C
  H13      1.0000 0.74790  0.54110  0.92080  Biso   1.000  H
  H14      1.0000 0.25210  0.04110  0.57920  Biso   1.000  H
  H15      1.0000 0.25210  0.45890  0.07920  Biso   1.000  H
  H16      1.0000 0.74790  0.95890  0.42080  Biso   1.000  H
  C17      1.0000 0.46400  0.55347  0.78590  Biso   1.000  C
  C18      1.0000 0.53600  0.05347  0.71410  Biso   1.000  C
  C19      1.0000 0.53600  0.44653  0.21410  Biso   1.000  C
  C20      1.0000 0.46400  0.94653  0.28590  Biso   1.000  C
  H17      1.0000 0.46900  0.53330  0.69250  Biso   1.000  H
  H18      1.0000 0.53100  0.03330  0.80750  Biso   1.000  H
  H19      1.0000 0.53100  0.46670  0.30750  Biso   1.000  H
  H20      1.0000 0.46900  0.96670  0.19250  Biso   1.000  H
  C21      1.0000 0.88820  0.79138  0.02460  Biso   1.000  C
  C22      1.0000 0.11180  0.29138  0.47540  Biso   1.000  C
  C23      1.0000 0.11180  0.20862  0.97540  Biso   1.000  C
  C24      1.0000 0.88820  0.70862  0.52460  Biso   1.000  C
  C25      1.0000 0.58180  0.76380  0.97680  Biso   1.000  C
  C26      1.0000 0.41820  0.26380  0.52320  Biso   1.000  C
  C27      1.0000 0.41820  0.23620  0.02320  Biso   1.000  C
  C28      1.0000 0.58180  0.73620  0.47680  Biso   1.000  C
  H21      1.0000 0.48790  0.73100  0.96100  Biso   1.000  H
  H22      1.0000 0.51210  0.23100  0.53900  Biso   1.000  H
  H23      1.0000 0.51210  0.26900  0.03900  Biso   1.000  H
  H24      1.0000 0.48790  0.76900  0.46100  Biso   1.000  H
  C29      1.0000 0.52780  0.82860  0.97070  Biso   1.000  C
  C30      1.0000 0.47220  0.32860  0.52930  Biso   1.000  C
  C31      1.0000 0.47220  0.17140  0.02930  Biso   1.000  C
  C32      1.0000 0.52780  0.67140  0.47070  Biso   1.000  C
  H25      1.0000 0.40240  0.84120  0.95540  Biso   1.000  H
  H26      1.0000 0.59760  0.34120  0.54460  Biso   1.000  H
  H27      1.0000 0.59760  0.15880  0.04460  Biso   1.000  H
  H28      1.0000 0.40240  0.65880  0.45540  Biso   1.000  H
  C33      1.0000 0.66900  0.87450  0.98830  Biso   1.000  C
  C34      1.0000 0.33100  0.37450  0.51170  Biso   1.000  C
  C35      1.0000 0.33100  0.12550  0.01170  Biso   1.000  C
  C36      1.0000 0.66900  0.62550  0.48830  Biso   1.000  C
  H29      1.0000 0.63670  0.91980  0.97980  Biso   1.000  H
  H30      1.0000 0.36330  0.41980  0.52020  Biso   1.000  H
  H31      1.0000 0.36330  0.08020  0.02020  Biso   1.000  H
  H32      1.0000 0.63670  0.58020  0.47980  Biso   1.000  H
