data_image0
_cell_length_a       10.9364
_cell_length_b       17.7748
_cell_length_c       14.4837
_cell_angle_alpha    90
_cell_angle_beta     110.149
_cell_angle_gamma    90

_symmetry_space_group_name_H-M    "P 1"
_symmetry_int_tables_number       1

loop_
  _symmetry_equiv_pos_as_xyz
  'x, y, z'

loop_
  _atom_site_label
  _atom_site_occupancy
  _atom_site_fract_x
  _atom_site_fract_y
  _atom_site_fract_z
  _atom_site_thermal_displace_type
  _atom_site_B_iso_or_equiv
  _atom_site_type_symbol
  Mo1      1.0000 0.00000  0.22138  0.25000  Biso   1.000  Mo
  Mo2      1.0000 0.50000  0.72138  0.25000  Biso   1.000  Mo
  Mo3      1.0000 0.00000  0.77862  0.75000  Biso   1.000  Mo
  Mo4      1.0000 0.50000  0.27862  0.75000  Biso   1.000  Mo
  Cu1      1.0000 0.10342  0.04088  0.18475  Biso   1.000  Cu
  Cu2      1.0000 0.60342  0.54088  0.18475  Biso   1.000  Cu
  Cu3      1.0000 0.10342  0.95912  0.68475  Biso   1.000  Cu
  Cu4      1.0000 0.60342  0.45912  0.68475  Biso   1.000  Cu
  Cu5      1.0000 0.89658  0.95912  0.81525  Biso   1.000  Cu
  Cu6      1.0000 0.39658  0.45912  0.81525  Biso   1.000  Cu
  Cu7      1.0000 0.89658  0.04088  0.31525  Biso   1.000  Cu
  Cu8      1.0000 0.39658  0.54088  0.31525  Biso   1.000  Cu
  O1       1.0000 0.09170  0.16440  0.19910  Biso   1.000  O
  O2       1.0000 0.59170  0.66440  0.19910  Biso   1.000  O
  O3       1.0000 0.09170  0.83560  0.69910  Biso   1.000  O
  O4       1.0000 0.59170  0.33560  0.69910  Biso   1.000  O
  O5       1.0000 0.90830  0.83560  0.80090  Biso   1.000  O
  O6       1.0000 0.40830  0.33560  0.80090  Biso   1.000  O
  O7       1.0000 0.90830  0.16440  0.30090  Biso   1.000  O
  O8       1.0000 0.40830  0.66440  0.30090  Biso   1.000  O
  O9       1.0000 0.89560  0.27790  0.15770  Biso   1.000  O
  O10      1.0000 0.39560  0.77790  0.15770  Biso   1.000  O
  O11      1.0000 0.89560  0.72210  0.65770  Biso   1.000  O
  O12      1.0000 0.39560  0.22210  0.65770  Biso   1.000  O
  O13      1.0000 0.10440  0.72210  0.84230  Biso   1.000  O
  O14      1.0000 0.60440  0.22210  0.84230  Biso   1.000  O
  O15      1.0000 0.10440  0.27790  0.34230  Biso   1.000  O
  O16      1.0000 0.60440  0.77790  0.34230  Biso   1.000  O
  N1       1.0000 0.93620  0.02150  0.08900  Biso   1.000  N
  N2       1.0000 0.43620  0.52150  0.08900  Biso   1.000  N
  N3       1.0000 0.93620  0.97850  0.58900  Biso   1.000  N
  N4       1.0000 0.43620  0.47850  0.58900  Biso   1.000  N
  N5       1.0000 0.06380  0.97850  0.91100  Biso   1.000  N
  N6       1.0000 0.56380  0.47850  0.91100  Biso   1.000  N
  N7       1.0000 0.06380  0.02150  0.41100  Biso   1.000  N
  N8       1.0000 0.56380  0.52150  0.41100  Biso   1.000  N
  N9       1.0000 0.27950  0.97340  0.77110  Biso   1.000  N
  N10      1.0000 0.77950  0.47340  0.77110  Biso   1.000  N
  N11      1.0000 0.27950  0.02660  0.27110  Biso   1.000  N
  N12      1.0000 0.77950  0.52660  0.27110  Biso   1.000  N
  N13      1.0000 0.72050  0.02660  0.22890  Biso   1.000  N
  N14      1.0000 0.22050  0.52660  0.22890  Biso   1.000  N
  N15      1.0000 0.72050  0.97340  0.72890  Biso   1.000  N
  N16      1.0000 0.22050  0.47340  0.72890  Biso   1.000  N
  C1       1.0000 0.73940  0.07100  0.96960  Biso   1.000  C
  C2       1.0000 0.23940  0.57100  0.96960  Biso   1.000  C
  C3       1.0000 0.73940  0.92900  0.46960  Biso   1.000  C
  C4       1.0000 0.23940  0.42900  0.46960  Biso   1.000  C
  C5       1.0000 0.26060  0.92900  0.03040  Biso   1.000  C
  C6       1.0000 0.76060  0.42900  0.03040  Biso   1.000  C
  C7       1.0000 0.26060  0.07100  0.53040  Biso   1.000  C
  C8       1.0000 0.76060  0.57100  0.53040  Biso   1.000  C
  H1       1.0000 0.69520  0.11230  0.93420  Biso   1.000  H
  H2       1.0000 0.19520  0.61230  0.93420  Biso   1.000  H
  H3       1.0000 0.69520  0.88770  0.43420  Biso   1.000  H
  H4       1.0000 0.19520  0.38770  0.43420  Biso   1.000  H
  H5       1.0000 0.30480  0.88770  0.06580  Biso   1.000  H
  H6       1.0000 0.80480  0.38770  0.06580  Biso   1.000  H
  H7       1.0000 0.30480  0.11230  0.56580  Biso   1.000  H
  H8       1.0000 0.80480  0.61230  0.56580  Biso   1.000  H
  C9       1.0000 0.54050  0.99100  0.89320  Biso   1.000  C
  C10      1.0000 0.04050  0.49100  0.89320  Biso   1.000  C
  C11      1.0000 0.54050  0.00900  0.39320  Biso   1.000  C
  C12      1.0000 0.04050  0.50900  0.39320  Biso   1.000  C
  C13      1.0000 0.45950  0.00900  0.10680  Biso   1.000  C
  C14      1.0000 0.95950  0.50900  0.10680  Biso   1.000  C
  C15      1.0000 0.45950  0.99100  0.60680  Biso   1.000  C
  C16      1.0000 0.95950  0.49100  0.60680  Biso   1.000  C
  C17      1.0000 0.86550  0.07930  0.03430  Biso   1.000  C
  C18      1.0000 0.36550  0.57930  0.03430  Biso   1.000  C
  C19      1.0000 0.86550  0.92070  0.53430  Biso   1.000  C
  C20      1.0000 0.36550  0.42070  0.53430  Biso   1.000  C
  C21      1.0000 0.13450  0.92070  0.96570  Biso   1.000  C
  C22      1.0000 0.63450  0.42070  0.96570  Biso   1.000  C
  C23      1.0000 0.13450  0.07930  0.46570  Biso   1.000  C
  C24      1.0000 0.63450  0.57930  0.46570  Biso   1.000  C
  H9       1.0000 0.90400  0.12660  0.04080  Biso   1.000  H
  H10      1.0000 0.40400  0.62660  0.04080  Biso   1.000  H
  H11      1.0000 0.90400  0.87340  0.54080  Biso   1.000  H
  H12      1.0000 0.40400  0.37340  0.54080  Biso   1.000  H
  H13      1.0000 0.09600  0.87340  0.95920  Biso   1.000  H
  H14      1.0000 0.59600  0.37340  0.95920  Biso   1.000  H
  H15      1.0000 0.09600  0.12660  0.45920  Biso   1.000  H
  H16      1.0000 0.59600  0.62660  0.45920  Biso   1.000  H
  C25      1.0000 0.48250  0.92050  0.87110  Biso   1.000  C
  C26      1.0000 0.98250  0.42050  0.87110  Biso   1.000  C
  C27      1.0000 0.48250  0.07950  0.37110  Biso   1.000  C
  C28      1.0000 0.98250  0.57950  0.37110  Biso   1.000  C
  C29      1.0000 0.51750  0.07950  0.12890  Biso   1.000  C
  C30      1.0000 0.01750  0.57950  0.12890  Biso   1.000  C
  C31      1.0000 0.51750  0.92050  0.62890  Biso   1.000  C
  C32      1.0000 0.01750  0.42050  0.62890  Biso   1.000  C
  H17      1.0000 0.53040  0.87750  0.89670  Biso   1.000  H
  H18      1.0000 0.03040  0.37750  0.89670  Biso   1.000  H
  H19      1.0000 0.53040  0.12250  0.39670  Biso   1.000  H
  H20      1.0000 0.03040  0.62250  0.39670  Biso   1.000  H
  H21      1.0000 0.46960  0.12250  0.10330  Biso   1.000  H
  H22      1.0000 0.96960  0.62250  0.10330  Biso   1.000  H
  H23      1.0000 0.46960  0.87750  0.60330  Biso   1.000  H
  H24      1.0000 0.96960  0.37750  0.60330  Biso   1.000  H
  C33      1.0000 0.87900  0.95250  0.07220  Biso   1.000  C
  C34      1.0000 0.37900  0.45250  0.07220  Biso   1.000  C
  C35      1.0000 0.87900  0.04750  0.57220  Biso   1.000  C
  C36      1.0000 0.37900  0.54750  0.57220  Biso   1.000  C
  C37      1.0000 0.12100  0.04750  0.92780  Biso   1.000  C
  C38      1.0000 0.62100  0.54750  0.92780  Biso   1.000  C
  C39      1.0000 0.12100  0.95250  0.42780  Biso   1.000  C
  C40      1.0000 0.62100  0.45250  0.42780  Biso   1.000  C
  H25      1.0000 0.92760  0.91130  0.10440  Biso   1.000  H
  H26      1.0000 0.42760  0.41130  0.10440  Biso   1.000  H
  H27      1.0000 0.92760  0.08870  0.60440  Biso   1.000  H
  H28      1.0000 0.42760  0.58870  0.60440  Biso   1.000  H
  H29      1.0000 0.07240  0.08870  0.89560  Biso   1.000  H
  H30      1.0000 0.57240  0.58870  0.89560  Biso   1.000  H
  H31      1.0000 0.07240  0.91130  0.39560  Biso   1.000  H
  H32      1.0000 0.57240  0.41130  0.39560  Biso   1.000  H
  C41      1.0000 0.35420  0.91450  0.81140  Biso   1.000  C
  C42      1.0000 0.85420  0.41450  0.81140  Biso   1.000  C
  C43      1.0000 0.35420  0.08550  0.31140  Biso   1.000  C
  C44      1.0000 0.85420  0.58550  0.31140  Biso   1.000  C
  C45      1.0000 0.64580  0.08550  0.18860  Biso   1.000  C
  C46      1.0000 0.14580  0.58550  0.18860  Biso   1.000  C
  C47      1.0000 0.64580  0.91450  0.68860  Biso   1.000  C
  C48      1.0000 0.14580  0.41450  0.68860  Biso   1.000  C
  H33      1.0000 0.31760  0.86680  0.79850  Biso   1.000  H
  H34      1.0000 0.81760  0.36680  0.79850  Biso   1.000  H
  H35      1.0000 0.31760  0.13320  0.29850  Biso   1.000  H
  H36      1.0000 0.81760  0.63320  0.29850  Biso   1.000  H
  H37      1.0000 0.68240  0.13320  0.20150  Biso   1.000  H
  H38      1.0000 0.18240  0.63320  0.20150  Biso   1.000  H
  H39      1.0000 0.68240  0.86680  0.70150  Biso   1.000  H
  H40      1.0000 0.18240  0.36680  0.70150  Biso   1.000  H
  C49      1.0000 0.33490  0.04140  0.79180  Biso   1.000  C
  C50      1.0000 0.83490  0.54140  0.79180  Biso   1.000  C
  C51      1.0000 0.33490  0.95860  0.29180  Biso   1.000  C
  C52      1.0000 0.83490  0.45860  0.29180  Biso   1.000  C
  C53      1.0000 0.66510  0.95860  0.20820  Biso   1.000  C
  C54      1.0000 0.16510  0.45860  0.20820  Biso   1.000  C
  C55      1.0000 0.66510  0.04140  0.70820  Biso   1.000  C
  C56      1.0000 0.16510  0.54140  0.70820  Biso   1.000  C
  H41      1.0000 0.28520  0.08350  0.76410  Biso   1.000  H
  H42      1.0000 0.78520  0.58350  0.76410  Biso   1.000  H
  H43      1.0000 0.28520  0.91650  0.26410  Biso   1.000  H
  H44      1.0000 0.78520  0.41650  0.26410  Biso   1.000  H
  H45      1.0000 0.71480  0.91650  0.23590  Biso   1.000  H
  H46      1.0000 0.21480  0.41650  0.23590  Biso   1.000  H
  H47      1.0000 0.71480  0.08350  0.73590  Biso   1.000  H
  H48      1.0000 0.21480  0.58350  0.73590  Biso   1.000  H
  C57      1.0000 0.46330  0.05200  0.85260  Biso   1.000  C
  C58      1.0000 0.96330  0.55200  0.85260  Biso   1.000  C
  C59      1.0000 0.46330  0.94800  0.35260  Biso   1.000  C
  C60      1.0000 0.96330  0.44800  0.35260  Biso   1.000  C
  C61      1.0000 0.53670  0.94800  0.14740  Biso   1.000  C
  C62      1.0000 0.03670  0.44800  0.14740  Biso   1.000  C
  C63      1.0000 0.53670  0.05200  0.64740  Biso   1.000  C
  C64      1.0000 0.03670  0.55200  0.64740  Biso   1.000  C
  H49      1.0000 0.49710  0.10040  0.86580  Biso   1.000  H
  H50      1.0000 0.99710  0.60040  0.86580  Biso   1.000  H
  H51      1.0000 0.49710  0.89960  0.36580  Biso   1.000  H
  H52      1.0000 0.99710  0.39960  0.36580  Biso   1.000  H
  H53      1.0000 0.50290  0.89960  0.13420  Biso   1.000  H
  H54      1.0000 0.00290  0.39960  0.13420  Biso   1.000  H
  H55      1.0000 0.50290  0.10040  0.63420  Biso   1.000  H
  H56      1.0000 0.00290  0.60040  0.63420  Biso   1.000  H
  C65      1.0000 0.75510  0.94030  0.01120  Biso   1.000  C
  C66      1.0000 0.25510  0.44030  0.01120  Biso   1.000  C
  C67      1.0000 0.75510  0.05970  0.51120  Biso   1.000  C
  C68      1.0000 0.25510  0.55970  0.51120  Biso   1.000  C
  C69      1.0000 0.24490  0.05970  0.98880  Biso   1.000  C
  C70      1.0000 0.74490  0.55970  0.98880  Biso   1.000  C
  C71      1.0000 0.24490  0.94030  0.48880  Biso   1.000  C
  C72      1.0000 0.74490  0.44030  0.48880  Biso   1.000  C
  H57      1.0000 0.71990  0.89220  0.00430  Biso   1.000  H
  H58      1.0000 0.21990  0.39220  0.00430  Biso   1.000  H
  H59      1.0000 0.71990  0.10780  0.50430  Biso   1.000  H
  H60      1.0000 0.21990  0.60780  0.50430  Biso   1.000  H
  H61      1.0000 0.28010  0.10780  0.99570  Biso   1.000  H
  H62      1.0000 0.78010  0.60780  0.99570  Biso   1.000  H
  H63      1.0000 0.28010  0.89220  0.49570  Biso   1.000  H
  H64      1.0000 0.78010  0.39220  0.49570  Biso   1.000  H
  C73      1.0000 0.67870  0.00190  0.95730  Biso   1.000  C
  C74      1.0000 0.17870  0.50190  0.95730  Biso   1.000  C
  C75      1.0000 0.67870  0.99810  0.45730  Biso   1.000  C
  C76      1.0000 0.17870  0.49810  0.45730  Biso   1.000  C
  C77      1.0000 0.32130  0.99810  0.04270  Biso   1.000  C
  C78      1.0000 0.82130  0.49810  0.04270  Biso   1.000  C
  C79      1.0000 0.32130  0.00190  0.54270  Biso   1.000  C
  C80      1.0000 0.82130  0.50190  0.54270  Biso   1.000  C
  O17      1.0000 0.86870  0.25410  0.94660  Biso   1.000  O
  O18      1.0000 0.36870  0.75410  0.94660  Biso   1.000  O
  O19      1.0000 0.86870  0.74590  0.44660  Biso   1.000  O
  O20      1.0000 0.36870  0.24590  0.44660  Biso   1.000  O
  O21      1.0000 0.13130  0.74590  0.05340  Biso   1.000  O
  O22      1.0000 0.63130  0.24590  0.05340  Biso   1.000  O
  O23      1.0000 0.13130  0.25410  0.55340  Biso   1.000  O
  O24      1.0000 0.63130  0.75410  0.55340  Biso   1.000  O
  O25      1.0000 0.74600  0.74600  0.10300  Biso   1.000  O
  O26      1.0000 0.24600  0.24600  0.10300  Biso   1.000  O
  O27      1.0000 0.74600  0.25400  0.60300  Biso   1.000  O
  O28      1.0000 0.24600  0.75400  0.60300  Biso   1.000  O
  O29      1.0000 0.25400  0.25400  0.89700  Biso   1.000  O
  O30      1.0000 0.75400  0.75400  0.89700  Biso   1.000  O
  O31      1.0000 0.25400  0.74600  0.39700  Biso   1.000  O
  O32      1.0000 0.75400  0.24600  0.39700  Biso   1.000  O
  O33      1.0000 0.91300  0.19900  0.79900  Biso   1.000  O
  O34      1.0000 0.41300  0.69900  0.79900  Biso   1.000  O
  O35      1.0000 0.91300  0.80100  0.29900  Biso   1.000  O
  O36      1.0000 0.41300  0.30100  0.29900  Biso   1.000  O
  O37      1.0000 0.08700  0.80100  0.20100  Biso   1.000  O
  O38      1.0000 0.58700  0.30100  0.20100  Biso   1.000  O
  O39      1.0000 0.08700  0.19900  0.70100  Biso   1.000  O
  O40      1.0000 0.58700  0.69900  0.70100  Biso   1.000  O
