data_image0
_cell_length_a       10.851
_cell_length_b       10.953
_cell_length_c       13.696
_cell_angle_alpha    98.61
_cell_angle_beta     98.93
_cell_angle_gamma    101.17

_symmetry_space_group_name_H-M    "P 1"
_symmetry_int_tables_number       1

loop_
  _symmetry_equiv_pos_as_xyz
  'x, y, z'

loop_
  _atom_site_label
  _atom_site_occupancy
  _atom_site_fract_x
  _atom_site_fract_y
  _atom_site_fract_z
  _atom_site_thermal_displace_type
  _atom_site_B_iso_or_equiv
  _atom_site_type_symbol
  C1       1.0000 0.47200  0.38400  0.92400  Biso   1.000  C
  C2       1.0000 0.52800  0.61600  0.07600  Biso   1.000  C
  H1       1.0000 0.42300  0.35370  0.85580  Biso   1.000  H
  H2       1.0000 0.57700  0.64630  0.14420  Biso   1.000  H
  H3       1.0000 0.51090  0.31640  0.94260  Biso   1.000  H
  H4       1.0000 0.48910  0.68360  0.05740  Biso   1.000  H
  C3       1.0000 0.38400  0.40600  0.98940  Biso   1.000  C
  C4       1.0000 0.61600  0.59400  0.01060  Biso   1.000  C
  H5       1.0000 0.30960  0.42250  0.94880  Biso   1.000  H
  H6       1.0000 0.69040  0.57750  0.05120  Biso   1.000  H
  H7       1.0000 0.35520  0.32620  0.01110  Biso   1.000  H
  H8       1.0000 0.64480  0.67380  0.98890  Biso   1.000  H
  N1       1.0000 0.57900  0.49600  0.92100  Biso   1.000  N
  N2       1.0000 0.42100  0.50400  0.07900  Biso   1.000  N
  H9       1.0000 0.61480  0.50090  0.86980  Biso   1.000  H
  H10      1.0000 0.38520  0.49910  0.13020  Biso   1.000  H
  O1       1.0000 0.67300  0.28200  0.24200  Biso   1.000  O
  O2       1.0000 0.32700  0.71800  0.75800  Biso   1.000  O
  O3       1.0000 0.74200  0.43900  0.12300  Biso   1.000  O
  O4       1.0000 0.25800  0.56100  0.87700  Biso   1.000  O
  Mo1      1.0000 0.99148  0.13848  0.24955  Biso   1.000  Mo
  Mo2      1.0000 0.00852  0.86152  0.75045  Biso   1.000  Mo
  Mo3      1.0000 0.07312  0.19596  0.82516  Biso   1.000  Mo
  Mo4      1.0000 0.92688  0.80404  0.17484  Biso   1.000  Mo
  Mo5      1.0000 0.70319  0.97634  0.08276  Biso   1.000  Mo
  Mo6      1.0000 0.29681  0.02366  0.91724  Biso   1.000  Mo
  Mo7      1.0000 0.06121  0.33415  0.07346  Biso   1.000  Mo
  Mo8      1.0000 0.93879  0.66585  0.92654  Biso   1.000  Mo
  Mo9      1.0000 0.77422  0.17067  0.90510  Biso   1.000  Mo
  Mo10     1.0000 0.22578  0.82933  0.09490  Biso   1.000  Mo
  Mo11     1.0000 0.28852  0.16340  0.16674  Biso   1.000  Mo
  Mo12     1.0000 0.71148  0.83660  0.83326  Biso   1.000  Mo
  O5       1.0000 0.70000  0.10760  0.00920  Biso   1.000  O
  O6       1.0000 0.30000  0.89240  0.99080  Biso   1.000  O
  O7       1.0000 0.70200  0.00300  0.82570  Biso   1.000  O
  O8       1.0000 0.29800  0.99700  0.17430  Biso   1.000  O
  O9       1.0000 0.99540  0.20610  0.36590  Biso   1.000  O
  O10      1.0000 0.00460  0.79390  0.63410  Biso   1.000  O
  O11      1.0000 0.68020  0.25440  0.86020  Biso   1.000  O
  O12      1.0000 0.31980  0.74560  0.13980  Biso   1.000  O
  O13      1.0000 0.97300  0.12300  0.95800  Biso   1.000  O
  O14      1.0000 0.02700  0.87700  0.04200  Biso   1.000  O
  O15      1.0000 0.09810  0.48640  0.11220  Biso   1.000  O
  O16      1.0000 0.90190  0.51360  0.88780  Biso   1.000  O
  O17      1.0000 0.65230  0.85560  0.95570  Biso   1.000  O
  O18      1.0000 0.34770  0.14440  0.04430  Biso   1.000  O
  O19      1.0000 0.89800  0.29700  0.00500  Biso   1.000  O
  O20      1.0000 0.10200  0.70300  0.99500  Biso   1.000  O
  O21      1.0000 0.97500  0.96720  0.26100  Biso   1.000  O
  O22      1.0000 0.02500  0.03280  0.73900  Biso   1.000  O
  O23      1.0000 0.42900  0.24300  0.24520  Biso   1.000  O
  O24      1.0000 0.57100  0.75700  0.75480  Biso   1.000  O
  O25      1.0000 0.90100  0.18800  0.82600  Biso   1.000  O
  O26      1.0000 0.09900  0.81200  0.17400  Biso   1.000  O
  O27      1.0000 0.00600  0.27700  0.18700  Biso   1.000  O
  O28      1.0000 0.99400  0.72300  0.81300  Biso   1.000  O
  O29      1.0000 0.10800  0.28940  0.74130  Biso   1.000  O
  O30      1.0000 0.89200  0.71060  0.25870  Biso   1.000  O
  O31      1.0000 0.17600  0.16300  0.26300  Biso   1.000  O
  O32      1.0000 0.82400  0.83700  0.73700  Biso   1.000  O
  O33      1.0000 0.81170  0.08960  0.19260  Biso   1.000  O
  O34      1.0000 0.18830  0.91040  0.80740  Biso   1.000  O
  O35      1.0000 0.23770  0.15670  0.86360  Biso   1.000  O
  O36      1.0000 0.76230  0.84330  0.13640  Biso   1.000  O
  O37      1.0000 0.11500  0.31800  0.95200  Biso   1.000  O
  O38      1.0000 0.88500  0.68200  0.04800  Biso   1.000  O
  O39      1.0000 0.56600  0.97000  0.12140  Biso   1.000  O
  O40      1.0000 0.43400  0.03000  0.87860  Biso   1.000  O
  O41      1.0000 0.22700  0.30500  0.13500  Biso   1.000  O
  O42      1.0000 0.77300  0.69500  0.86500  Biso   1.000  O
  O43      1.0000 0.86600  0.99100  0.97590  Biso   1.000  O
  O44      1.0000 0.13400  0.00900  0.02410  Biso   1.000  O
  O45      1.0000 0.06400  0.11200  0.09960  Biso   1.000  O
  O46      1.0000 0.93600  0.88800  0.90040  Biso   1.000  O
  O47      1.0000 0.07100  0.01400  0.92100  Biso   1.000  O
  O48      1.0000 0.92900  0.98600  0.07900  Biso   1.000  O
  C5       1.0000 0.46800  0.42000  0.65400  Biso   1.000  C
  C6       1.0000 0.53200  0.58000  0.34600  Biso   1.000  C
  H11      1.0000 0.52590  0.45620  0.71350  Biso   1.000  H
  H12      1.0000 0.47410  0.54380  0.28650  Biso   1.000  H
  C7       1.0000 0.33900  0.41500  0.65000  Biso   1.000  C
  C8       1.0000 0.66100  0.58500  0.35000  Biso   1.000  C
  H13      1.0000 0.31470  0.45140  0.70780  Biso   1.000  H
  H14      1.0000 0.68530  0.54860  0.29220  Biso   1.000  H
  C9       1.0000 0.63760  0.36700  0.56890  Biso   1.000  C
  C10      1.0000 0.36240  0.63300  0.43110  Biso   1.000  C
  C11      1.0000 0.41570  0.32300  0.48600  Biso   1.000  C
  C12      1.0000 0.58430  0.67700  0.51400  Biso   1.000  C
  H15      1.0000 0.43810  0.29060  0.42620  Biso   1.000  H
  H16      1.0000 0.56190  0.70940  0.57380  Biso   1.000  H
  C13      1.0000 0.51070  0.37260  0.56950  Biso   1.000  C
  C14      1.0000 0.48930  0.62740  0.43050  Biso   1.000  C
  C15      1.0000 0.28960  0.32030  0.48790  Biso   1.000  C
  C16      1.0000 0.71040  0.67970  0.51210  Biso   1.000  C
  H17      1.0000 0.23020  0.28710  0.42860  Biso   1.000  H
  H18      1.0000 0.76980  0.71290  0.57140  Biso   1.000  H
  C17      1.0000 0.74100  0.97100  0.41100  Biso   1.000  C
  C18      1.0000 0.25900  0.02900  0.58900  Biso   1.000  C
  H19      1.0000 0.77080  0.94850  0.35250  Biso   1.000  H
  H20      1.0000 0.22920  0.05150  0.64750  Biso   1.000  H
  C19      1.0000 0.61700  0.97200  0.41000  Biso   1.000  C
  C20      1.0000 0.38300  0.02800  0.59000  Biso   1.000  C
  H21      1.0000 0.56160  0.95150  0.34810  Biso   1.000  H
  H22      1.0000 0.43840  0.04850  0.65190  Biso   1.000  H
  C21      1.0000 0.77700  0.02700  0.58900  Biso   1.000  C
  C22      1.0000 0.22300  0.97300  0.41100  Biso   1.000  C
  H23      1.0000 0.83120  0.04200  0.65130  Biso   1.000  H
  H24      1.0000 0.16880  0.95800  0.34870  Biso   1.000  H
  C23      1.0000 0.65660  0.03000  0.58680  Biso   1.000  C
  C24      1.0000 0.34340  0.97000  0.41320  Biso   1.000  C
  H25      1.0000 0.63190  0.05080  0.64810  Biso   1.000  H
  H26      1.0000 0.36810  0.94920  0.35190  Biso   1.000  H
  C25      1.0000 0.56200  0.00370  0.50070  Biso   1.000  C
  C26      1.0000 0.43800  0.99630  0.49930  Biso   1.000  C
  C27      1.0000 0.81100  0.33000  0.47900  Biso   1.000  C
  C28      1.0000 0.18900  0.67000  0.52100  Biso   1.000  C
  H27      1.0000 0.83700  0.30780  0.41850  Biso   1.000  H
  H28      1.0000 0.16300  0.69220  0.58150  Biso   1.000  H
  C29      1.0000 0.68470  0.33100  0.47950  Biso   1.000  C
  C30      1.0000 0.31530  0.66900  0.52050  Biso   1.000  C
  H29      1.0000 0.62690  0.30750  0.41870  Biso   1.000  H
  H30      1.0000 0.37310  0.69250  0.58130  Biso   1.000  H
  C31      1.0000 0.73800  0.39500  0.65200  Biso   1.000  C
  C32      1.0000 0.26200  0.60500  0.34800  Biso   1.000  C
  H31      1.0000 0.71720  0.41870  0.71410  Biso   1.000  H
  H32      1.0000 0.28280  0.58130  0.28590  Biso   1.000  H
  C33      1.0000 0.85500  0.39300  0.65100  Biso   1.000  C
  C34      1.0000 0.14500  0.60700  0.34900  Biso   1.000  C
  H33      1.0000 0.91170  0.41350  0.71260  Biso   1.000  H
  H34      1.0000 0.08830  0.58650  0.28740  Biso   1.000  H
  N3       1.0000 0.90100  0.36300  0.57000  Biso   1.000  N
  N4       1.0000 0.09900  0.63700  0.43000  Biso   1.000  N
  N5       1.0000 0.24670  0.36270  0.57020  Biso   1.000  N
  N6       1.0000 0.75330  0.63730  0.42980  Biso   1.000  N
  N7       1.0000 0.82300  0.00500  0.50600  Biso   1.000  N
  N8       1.0000 0.17700  0.99500  0.49400  Biso   1.000  N
  Cu1      1.0000 0.07280  0.35490  0.57180  Biso   1.000  Cu
  Cu2      1.0000 0.92720  0.64510  0.42820  Biso   1.000  Cu
  Cu3      1.0000 0.99240  0.98630  0.46370  Biso   1.000  Cu
  Cu4      1.0000 0.00760  0.01370  0.53630  Biso   1.000  Cu
  P1       1.0000 0.00000  0.00000  0.00000  Biso   1.000  P
