data_image0
_cell_length_a       22.166
_cell_length_b       14.9825
_cell_length_c       11.4773
_cell_angle_alpha    90
_cell_angle_beta     107.972
_cell_angle_gamma    90

_symmetry_space_group_name_H-M    "P 1"
_symmetry_int_tables_number       1

loop_
  _symmetry_equiv_pos_as_xyz
  'x, y, z'

loop_
  _atom_site_label
  _atom_site_occupancy
  _atom_site_fract_x
  _atom_site_fract_y
  _atom_site_fract_z
  _atom_site_thermal_displace_type
  _atom_site_B_iso_or_equiv
  _atom_site_type_symbol
  Cu1      1.0000 0.25000  0.25000  0.50000  Biso   1.000  Cu
  Cu2      1.0000 0.75000  0.25000  0.00000  Biso   1.000  Cu
  Cu3      1.0000 0.75000  0.75000  0.50000  Biso   1.000  Cu
  Cu4      1.0000 0.25000  0.75000  0.00000  Biso   1.000  Cu
  Cu5      1.0000 0.00000  0.11358  0.25000  Biso   1.000  Cu
  Cu6      1.0000 0.50000  0.61358  0.25000  Biso   1.000  Cu
  Cu7      1.0000 0.00000  0.88642  0.75000  Biso   1.000  Cu
  Cu8      1.0000 0.50000  0.38642  0.75000  Biso   1.000  Cu
  Cu9      1.0000 0.10563  0.51701  0.75451  Biso   1.000  Cu
  Cu10     1.0000 0.89437  0.51701  0.74549  Biso   1.000  Cu
  Cu11     1.0000 0.60563  0.01701  0.75451  Biso   1.000  Cu
  Cu12     1.0000 0.39437  0.01701  0.74549  Biso   1.000  Cu
  Cu13     1.0000 0.89437  0.48299  0.24549  Biso   1.000  Cu
  Cu14     1.0000 0.10563  0.48299  0.25451  Biso   1.000  Cu
  Cu15     1.0000 0.39437  0.98299  0.24549  Biso   1.000  Cu
  Cu16     1.0000 0.60563  0.98299  0.25451  Biso   1.000  Cu
  N1       1.0000 0.18480  0.17415  0.41040  Biso   1.000  N
  N2       1.0000 0.81520  0.17415  0.08960  Biso   1.000  N
  N3       1.0000 0.68480  0.67415  0.41040  Biso   1.000  N
  N4       1.0000 0.31520  0.67415  0.08960  Biso   1.000  N
  N5       1.0000 0.81520  0.82585  0.58960  Biso   1.000  N
  N6       1.0000 0.18480  0.82585  0.91040  Biso   1.000  N
  N7       1.0000 0.31520  0.32585  0.58960  Biso   1.000  N
  N8       1.0000 0.68480  0.32585  0.91040  Biso   1.000  N
  N9       1.0000 0.08743  0.11493  0.32300  Biso   1.000  N
  N10      1.0000 0.91257  0.11493  0.17700  Biso   1.000  N
  N11      1.0000 0.58743  0.61493  0.32300  Biso   1.000  N
  N12      1.0000 0.41257  0.61493  0.17700  Biso   1.000  N
  N13      1.0000 0.91257  0.88507  0.67700  Biso   1.000  N
  N14      1.0000 0.08743  0.88507  0.82300  Biso   1.000  N
  N15      1.0000 0.41257  0.38507  0.67700  Biso   1.000  N
  N16      1.0000 0.58743  0.38507  0.82300  Biso   1.000  N
  N17      1.0000 0.10593  0.55080  0.59870  Biso   1.000  N
  N18      1.0000 0.89407  0.55080  0.90130  Biso   1.000  N
  N19      1.0000 0.60593  0.05080  0.59870  Biso   1.000  N
  N20      1.0000 0.39407  0.05080  0.90130  Biso   1.000  N
  N21      1.0000 0.89407  0.44920  0.40130  Biso   1.000  N
  N22      1.0000 0.10593  0.44920  0.09870  Biso   1.000  N
  N23      1.0000 0.39407  0.94920  0.40130  Biso   1.000  N
  N24      1.0000 0.60593  0.94920  0.09870  Biso   1.000  N
  N25      1.0000 0.11176  0.53034  0.40750  Biso   1.000  N
  N26      1.0000 0.88824  0.53034  0.09250  Biso   1.000  N
  N27      1.0000 0.61176  0.03034  0.40750  Biso   1.000  N
  N28      1.0000 0.38824  0.03034  0.09250  Biso   1.000  N
  N29      1.0000 0.88824  0.46966  0.59250  Biso   1.000  N
  N30      1.0000 0.11176  0.46966  0.90750  Biso   1.000  N
  N31      1.0000 0.38824  0.96966  0.59250  Biso   1.000  N
  N32      1.0000 0.61176  0.96966  0.90750  Biso   1.000  N
  C1       1.0000 0.10972  0.33510  0.45520  Biso   1.000  C
  C2       1.0000 0.89028  0.33510  0.04480  Biso   1.000  C
  C3       1.0000 0.60972  0.83510  0.45520  Biso   1.000  C
  C4       1.0000 0.39028  0.83510  0.04480  Biso   1.000  C
  C5       1.0000 0.89028  0.66490  0.54480  Biso   1.000  C
  C6       1.0000 0.10972  0.66490  0.95520  Biso   1.000  C
  C7       1.0000 0.39028  0.16490  0.54480  Biso   1.000  C
  C8       1.0000 0.60972  0.16490  0.95520  Biso   1.000  C
  H1       1.0000 0.13990  0.35220  0.41860  Biso   1.000  H
  H2       1.0000 0.86010  0.35220  0.08140  Biso   1.000  H
  H3       1.0000 0.63990  0.85220  0.41860  Biso   1.000  H
  H4       1.0000 0.36010  0.85220  0.08140  Biso   1.000  H
  H5       1.0000 0.86010  0.64780  0.58140  Biso   1.000  H
  H6       1.0000 0.13990  0.64780  0.91860  Biso   1.000  H
  H7       1.0000 0.36010  0.14780  0.58140  Biso   1.000  H
  H8       1.0000 0.63990  0.14780  0.91860  Biso   1.000  H
  C9       1.0000 0.09329  0.24550  0.45560  Biso   1.000  C
  C10      1.0000 0.90671  0.24550  0.04440  Biso   1.000  C
  C11      1.0000 0.59329  0.74550  0.45560  Biso   1.000  C
  C12      1.0000 0.40671  0.74550  0.04440  Biso   1.000  C
  C13      1.0000 0.90671  0.75450  0.54440  Biso   1.000  C
  C14      1.0000 0.09329  0.75450  0.95560  Biso   1.000  C
  C15      1.0000 0.40671  0.25450  0.54440  Biso   1.000  C
  C16      1.0000 0.59329  0.25450  0.95560  Biso   1.000  C
  C17      1.0000 0.04803  0.22020  0.51110  Biso   1.000  C
  C18      1.0000 0.95197  0.22020  0.98890  Biso   1.000  C
  C19      1.0000 0.54803  0.72020  0.51110  Biso   1.000  C
  C20      1.0000 0.45197  0.72020  0.98890  Biso   1.000  C
  C21      1.0000 0.95197  0.77980  0.48890  Biso   1.000  C
  C22      1.0000 0.04803  0.77980  0.01110  Biso   1.000  C
  C23      1.0000 0.45197  0.27980  0.48890  Biso   1.000  C
  C24      1.0000 0.54803  0.27980  0.01110  Biso   1.000  C
  H9       1.0000 0.03630  0.16060  0.51090  Biso   1.000  H
  H10      1.0000 0.96370  0.16060  0.98910  Biso   1.000  H
  H11      1.0000 0.53630  0.66060  0.51090  Biso   1.000  H
  H12      1.0000 0.46370  0.66060  0.98910  Biso   1.000  H
  H13      1.0000 0.96370  0.83940  0.48910  Biso   1.000  H
  H14      1.0000 0.03630  0.83940  0.01090  Biso   1.000  H
  H15      1.0000 0.46370  0.33940  0.48910  Biso   1.000  H
  H16      1.0000 0.53630  0.33940  0.01090  Biso   1.000  H
  C25      1.0000 0.02055  0.28410  0.56660  Biso   1.000  C
  C26      1.0000 0.97945  0.28410  0.93340  Biso   1.000  C
  C27      1.0000 0.52055  0.78410  0.56660  Biso   1.000  C
  C28      1.0000 0.47945  0.78410  0.93340  Biso   1.000  C
  C29      1.0000 0.97945  0.71590  0.43340  Biso   1.000  C
  C30      1.0000 0.02055  0.71590  0.06660  Biso   1.000  C
  C31      1.0000 0.47945  0.21590  0.43340  Biso   1.000  C
  C32      1.0000 0.52055  0.21590  0.06660  Biso   1.000  C
  H17      1.0000 0.99100  0.26700  0.60480  Biso   1.000  H
  H18      1.0000 0.00900  0.26700  0.89520  Biso   1.000  H
  H19      1.0000 0.49100  0.76700  0.60480  Biso   1.000  H
  H20      1.0000 0.50900  0.76700  0.89520  Biso   1.000  H
  H21      1.0000 0.00900  0.73300  0.39520  Biso   1.000  H
  H22      1.0000 0.99100  0.73300  0.10480  Biso   1.000  H
  H23      1.0000 0.50900  0.23300  0.39520  Biso   1.000  H
  H24      1.0000 0.49100  0.23300  0.10480  Biso   1.000  H
  C33      1.0000 0.03694  0.37280  0.56530  Biso   1.000  C
  C34      1.0000 0.96306  0.37280  0.93470  Biso   1.000  C
  C35      1.0000 0.53694  0.87280  0.56530  Biso   1.000  C
  C36      1.0000 0.46306  0.87280  0.93470  Biso   1.000  C
  C37      1.0000 0.96306  0.62720  0.43470  Biso   1.000  C
  C38      1.0000 0.03694  0.62720  0.06530  Biso   1.000  C
  C39      1.0000 0.46306  0.12720  0.43470  Biso   1.000  C
  C40      1.0000 0.53694  0.12720  0.06530  Biso   1.000  C
  H25      1.0000 0.01810  0.41510  0.60220  Biso   1.000  H
  H26      1.0000 0.98190  0.41510  0.89780  Biso   1.000  H
  H27      1.0000 0.51810  0.91510  0.60220  Biso   1.000  H
  H28      1.0000 0.48190  0.91510  0.89780  Biso   1.000  H
  H29      1.0000 0.98190  0.58490  0.39780  Biso   1.000  H
  H30      1.0000 0.01810  0.58490  0.10220  Biso   1.000  H
  H31      1.0000 0.48190  0.08490  0.39780  Biso   1.000  H
  H32      1.0000 0.51810  0.08490  0.10220  Biso   1.000  H
  C41      1.0000 0.08148  0.39970  0.50900  Biso   1.000  C
  C42      1.0000 0.91852  0.39970  0.99100  Biso   1.000  C
  C43      1.0000 0.58148  0.89970  0.50900  Biso   1.000  C
  C44      1.0000 0.41852  0.89970  0.99100  Biso   1.000  C
  C45      1.0000 0.91852  0.60030  0.49100  Biso   1.000  C
  C46      1.0000 0.08148  0.60030  0.00900  Biso   1.000  C
  C47      1.0000 0.41852  0.10030  0.49100  Biso   1.000  C
  C48      1.0000 0.58148  0.10030  0.00900  Biso   1.000  C
  C49      1.0000 0.09940  0.49410  0.50520  Biso   1.000  C
  C50      1.0000 0.90060  0.49410  0.99480  Biso   1.000  C
  C51      1.0000 0.59940  0.99410  0.50520  Biso   1.000  C
  C52      1.0000 0.40060  0.99410  0.99480  Biso   1.000  C
  C53      1.0000 0.90060  0.50590  0.49480  Biso   1.000  C
  C54      1.0000 0.09940  0.50590  0.00520  Biso   1.000  C
  C55      1.0000 0.40060  0.00590  0.49480  Biso   1.000  C
  C56      1.0000 0.59940  0.00590  0.00520  Biso   1.000  C
  C57      1.0000 0.12241  0.17770  0.39620  Biso   1.000  C
  C58      1.0000 0.87759  0.17770  0.10380  Biso   1.000  C
  C59      1.0000 0.62241  0.67770  0.39620  Biso   1.000  C
  C60      1.0000 0.37759  0.67770  0.10380  Biso   1.000  C
  C61      1.0000 0.87759  0.82230  0.60380  Biso   1.000  C
  C62      1.0000 0.12241  0.82230  0.89620  Biso   1.000  C
  C63      1.0000 0.37759  0.32230  0.60380  Biso   1.000  C
  C64      1.0000 0.62241  0.32230  0.89620  Biso   1.000  C
  C65      1.0000 0.12528  0.63060  0.55970  Biso   1.000  C
  C66      1.0000 0.87472  0.63060  0.94030  Biso   1.000  C
  C67      1.0000 0.62528  0.13060  0.55970  Biso   1.000  C
  C68      1.0000 0.37472  0.13060  0.94030  Biso   1.000  C
  C69      1.0000 0.87472  0.36940  0.44030  Biso   1.000  C
  C70      1.0000 0.12528  0.36940  0.05970  Biso   1.000  C
  C71      1.0000 0.37472  0.86940  0.44030  Biso   1.000  C
  C72      1.0000 0.62528  0.86940  0.05970  Biso   1.000  C
  C73      1.0000 0.13960  0.71310  0.61700  Biso   1.000  C
  C74      1.0000 0.86040  0.71310  0.88300  Biso   1.000  C
  C75      1.0000 0.63960  0.21310  0.61700  Biso   1.000  C
  C76      1.0000 0.36040  0.21310  0.88300  Biso   1.000  C
  C77      1.0000 0.86040  0.28690  0.38300  Biso   1.000  C
  C78      1.0000 0.13960  0.28690  0.11700  Biso   1.000  C
  C79      1.0000 0.36040  0.78690  0.38300  Biso   1.000  C
  C80      1.0000 0.63960  0.78690  0.11700  Biso   1.000  C
  H33      1.0000 0.13740  0.72230  0.69570  Biso   1.000  H
  H34      1.0000 0.86260  0.72230  0.80430  Biso   1.000  H
  H35      1.0000 0.63740  0.22230  0.69570  Biso   1.000  H
  H36      1.0000 0.36260  0.22230  0.80430  Biso   1.000  H
  H37      1.0000 0.86260  0.27770  0.30430  Biso   1.000  H
  H38      1.0000 0.13740  0.27770  0.19570  Biso   1.000  H
  H39      1.0000 0.36260  0.77770  0.30430  Biso   1.000  H
  H40      1.0000 0.63740  0.77770  0.19570  Biso   1.000  H
  C81      1.0000 0.15710  0.78080  0.55250  Biso   1.000  C
  C82      1.0000 0.84290  0.78080  0.94750  Biso   1.000  C
  C83      1.0000 0.65710  0.28080  0.55250  Biso   1.000  C
  C84      1.0000 0.34290  0.28080  0.94750  Biso   1.000  C
  C85      1.0000 0.84290  0.21920  0.44750  Biso   1.000  C
  C86      1.0000 0.15710  0.21920  0.05250  Biso   1.000  C
  C87      1.0000 0.34290  0.71920  0.44750  Biso   1.000  C
  C88      1.0000 0.65710  0.71920  0.05250  Biso   1.000  C
  H41      1.0000 0.16740  0.83640  0.58920  Biso   1.000  H
  H42      1.0000 0.83260  0.83640  0.91080  Biso   1.000  H
  H43      1.0000 0.66740  0.33640  0.58920  Biso   1.000  H
  H44      1.0000 0.33260  0.33640  0.91080  Biso   1.000  H
  H45      1.0000 0.83260  0.16360  0.41080  Biso   1.000  H
  H46      1.0000 0.16740  0.16360  0.08920  Biso   1.000  H
  H47      1.0000 0.33260  0.66360  0.41080  Biso   1.000  H
  H48      1.0000 0.66740  0.66360  0.08920  Biso   1.000  H
  C89      1.0000 0.15980  0.76830  0.43380  Biso   1.000  C
  C90      1.0000 0.84020  0.76830  0.06620  Biso   1.000  C
  C91      1.0000 0.65980  0.26830  0.43380  Biso   1.000  C
  C92      1.0000 0.34020  0.26830  0.06620  Biso   1.000  C
  C93      1.0000 0.84020  0.23170  0.56620  Biso   1.000  C
  C94      1.0000 0.15980  0.23170  0.93380  Biso   1.000  C
  C95      1.0000 0.34020  0.73170  0.56620  Biso   1.000  C
  C96      1.0000 0.65980  0.73170  0.93380  Biso   1.000  C
  H49      1.0000 0.17120  0.81580  0.39270  Biso   1.000  H
  H50      1.0000 0.82880  0.81580  0.10730  Biso   1.000  H
  H51      1.0000 0.67120  0.31580  0.39270  Biso   1.000  H
  H52      1.0000 0.32880  0.31580  0.10730  Biso   1.000  H
  H53      1.0000 0.82880  0.18420  0.60730  Biso   1.000  H
  H54      1.0000 0.17120  0.18420  0.89270  Biso   1.000  H
  H55      1.0000 0.32880  0.68420  0.60730  Biso   1.000  H
  H56      1.0000 0.67120  0.68420  0.89270  Biso   1.000  H
  C97      1.0000 0.14590  0.68720  0.37700  Biso   1.000  C
  C98      1.0000 0.85410  0.68720  0.12300  Biso   1.000  C
  C99      1.0000 0.64590  0.18720  0.37700  Biso   1.000  C
  C100     1.0000 0.35410  0.18720  0.12300  Biso   1.000  C
  C101     1.0000 0.85410  0.31280  0.62300  Biso   1.000  C
  C102     1.0000 0.14590  0.31280  0.87700  Biso   1.000  C
  C103     1.0000 0.35410  0.81280  0.62300  Biso   1.000  C
  C104     1.0000 0.64590  0.81280  0.87700  Biso   1.000  C
  H57      1.0000 0.14790  0.67860  0.29800  Biso   1.000  H
  H58      1.0000 0.85210  0.67860  0.20200  Biso   1.000  H
  H59      1.0000 0.64790  0.17860  0.29800  Biso   1.000  H
  H60      1.0000 0.35210  0.17860  0.20200  Biso   1.000  H
  H61      1.0000 0.85210  0.32140  0.70200  Biso   1.000  H
  H62      1.0000 0.14790  0.32140  0.79800  Biso   1.000  H
  H63      1.0000 0.35210  0.82140  0.70200  Biso   1.000  H
  H64      1.0000 0.64790  0.82140  0.79800  Biso   1.000  H
  C105     1.0000 0.12859  0.61770  0.44110  Biso   1.000  C
  C106     1.0000 0.87141  0.61770  0.05890  Biso   1.000  C
  C107     1.0000 0.62859  0.11770  0.44110  Biso   1.000  C
  C108     1.0000 0.37141  0.11770  0.05890  Biso   1.000  C
  C109     1.0000 0.87141  0.38230  0.55890  Biso   1.000  C
  C110     1.0000 0.12859  0.38230  0.94110  Biso   1.000  C
  C111     1.0000 0.37141  0.88230  0.55890  Biso   1.000  C
  C112     1.0000 0.62859  0.88230  0.94110  Biso   1.000  C
  C113     1.0000 0.19098  0.10070  0.33950  Biso   1.000  C
  C114     1.0000 0.80902  0.10070  0.16050  Biso   1.000  C
  C115     1.0000 0.69098  0.60070  0.33950  Biso   1.000  C
  C116     1.0000 0.30902  0.60070  0.16050  Biso   1.000  C
  C117     1.0000 0.80902  0.89930  0.66050  Biso   1.000  C
  C118     1.0000 0.19098  0.89930  0.83950  Biso   1.000  C
  C119     1.0000 0.30902  0.39930  0.66050  Biso   1.000  C
  C120     1.0000 0.69098  0.39930  0.83950  Biso   1.000  C
  C121     1.0000 0.24371  0.06460  0.31560  Biso   1.000  C
  C122     1.0000 0.75629  0.06460  0.18440  Biso   1.000  C
  C123     1.0000 0.74371  0.56460  0.31560  Biso   1.000  C
  C124     1.0000 0.25629  0.56460  0.18440  Biso   1.000  C
  C125     1.0000 0.75629  0.93540  0.68440  Biso   1.000  C
  C126     1.0000 0.24371  0.93540  0.81560  Biso   1.000  C
  C127     1.0000 0.25629  0.43540  0.68440  Biso   1.000  C
  C128     1.0000 0.74371  0.43540  0.81560  Biso   1.000  C
  H65      1.0000 0.28400  0.08840  0.35020  Biso   1.000  H
  H66      1.0000 0.71600  0.08840  0.14980  Biso   1.000  H
  H67      1.0000 0.78400  0.58840  0.35020  Biso   1.000  H
  H68      1.0000 0.21600  0.58840  0.14980  Biso   1.000  H
  H69      1.0000 0.71600  0.91160  0.64980  Biso   1.000  H
  H70      1.0000 0.28400  0.91160  0.85020  Biso   1.000  H
  H71      1.0000 0.21600  0.41160  0.64980  Biso   1.000  H
  H72      1.0000 0.78400  0.41160  0.85020  Biso   1.000  H
  C129     1.0000 0.23368  0.99210  0.23850  Biso   1.000  C
  C130     1.0000 0.76632  0.99210  0.26150  Biso   1.000  C
  C131     1.0000 0.73368  0.49210  0.23850  Biso   1.000  C
  C132     1.0000 0.26632  0.49210  0.26150  Biso   1.000  C
  C133     1.0000 0.76632  0.00790  0.76150  Biso   1.000  C
  C134     1.0000 0.23368  0.00790  0.73850  Biso   1.000  C
  C135     1.0000 0.26632  0.50790  0.76150  Biso   1.000  C
  C136     1.0000 0.73368  0.50790  0.73850  Biso   1.000  C
  H73      1.0000 0.26810  0.96650  0.22090  Biso   1.000  H
  H74      1.0000 0.73190  0.96650  0.27910  Biso   1.000  H
  H75      1.0000 0.76810  0.46650  0.22090  Biso   1.000  H
  H76      1.0000 0.23190  0.46650  0.27910  Biso   1.000  H
  H77      1.0000 0.73190  0.03350  0.77910  Biso   1.000  H
  H78      1.0000 0.26810  0.03350  0.72090  Biso   1.000  H
  H79      1.0000 0.23190  0.53350  0.77910  Biso   1.000  H
  H80      1.0000 0.76810  0.53350  0.72090  Biso   1.000  H
  C137     1.0000 0.17310  0.95550  0.18560  Biso   1.000  C
  C138     1.0000 0.82690  0.95550  0.31440  Biso   1.000  C
  C139     1.0000 0.67310  0.45550  0.18560  Biso   1.000  C
  C140     1.0000 0.32690  0.45550  0.31440  Biso   1.000  C
  C141     1.0000 0.82690  0.04450  0.81440  Biso   1.000  C
  C142     1.0000 0.17310  0.04450  0.68560  Biso   1.000  C
  C143     1.0000 0.32690  0.54450  0.81440  Biso   1.000  C
  C144     1.0000 0.67310  0.54450  0.68560  Biso   1.000  C
  H81      1.0000 0.16830  0.90610  0.13440  Biso   1.000  H
  H82      1.0000 0.83170  0.90610  0.36560  Biso   1.000  H
  H83      1.0000 0.66830  0.40610  0.13440  Biso   1.000  H
  H84      1.0000 0.33170  0.40610  0.36560  Biso   1.000  H
  H85      1.0000 0.83170  0.09390  0.86560  Biso   1.000  H
  H86      1.0000 0.16830  0.09390  0.63440  Biso   1.000  H
  H87      1.0000 0.33170  0.59390  0.86560  Biso   1.000  H
  H88      1.0000 0.66830  0.59390  0.63440  Biso   1.000  H
  C145     1.0000 0.12091  0.99140  0.20830  Biso   1.000  C
  C146     1.0000 0.87909  0.99140  0.29170  Biso   1.000  C
  C147     1.0000 0.62091  0.49140  0.20830  Biso   1.000  C
  C148     1.0000 0.37909  0.49140  0.29170  Biso   1.000  C
  C149     1.0000 0.87909  0.00860  0.79170  Biso   1.000  C
  C150     1.0000 0.12091  0.00860  0.70830  Biso   1.000  C
  C151     1.0000 0.37909  0.50860  0.79170  Biso   1.000  C
  C152     1.0000 0.62091  0.50860  0.70830  Biso   1.000  C
  H89      1.0000 0.08060  0.96770  0.17240  Biso   1.000  H
  H90      1.0000 0.91940  0.96770  0.32760  Biso   1.000  H
  H91      1.0000 0.58060  0.46770  0.17240  Biso   1.000  H
  H92      1.0000 0.41940  0.46770  0.32760  Biso   1.000  H
  H93      1.0000 0.91940  0.03230  0.82760  Biso   1.000  H
  H94      1.0000 0.08060  0.03230  0.67240  Biso   1.000  H
  H95      1.0000 0.41940  0.53230  0.82760  Biso   1.000  H
  H96      1.0000 0.58060  0.53230  0.67240  Biso   1.000  H
  C153     1.0000 0.13032  0.06430  0.28690  Biso   1.000  C
  C154     1.0000 0.86968  0.06430  0.21310  Biso   1.000  C
  C155     1.0000 0.63032  0.56430  0.28690  Biso   1.000  C
  C156     1.0000 0.36968  0.56430  0.21310  Biso   1.000  C
  C157     1.0000 0.86968  0.93570  0.71310  Biso   1.000  C
  C158     1.0000 0.13032  0.93570  0.78690  Biso   1.000  C
  C159     1.0000 0.36968  0.43570  0.71310  Biso   1.000  C
  C160     1.0000 0.63032  0.43570  0.78690  Biso   1.000  C
