data_image0
_cell_length_a       18.389
_cell_length_b       11.479
_cell_length_c       16.992
_cell_angle_alpha    90
_cell_angle_beta     97.692
_cell_angle_gamma    90

_symmetry_space_group_name_H-M    "P 1"
_symmetry_int_tables_number       1

loop_
  _symmetry_equiv_pos_as_xyz
  'x, y, z'

loop_
  _atom_site_label
  _atom_site_occupancy
  _atom_site_fract_x
  _atom_site_fract_y
  _atom_site_fract_z
  _atom_site_thermal_displace_type
  _atom_site_B_iso_or_equiv
  _atom_site_type_symbol
  Cu1      1.0000 0.97007  0.52558  0.08012  Biso   1.000  Cu
  Cu2      1.0000 0.02993  0.02558  0.41988  Biso   1.000  Cu
  Cu3      1.0000 0.02993  0.47442  0.91988  Biso   1.000  Cu
  Cu4      1.0000 0.97007  0.97442  0.58012  Biso   1.000  Cu
  Cu5      1.0000 0.49311  0.01008  0.31790  Biso   1.000  Cu
  Cu6      1.0000 0.50689  0.51008  0.18210  Biso   1.000  Cu
  Cu7      1.0000 0.50689  0.98992  0.68210  Biso   1.000  Cu
  Cu8      1.0000 0.49311  0.48992  0.81790  Biso   1.000  Cu
  S1       1.0000 0.99143  0.33955  0.00905  Biso   1.000  S
  S2       1.0000 0.00857  0.83955  0.49095  Biso   1.000  S
  S3       1.0000 0.00857  0.66045  0.99095  Biso   1.000  S
  S4       1.0000 0.99143  0.16045  0.50905  Biso   1.000  S
  S5       1.0000 0.50061  0.10980  0.18443  Biso   1.000  S
  S6       1.0000 0.49939  0.60980  0.31557  Biso   1.000  S
  S7       1.0000 0.49939  0.89020  0.81557  Biso   1.000  S
  S8       1.0000 0.50061  0.39020  0.68443  Biso   1.000  S
  N1       1.0000 0.11890  0.26910  0.10880  Biso   1.000  N
  N2       1.0000 0.88110  0.76910  0.39120  Biso   1.000  N
  N3       1.0000 0.88110  0.73090  0.89120  Biso   1.000  N
  N4       1.0000 0.11890  0.23090  0.60880  Biso   1.000  N
  N5       1.0000 0.53701  0.34720  0.20220  Biso   1.000  N
  N6       1.0000 0.46299  0.84720  0.29780  Biso   1.000  N
  N7       1.0000 0.46299  0.65280  0.79780  Biso   1.000  N
  N8       1.0000 0.53701  0.15280  0.70220  Biso   1.000  N
  N9       1.0000 0.75747  0.48660  0.13576  Biso   1.000  N
  N10      1.0000 0.24253  0.98660  0.36424  Biso   1.000  N
  N11      1.0000 0.24253  0.51340  0.86424  Biso   1.000  N
  N12      1.0000 0.75747  0.01340  0.63576  Biso   1.000  N
  N13      1.0000 0.86256  0.53320  0.09508  Biso   1.000  N
  N14      1.0000 0.13744  0.03320  0.40492  Biso   1.000  N
  N15      1.0000 0.13744  0.46680  0.90492  Biso   1.000  N
  N16      1.0000 0.86256  0.96680  0.59508  Biso   1.000  N
  N17      1.0000 0.72066  0.01900  0.35297  Biso   1.000  N
  N18      1.0000 0.27934  0.51900  0.14703  Biso   1.000  N
  N19      1.0000 0.27934  0.98100  0.64703  Biso   1.000  N
  N20      1.0000 0.72066  0.48100  0.85297  Biso   1.000  N
  N21      1.0000 0.60350  0.98140  0.35480  Biso   1.000  N
  N22      1.0000 0.39650  0.48140  0.14520  Biso   1.000  N
  N23      1.0000 0.39650  0.01860  0.64520  Biso   1.000  N
  N24      1.0000 0.60350  0.51860  0.85480  Biso   1.000  N
  N25      1.0000 0.93541  0.53870  0.68527  Biso   1.000  N
  N26      1.0000 0.06459  0.03870  0.81473  Biso   1.000  N
  N27      1.0000 0.06459  0.46130  0.31473  Biso   1.000  N
  N28      1.0000 0.93541  0.96130  0.18527  Biso   1.000  N
  N29      1.0000 0.97543  0.47750  0.80744  Biso   1.000  N
  N30      1.0000 0.02457  0.97750  0.69256  Biso   1.000  N
  N31      1.0000 0.02457  0.52250  0.19256  Biso   1.000  N
  N32      1.0000 0.97543  0.02250  0.30744  Biso   1.000  N
  N33      1.0000 0.60034  0.69320  0.60092  Biso   1.000  N
  N34      1.0000 0.39966  0.19320  0.89908  Biso   1.000  N
  N35      1.0000 0.39966  0.30680  0.39908  Biso   1.000  N
  N36      1.0000 0.60034  0.80680  0.10092  Biso   1.000  N
  N37      1.0000 0.54746  0.86040  0.62163  Biso   1.000  N
  N38      1.0000 0.45254  0.36040  0.87837  Biso   1.000  N
  N39      1.0000 0.45254  0.13960  0.37837  Biso   1.000  N
  N40      1.0000 0.54746  0.63960  0.12163  Biso   1.000  N
  C1       1.0000 0.06680  0.29860  0.06730  Biso   1.000  C
  C2       1.0000 0.93320  0.79860  0.43270  Biso   1.000  C
  C3       1.0000 0.93320  0.70140  0.93270  Biso   1.000  C
  C4       1.0000 0.06680  0.20140  0.56730  Biso   1.000  C
  C5       1.0000 0.52349  0.24780  0.19560  Biso   1.000  C
  C6       1.0000 0.47651  0.74780  0.30440  Biso   1.000  C
  C7       1.0000 0.47651  0.75220  0.80440  Biso   1.000  C
  C8       1.0000 0.52349  0.25220  0.69560  Biso   1.000  C
  C9       1.0000 0.74139  0.55810  0.07106  Biso   1.000  C
  C10      1.0000 0.25861  0.05810  0.42894  Biso   1.000  C
  C11      1.0000 0.25861  0.44190  0.92894  Biso   1.000  C
  C12      1.0000 0.74139  0.94190  0.57106  Biso   1.000  C
  H1       1.0000 0.69500  0.58210  0.04810  Biso   1.000  H
  H2       1.0000 0.30500  0.08210  0.45190  Biso   1.000  H
  H3       1.0000 0.30500  0.41790  0.95190  Biso   1.000  H
  H4       1.0000 0.69500  0.91790  0.54810  Biso   1.000  H
  C13      1.0000 0.80629  0.58680  0.04730  Biso   1.000  C
  C14      1.0000 0.19371  0.08680  0.45270  Biso   1.000  C
  C15      1.0000 0.19371  0.41320  0.95270  Biso   1.000  C
  C16      1.0000 0.80629  0.91320  0.54730  Biso   1.000  C
  H5       1.0000 0.81200  0.63550  0.00480  Biso   1.000  H
  H6       1.0000 0.18800  0.13550  0.49520  Biso   1.000  H
  H7       1.0000 0.18800  0.36450  0.99520  Biso   1.000  H
  H8       1.0000 0.81200  0.86450  0.50480  Biso   1.000  H
  C17      1.0000 0.83036  0.47410  0.14747  Biso   1.000  C
  C18      1.0000 0.16964  0.97410  0.35253  Biso   1.000  C
  C19      1.0000 0.16964  0.52590  0.85253  Biso   1.000  C
  C20      1.0000 0.83036  0.02590  0.64747  Biso   1.000  C
  H9       1.0000 0.85550  0.42910  0.18780  Biso   1.000  H
  H10      1.0000 0.14450  0.92910  0.31220  Biso   1.000  H
  H11      1.0000 0.14450  0.57090  0.81220  Biso   1.000  H
  H12      1.0000 0.85550  0.07090  0.68780  Biso   1.000  H
  C21      1.0000 0.71425  0.90040  0.36041  Biso   1.000  C
  C22      1.0000 0.28575  0.40040  0.13959  Biso   1.000  C
  C23      1.0000 0.28575  0.09960  0.63959  Biso   1.000  C
  C24      1.0000 0.71425  0.59960  0.86041  Biso   1.000  C
  H13      1.0000 0.75200  0.84580  0.36420  Biso   1.000  H
  H14      1.0000 0.24800  0.34580  0.13580  Biso   1.000  H
  H15      1.0000 0.24800  0.15420  0.63580  Biso   1.000  H
  H16      1.0000 0.75200  0.65420  0.86420  Biso   1.000  H
  C25      1.0000 0.64207  0.87900  0.36120  Biso   1.000  C
  C26      1.0000 0.35793  0.37900  0.13880  Biso   1.000  C
  C27      1.0000 0.35793  0.12100  0.63880  Biso   1.000  C
  C28      1.0000 0.64207  0.62100  0.86120  Biso   1.000  C
  H17      1.0000 0.62160  0.80550  0.36540  Biso   1.000  H
  H18      1.0000 0.37840  0.30550  0.13460  Biso   1.000  H
  H19      1.0000 0.37840  0.19450  0.63460  Biso   1.000  H
  H20      1.0000 0.62160  0.69450  0.86540  Biso   1.000  H
  C29      1.0000 0.65284  0.06320  0.35080  Biso   1.000  C
  C30      1.0000 0.34716  0.56320  0.14920  Biso   1.000  C
  C31      1.0000 0.34716  0.93680  0.64920  Biso   1.000  C
  C32      1.0000 0.65284  0.43680  0.85080  Biso   1.000  C
  H21      1.0000 0.64210  0.14230  0.34680  Biso   1.000  H
  H22      1.0000 0.35790  0.64230  0.15320  Biso   1.000  H
  H23      1.0000 0.35790  0.85770  0.65320  Biso   1.000  H
  H24      1.0000 0.64210  0.35770  0.84680  Biso   1.000  H
  C33      1.0000 0.94180  0.42110  0.68210  Biso   1.000  C
  C34      1.0000 0.05820  0.92110  0.81790  Biso   1.000  C
  C35      1.0000 0.05820  0.57890  0.31790  Biso   1.000  C
  C36      1.0000 0.94180  0.07890  0.18210  Biso   1.000  C
  H25      1.0000 0.93160  0.37420  0.63740  Biso   1.000  H
  H26      1.0000 0.06840  0.87420  0.86260  Biso   1.000  H
  H27      1.0000 0.06840  0.62580  0.36260  Biso   1.000  H
  H28      1.0000 0.93160  0.12580  0.13740  Biso   1.000  H
  C37      1.0000 0.96610  0.38530  0.75750  Biso   1.000  C
  C38      1.0000 0.03390  0.88530  0.74250  Biso   1.000  C
  C39      1.0000 0.03390  0.61470  0.24250  Biso   1.000  C
  C40      1.0000 0.96610  0.11470  0.25750  Biso   1.000  C
  H29      1.0000 0.97500  0.30820  0.77260  Biso   1.000  H
  H30      1.0000 0.02500  0.80820  0.72740  Biso   1.000  H
  H31      1.0000 0.02500  0.69180  0.22740  Biso   1.000  H
  H32      1.0000 0.97500  0.19180  0.27260  Biso   1.000  H
  C41      1.0000 0.95540  0.56870  0.76170  Biso   1.000  C
  C42      1.0000 0.04460  0.06870  0.73830  Biso   1.000  C
  C43      1.0000 0.04460  0.43130  0.23830  Biso   1.000  C
  C44      1.0000 0.95540  0.93130  0.26170  Biso   1.000  C
  H33      1.0000 0.95530  0.64490  0.78030  Biso   1.000  H
  H34      1.0000 0.04470  0.14490  0.71970  Biso   1.000  H
  H35      1.0000 0.04470  0.35510  0.21970  Biso   1.000  H
  H36      1.0000 0.95530  0.85510  0.28030  Biso   1.000  H
  C45      1.0000 0.57260  0.73640  0.52820  Biso   1.000  C
  C46      1.0000 0.42740  0.23640  0.97180  Biso   1.000  C
  C47      1.0000 0.42740  0.26360  0.47180  Biso   1.000  C
  C48      1.0000 0.57260  0.76360  0.02820  Biso   1.000  C
  H37      1.0000 0.57520  0.70220  0.47910  Biso   1.000  H
  H38      1.0000 0.42480  0.20220  0.02090  Biso   1.000  H
  H39      1.0000 0.42480  0.29780  0.52090  Biso   1.000  H
  H40      1.0000 0.57520  0.79780  0.97910  Biso   1.000  H
  C49      1.0000 0.54060  0.83930  0.54220  Biso   1.000  C
  C50      1.0000 0.45940  0.33930  0.95780  Biso   1.000  C
  C51      1.0000 0.45940  0.16070  0.45780  Biso   1.000  C
  C52      1.0000 0.54060  0.66070  0.04220  Biso   1.000  C
  H41      1.0000 0.51730  0.88840  0.50310  Biso   1.000  H
  H42      1.0000 0.48270  0.38840  0.99690  Biso   1.000  H
  H43      1.0000 0.48270  0.11160  0.49690  Biso   1.000  H
  H44      1.0000 0.51730  0.61160  0.00310  Biso   1.000  H
  C53      1.0000 0.58372  0.77080  0.65480  Biso   1.000  C
  C54      1.0000 0.41628  0.27080  0.84520  Biso   1.000  C
  C55      1.0000 0.41628  0.22920  0.34520  Biso   1.000  C
  C56      1.0000 0.58372  0.72920  0.15480  Biso   1.000  C
  H45      1.0000 0.59640  0.76200  0.70930  Biso   1.000  H
  H46      1.0000 0.40360  0.26200  0.79070  Biso   1.000  H
  H47      1.0000 0.40360  0.23800  0.29070  Biso   1.000  H
  H48      1.0000 0.59640  0.73800  0.20930  Biso   1.000  H
  C57      1.0000 0.70178  0.43080  0.17789  Biso   1.000  C
  C58      1.0000 0.29822  0.93080  0.32211  Biso   1.000  C
  C59      1.0000 0.29822  0.56920  0.82211  Biso   1.000  C
  C60      1.0000 0.70178  0.06920  0.67789  Biso   1.000  C
  H49      1.0000 0.67790  0.36950  0.14470  Biso   1.000  H
  H50      1.0000 0.32210  0.86950  0.35530  Biso   1.000  H
  H51      1.0000 0.32210  0.63050  0.85530  Biso   1.000  H
  H52      1.0000 0.67790  0.13050  0.64470  Biso   1.000  H
  H53      1.0000 0.66480  0.48810  0.18610  Biso   1.000  H
  H54      1.0000 0.33520  0.98810  0.31390  Biso   1.000  H
  H55      1.0000 0.33520  0.51190  0.81390  Biso   1.000  H
  H56      1.0000 0.66480  0.01190  0.68610  Biso   1.000  H
  C61      1.0000 0.78889  0.08370  0.34760  Biso   1.000  C
  C62      1.0000 0.21111  0.58370  0.15240  Biso   1.000  C
  C63      1.0000 0.21111  0.91630  0.65240  Biso   1.000  C
  C64      1.0000 0.78889  0.41630  0.84760  Biso   1.000  C
  H57      1.0000 0.81100  0.05610  0.30230  Biso   1.000  H
  H58      1.0000 0.18900  0.55610  0.19770  Biso   1.000  H
  H59      1.0000 0.18900  0.94390  0.69770  Biso   1.000  H
  H60      1.0000 0.81100  0.44390  0.80230  Biso   1.000  H
  H61      1.0000 0.82340  0.07030  0.39510  Biso   1.000  H
  H62      1.0000 0.17660  0.57030  0.10490  Biso   1.000  H
  H63      1.0000 0.17660  0.92970  0.60490  Biso   1.000  H
  H64      1.0000 0.82340  0.42970  0.89510  Biso   1.000  H
  C65      1.0000 0.91000  0.61870  0.61930  Biso   1.000  C
  C66      1.0000 0.09000  0.11870  0.88070  Biso   1.000  C
  C67      1.0000 0.09000  0.38130  0.38070  Biso   1.000  C
  C68      1.0000 0.91000  0.88130  0.11930  Biso   1.000  C
  H65      1.0000 0.94550  0.61960  0.58190  Biso   1.000  H
  H66      1.0000 0.05450  0.11960  0.91810  Biso   1.000  H
  H67      1.0000 0.05450  0.38040  0.41810  Biso   1.000  H
  H68      1.0000 0.94550  0.88040  0.08190  Biso   1.000  H
  H69      1.0000 0.90660  0.69700  0.63990  Biso   1.000  H
  H70      1.0000 0.09340  0.19700  0.86010  Biso   1.000  H
  H71      1.0000 0.09340  0.30300  0.36010  Biso   1.000  H
  H72      1.0000 0.90660  0.80300  0.13990  Biso   1.000  H
  C69      1.0000 0.63719  0.58070  0.61850  Biso   1.000  C
  C70      1.0000 0.36281  0.08070  0.88150  Biso   1.000  C
  C71      1.0000 0.36281  0.41930  0.38150  Biso   1.000  C
  C72      1.0000 0.63719  0.91930  0.11850  Biso   1.000  C
  H73      1.0000 0.60240  0.51870  0.60280  Biso   1.000  H
  H74      1.0000 0.39760  0.01870  0.89720  Biso   1.000  H
  H75      1.0000 0.39760  0.48130  0.39720  Biso   1.000  H
  H76      1.0000 0.60240  0.98130  0.10280  Biso   1.000  H
  H77      1.0000 0.65150  0.57480  0.67540  Biso   1.000  H
  H78      1.0000 0.34850  0.07480  0.82460  Biso   1.000  H
  H79      1.0000 0.34850  0.42520  0.32460  Biso   1.000  H
  H80      1.0000 0.65150  0.92520  0.17540  Biso   1.000  H
  C73      1.0000 0.75052  0.26060  0.26368  Biso   1.000  C
  C74      1.0000 0.24948  0.76060  0.23632  Biso   1.000  C
  C75      1.0000 0.24948  0.73940  0.73632  Biso   1.000  C
  C76      1.0000 0.75052  0.23940  0.76368  Biso   1.000  C
  C77      1.0000 0.73271  0.37950  0.25723  Biso   1.000  C
  C78      1.0000 0.26729  0.87950  0.24277  Biso   1.000  C
  C79      1.0000 0.26729  0.62050  0.74277  Biso   1.000  C
  C80      1.0000 0.73271  0.12050  0.75723  Biso   1.000  C
  C81      1.0000 0.73871  0.44980  0.32498  Biso   1.000  C
  C82      1.0000 0.26129  0.94980  0.17502  Biso   1.000  C
  C83      1.0000 0.26129  0.55020  0.67502  Biso   1.000  C
  C84      1.0000 0.73871  0.05020  0.82498  Biso   1.000  C
  C85      1.0000 0.75866  0.39990  0.39980  Biso   1.000  C
  C86      1.0000 0.24134  0.89990  0.10020  Biso   1.000  C
  C87      1.0000 0.24134  0.60010  0.60020  Biso   1.000  C
  C88      1.0000 0.75866  0.10010  0.89980  Biso   1.000  C
  C89      1.0000 0.77474  0.28070  0.40688  Biso   1.000  C
  C90      1.0000 0.22526  0.78070  0.09312  Biso   1.000  C
  C91      1.0000 0.22526  0.71930  0.59312  Biso   1.000  C
  C92      1.0000 0.77474  0.21930  0.90688  Biso   1.000  C
  C93      1.0000 0.77291  0.21260  0.33860  Biso   1.000  C
  C94      1.0000 0.22709  0.71260  0.16140  Biso   1.000  C
  C95      1.0000 0.22709  0.78740  0.66140  Biso   1.000  C
  C96      1.0000 0.77291  0.28740  0.83860  Biso   1.000  C
  C97      1.0000 0.76290  0.47300  0.47322  Biso   1.000  C
  C98      1.0000 0.23710  0.97300  0.02678  Biso   1.000  C
  C99      1.0000 0.23710  0.52700  0.52678  Biso   1.000  C
  C100     1.0000 0.76290  0.02700  0.97322  Biso   1.000  C
  C101     1.0000 0.69929  0.49310  0.50879  Biso   1.000  C
  C102     1.0000 0.30071  0.99310  0.99121  Biso   1.000  C
  C103     1.0000 0.30071  0.50690  0.49121  Biso   1.000  C
  C104     1.0000 0.69929  0.00690  0.00879  Biso   1.000  C
  C105     1.0000 0.70439  0.56240  0.57745  Biso   1.000  C
  C106     1.0000 0.29561  0.06240  0.92255  Biso   1.000  C
  C107     1.0000 0.29561  0.43760  0.42255  Biso   1.000  C
  C108     1.0000 0.70439  0.93760  0.07745  Biso   1.000  C
  C109     1.0000 0.77263  0.60760  0.61074  Biso   1.000  C
  C110     1.0000 0.22737  0.10760  0.88926  Biso   1.000  C
  C111     1.0000 0.22737  0.39240  0.38926  Biso   1.000  C
  C112     1.0000 0.77263  0.89240  0.11074  Biso   1.000  C
  C113     1.0000 0.83552  0.58190  0.57655  Biso   1.000  C
  C114     1.0000 0.16448  0.08190  0.92345  Biso   1.000  C
  C115     1.0000 0.16448  0.41810  0.42345  Biso   1.000  C
  C116     1.0000 0.83552  0.91810  0.07655  Biso   1.000  C
  C117     1.0000 0.83087  0.51670  0.50668  Biso   1.000  C
  C118     1.0000 0.16913  0.01670  0.99332  Biso   1.000  C
  C119     1.0000 0.16913  0.48330  0.49332  Biso   1.000  C
  C120     1.0000 0.83087  0.98330  0.00668  Biso   1.000  C
  C121     1.0000 0.74140  0.18340  0.19060  Biso   1.000  C
  C122     1.0000 0.25860  0.68340  0.30940  Biso   1.000  C
  C123     1.0000 0.25860  0.81660  0.80940  Biso   1.000  C
  C124     1.0000 0.74140  0.31660  0.69060  Biso   1.000  C
  H81      1.0000 0.75580  0.10520  0.20550  Biso   1.000  H
  H82      1.0000 0.24420  0.60520  0.29450  Biso   1.000  H
  H83      1.0000 0.24420  0.89480  0.79450  Biso   1.000  H
  H84      1.0000 0.75580  0.39480  0.70550  Biso   1.000  H
  H85      1.0000 0.77160  0.21210  0.15300  Biso   1.000  H
  H86      1.0000 0.22840  0.71210  0.34700  Biso   1.000  H
  H87      1.0000 0.22840  0.78790  0.84700  Biso   1.000  H
  H88      1.0000 0.77160  0.28790  0.65300  Biso   1.000  H
  H89      1.0000 0.69090  0.18390  0.16700  Biso   1.000  H
  H90      1.0000 0.30910  0.68390  0.33300  Biso   1.000  H
  H91      1.0000 0.30910  0.81610  0.83300  Biso   1.000  H
  H92      1.0000 0.69090  0.31610  0.66700  Biso   1.000  H
  C125     1.0000 0.72280  0.57930  0.31920  Biso   1.000  C
  C126     1.0000 0.27720  0.07930  0.18080  Biso   1.000  C
  C127     1.0000 0.27720  0.42070  0.68080  Biso   1.000  C
  C128     1.0000 0.72280  0.92070  0.81920  Biso   1.000  C
  H93      1.0000 0.73020  0.61300  0.37140  Biso   1.000  H
  H94      1.0000 0.26980  0.11300  0.12860  Biso   1.000  H
  H95      1.0000 0.26980  0.38700  0.62860  Biso   1.000  H
  H96      1.0000 0.73020  0.88700  0.87140  Biso   1.000  H
  H97      1.0000 0.67290  0.59130  0.29580  Biso   1.000  H
  H98      1.0000 0.32710  0.09130  0.20420  Biso   1.000  H
  H99      1.0000 0.32710  0.40870  0.70420  Biso   1.000  H
  H100     1.0000 0.67290  0.90870  0.79580  Biso   1.000  H
  H101     1.0000 0.75530  0.61550  0.28680  Biso   1.000  H
  H102     1.0000 0.24470  0.11550  0.21320  Biso   1.000  H
  H103     1.0000 0.24470  0.38450  0.71320  Biso   1.000  H
  H104     1.0000 0.75530  0.88450  0.78680  Biso   1.000  H
  C129     1.0000 0.79100  0.22720  0.48839  Biso   1.000  C
  C130     1.0000 0.20900  0.72720  0.01161  Biso   1.000  C
  C131     1.0000 0.20900  0.77280  0.51161  Biso   1.000  C
  C132     1.0000 0.79100  0.27280  0.98839  Biso   1.000  C
  H105     1.0000 0.79100  0.28690  0.52790  Biso   1.000  H
  H106     1.0000 0.20900  0.78690  0.97210  Biso   1.000  H
  H107     1.0000 0.20900  0.71310  0.47210  Biso   1.000  H
  H108     1.0000 0.79100  0.21310  0.02790  Biso   1.000  H
  H109     1.0000 0.83820  0.19020  0.49380  Biso   1.000  H
  H110     1.0000 0.16180  0.69020  0.00620  Biso   1.000  H
  H111     1.0000 0.16180  0.80980  0.50620  Biso   1.000  H
  H112     1.0000 0.83820  0.30980  0.99380  Biso   1.000  H
  H113     1.0000 0.75410  0.17030  0.49530  Biso   1.000  H
  H114     1.0000 0.24590  0.67030  0.00470  Biso   1.000  H
  H115     1.0000 0.24590  0.82970  0.50470  Biso   1.000  H
  H116     1.0000 0.75410  0.32970  0.99530  Biso   1.000  H
  C133     1.0000 0.89732  0.49010  0.46620  Biso   1.000  C
  C134     1.0000 0.10268  0.99010  0.03380  Biso   1.000  C
  C135     1.0000 0.10268  0.50990  0.53380  Biso   1.000  C
  C136     1.0000 0.89732  0.00990  0.96620  Biso   1.000  C
  H117     1.0000 0.88280  0.44320  0.41990  Biso   1.000  H
  H118     1.0000 0.11720  0.94320  0.08010  Biso   1.000  H
  H119     1.0000 0.11720  0.55680  0.58010  Biso   1.000  H
  H120     1.0000 0.88280  0.05680  0.91990  Biso   1.000  H
  H121     1.0000 0.93290  0.44850  0.50210  Biso   1.000  H
  H122     1.0000 0.06710  0.94850  0.99790  Biso   1.000  H
  H123     1.0000 0.06710  0.55150  0.49790  Biso   1.000  H
  H124     1.0000 0.93290  0.05150  0.00210  Biso   1.000  H
  H125     1.0000 0.91840  0.56160  0.45070  Biso   1.000  H
  H126     1.0000 0.08160  0.06160  0.04930  Biso   1.000  H
  H127     1.0000 0.08160  0.43840  0.54930  Biso   1.000  H
  H128     1.0000 0.91840  0.93840  0.95070  Biso   1.000  H
  C137     1.0000 0.62807  0.43660  0.47330  Biso   1.000  C
  C138     1.0000 0.37193  0.93660  0.02670  Biso   1.000  C
  C139     1.0000 0.37193  0.56340  0.52670  Biso   1.000  C
  C140     1.0000 0.62807  0.06340  0.97330  Biso   1.000  C
  H129     1.0000 0.63590  0.39320  0.42690  Biso   1.000  H
  H130     1.0000 0.36410  0.89320  0.07310  Biso   1.000  H
  H131     1.0000 0.36410  0.60680  0.57310  Biso   1.000  H
  H132     1.0000 0.63590  0.10680  0.92690  Biso   1.000  H
  H133     1.0000 0.59180  0.49570  0.45900  Biso   1.000  H
  H134     1.0000 0.40820  0.99570  0.04100  Biso   1.000  H
  H135     1.0000 0.40820  0.50430  0.54100  Biso   1.000  H
  H136     1.0000 0.59180  0.00430  0.95900  Biso   1.000  H
  H137     1.0000 0.61140  0.38490  0.51160  Biso   1.000  H
  H138     1.0000 0.38860  0.88490  0.98840  Biso   1.000  H
  H139     1.0000 0.38860  0.61510  0.48840  Biso   1.000  H
  H140     1.0000 0.61140  0.11510  0.01160  Biso   1.000  H
  C141     1.0000 0.77860  0.68260  0.68460  Biso   1.000  C
  C142     1.0000 0.22140  0.18260  0.81540  Biso   1.000  C
  C143     1.0000 0.22140  0.31740  0.31540  Biso   1.000  C
  C144     1.0000 0.77860  0.81740  0.18460  Biso   1.000  C
  H141     1.0000 0.73120  0.68900  0.70220  Biso   1.000  H
  H142     1.0000 0.26880  0.18900  0.79780  Biso   1.000  H
  H143     1.0000 0.26880  0.31100  0.29780  Biso   1.000  H
  H144     1.0000 0.73120  0.81100  0.20220  Biso   1.000  H
  H145     1.0000 0.79580  0.75870  0.67280  Biso   1.000  H
  H146     1.0000 0.20420  0.25870  0.82720  Biso   1.000  H
  H147     1.0000 0.20420  0.24130  0.32720  Biso   1.000  H
  H148     1.0000 0.79580  0.74130  0.17280  Biso   1.000  H
  H149     1.0000 0.81250  0.64760  0.72570  Biso   1.000  H
  H150     1.0000 0.18750  0.14760  0.77430  Biso   1.000  H
  H151     1.0000 0.18750  0.35240  0.27430  Biso   1.000  H
  H152     1.0000 0.81250  0.85240  0.22570  Biso   1.000  H
