data_image0
_cell_length_a       11.683
_cell_length_b       12.68
_cell_length_c       25.831
_cell_angle_alpha    90
_cell_angle_beta     97.184
_cell_angle_gamma    90

_symmetry_space_group_name_H-M    "P 1"
_symmetry_int_tables_number       1

loop_
  _symmetry_equiv_pos_as_xyz
  'x, y, z'

loop_
  _atom_site_label
  _atom_site_occupancy
  _atom_site_fract_x
  _atom_site_fract_y
  _atom_site_fract_z
  _atom_site_thermal_displace_type
  _atom_site_B_iso_or_equiv
  _atom_site_type_symbol
  Cu1      1.0000 0.79003  0.18754  0.53610  Biso   1.000  Cu
  Cu2      1.0000 0.20997  0.68754  0.96390  Biso   1.000  Cu
  Cu3      1.0000 0.20997  0.81246  0.46390  Biso   1.000  Cu
  Cu4      1.0000 0.79003  0.31246  0.03610  Biso   1.000  Cu
  Cu5      1.0000 0.64461  0.12675  0.35080  Biso   1.000  Cu
  Cu6      1.0000 0.35539  0.62675  0.14920  Biso   1.000  Cu
  Cu7      1.0000 0.35539  0.87325  0.64920  Biso   1.000  Cu
  Cu8      1.0000 0.64461  0.37325  0.85080  Biso   1.000  Cu
  Cu9      1.0000 0.12606  0.62482  0.29873  Biso   1.000  Cu
  Cu10     1.0000 0.87394  0.12482  0.20127  Biso   1.000  Cu
  Cu11     1.0000 0.87394  0.37518  0.70127  Biso   1.000  Cu
  Cu12     1.0000 0.12606  0.87518  0.79873  Biso   1.000  Cu
  N1       1.0000 0.81670  0.28790  0.59220  Biso   1.000  N
  N2       1.0000 0.18330  0.78790  0.90780  Biso   1.000  N
  N3       1.0000 0.18330  0.71210  0.40780  Biso   1.000  N
  N4       1.0000 0.81670  0.21210  0.09220  Biso   1.000  N
  N5       1.0000 0.68920  0.15480  0.42460  Biso   1.000  N
  N6       1.0000 0.31080  0.65480  0.07540  Biso   1.000  N
  N7       1.0000 0.31080  0.84520  0.57540  Biso   1.000  N
  N8       1.0000 0.68920  0.34520  0.92460  Biso   1.000  N
  N9       1.0000 0.79420  0.12820  0.26110  Biso   1.000  N
  N10      1.0000 0.20580  0.62820  0.23890  Biso   1.000  N
  N11      1.0000 0.20580  0.87180  0.73890  Biso   1.000  N
  N12      1.0000 0.79420  0.37180  0.76110  Biso   1.000  N
  N13      1.0000 0.83040  0.46250  0.32404  Biso   1.000  N
  N14      1.0000 0.16960  0.96250  0.17596  Biso   1.000  N
  N15      1.0000 0.16960  0.53750  0.67596  Biso   1.000  N
  N16      1.0000 0.83040  0.03750  0.82404  Biso   1.000  N
  N17      1.0000 0.97780  0.54130  0.29443  Biso   1.000  N
  N18      1.0000 0.02220  0.04130  0.20557  Biso   1.000  N
  N19      1.0000 0.02220  0.45870  0.70557  Biso   1.000  N
  N20      1.0000 0.97780  0.95870  0.79443  Biso   1.000  N
  N21      1.0000 0.47660  0.83010  0.36325  Biso   1.000  N
  N22      1.0000 0.52340  0.33010  0.13675  Biso   1.000  N
  N23      1.0000 0.52340  0.16990  0.63675  Biso   1.000  N
  N24      1.0000 0.47660  0.66990  0.86325  Biso   1.000  N
  C1       1.0000 0.42600  0.98610  0.33720  Biso   1.000  C
  C2       1.0000 0.57400  0.48610  0.16280  Biso   1.000  C
  C3       1.0000 0.57400  0.01390  0.66280  Biso   1.000  C
  C4       1.0000 0.42600  0.51390  0.83720  Biso   1.000  C
  H1       1.0000 0.38120  0.04370  0.32510  Biso   1.000  H
  H2       1.0000 0.61880  0.54370  0.17490  Biso   1.000  H
  H3       1.0000 0.61880  0.95630  0.67490  Biso   1.000  H
  H4       1.0000 0.38120  0.45630  0.82510  Biso   1.000  H
  N25      1.0000 0.98590  0.92120  0.58960  Biso   1.000  N
  N26      1.0000 0.01410  0.42120  0.91040  Biso   1.000  N
  N27      1.0000 0.01410  0.07880  0.41040  Biso   1.000  N
  N28      1.0000 0.98590  0.57880  0.08960  Biso   1.000  N
  N29      1.0000 0.89420  0.07080  0.57168  Biso   1.000  N
  N30      1.0000 0.10580  0.57080  0.92832  Biso   1.000  N
  N31      1.0000 0.10580  0.92920  0.42832  Biso   1.000  N
  N32      1.0000 0.89420  0.42920  0.07168  Biso   1.000  N
  N33      1.0000 0.63190  0.65170  0.68082  Biso   1.000  N
  N34      1.0000 0.36810  0.15170  0.81918  Biso   1.000  N
  N35      1.0000 0.36810  0.34830  0.31918  Biso   1.000  N
  N36      1.0000 0.63190  0.84830  0.18082  Biso   1.000  N
  N37      1.0000 0.48460  0.76200  0.67655  Biso   1.000  N
  N38      1.0000 0.51540  0.26200  0.82345  Biso   1.000  N
  N39      1.0000 0.51540  0.23800  0.32345  Biso   1.000  N
  N40      1.0000 0.48460  0.73800  0.17655  Biso   1.000  N
  C5       1.0000 0.83910  0.32570  0.63270  Biso   1.000  C
  C6       1.0000 0.16090  0.82570  0.86730  Biso   1.000  C
  C7       1.0000 0.16090  0.67430  0.36730  Biso   1.000  C
  C8       1.0000 0.83910  0.17430  0.13270  Biso   1.000  C
  C9       1.0000 0.72180  0.16830  0.46820  Biso   1.000  C
  C10      1.0000 0.27820  0.66830  0.03180  Biso   1.000  C
  C11      1.0000 0.27820  0.83170  0.53180  Biso   1.000  C
  C12      1.0000 0.72180  0.33170  0.96820  Biso   1.000  C
  C13      1.0000 0.74200  0.12770  0.29574  Biso   1.000  C
  C14      1.0000 0.25800  0.62770  0.20426  Biso   1.000  C
  C15      1.0000 0.25800  0.87230  0.70426  Biso   1.000  C
  C16      1.0000 0.74200  0.37230  0.79574  Biso   1.000  C
  C17      1.0000 0.92220  0.47780  0.25630  Biso   1.000  C
  C18      1.0000 0.07780  0.97780  0.24370  Biso   1.000  C
  C19      1.0000 0.07780  0.52220  0.74370  Biso   1.000  C
  C20      1.0000 0.92220  0.02220  0.75630  Biso   1.000  C
  H5       1.0000 0.94270  0.47010  0.22290  Biso   1.000  H
  H6       1.0000 0.05730  0.97010  0.27710  Biso   1.000  H
  H7       1.0000 0.05730  0.52990  0.77710  Biso   1.000  H
  H8       1.0000 0.94270  0.02990  0.72290  Biso   1.000  H
  C21      1.0000 0.83490  0.42900  0.27420  Biso   1.000  C
  C22      1.0000 0.16510  0.92900  0.22580  Biso   1.000  C
  C23      1.0000 0.16510  0.57100  0.72580  Biso   1.000  C
  C24      1.0000 0.83490  0.07100  0.77420  Biso   1.000  C
  H9       1.0000 0.78540  0.38050  0.25600  Biso   1.000  H
  H10      1.0000 0.21460  0.88050  0.24400  Biso   1.000  H
  H11      1.0000 0.21460  0.61950  0.74400  Biso   1.000  H
  H12      1.0000 0.78540  0.11950  0.75600  Biso   1.000  H
  C25      1.0000 0.91810  0.52900  0.33430  Biso   1.000  C
  C26      1.0000 0.08190  0.02900  0.16570  Biso   1.000  C
  C27      1.0000 0.08190  0.47100  0.66570  Biso   1.000  C
  C28      1.0000 0.91810  0.97100  0.83430  Biso   1.000  C
  H13      1.0000 0.93570  0.56340  0.36610  Biso   1.000  H
  H14      1.0000 0.06430  0.06340  0.13390  Biso   1.000  H
  H15      1.0000 0.06430  0.43660  0.63390  Biso   1.000  H
  H16      1.0000 0.93570  0.93660  0.86610  Biso   1.000  H
  N41      1.0000 0.54310  0.98760  0.34739  Biso   1.000  N
  N42      1.0000 0.45690  0.48760  0.15261  Biso   1.000  N
  N43      1.0000 0.45690  0.01240  0.65261  Biso   1.000  N
  N44      1.0000 0.54310  0.51240  0.84739  Biso   1.000  N
  C29      1.0000 0.38360  0.89150  0.34700  Biso   1.000  C
  C30      1.0000 0.61640  0.39150  0.15300  Biso   1.000  C
  C31      1.0000 0.61640  0.10850  0.65300  Biso   1.000  C
  C32      1.0000 0.38360  0.60850  0.84700  Biso   1.000  C
  H17      1.0000 0.30640  0.87160  0.34350  Biso   1.000  H
  H18      1.0000 0.69360  0.37160  0.15650  Biso   1.000  H
  H19      1.0000 0.69360  0.12840  0.65650  Biso   1.000  H
  H20      1.0000 0.30640  0.62840  0.84350  Biso   1.000  H
  C33      1.0000 0.56940  0.89140  0.36300  Biso   1.000  C
  C34      1.0000 0.43060  0.39140  0.13700  Biso   1.000  C
  C35      1.0000 0.43060  0.10860  0.63700  Biso   1.000  C
  C36      1.0000 0.56940  0.60860  0.86300  Biso   1.000  C
  H21      1.0000 0.64450  0.86830  0.37290  Biso   1.000  H
  H22      1.0000 0.35550  0.36830  0.12710  Biso   1.000  H
  H23      1.0000 0.35550  0.13170  0.62710  Biso   1.000  H
  H24      1.0000 0.64450  0.63170  0.87290  Biso   1.000  H
  C37      1.0000 0.04460  0.99680  0.61910  Biso   1.000  C
  C38      1.0000 0.95540  0.49680  0.88090  Biso   1.000  C
  C39      1.0000 0.95540  0.00320  0.38090  Biso   1.000  C
  C40      1.0000 0.04460  0.50320  0.11910  Biso   1.000  C
  H25      1.0000 0.11160  0.98780  0.64220  Biso   1.000  H
  H26      1.0000 0.88840  0.48780  0.85780  Biso   1.000  H
  H27      1.0000 0.88840  0.01220  0.35780  Biso   1.000  H
  H28      1.0000 0.11160  0.51220  0.14220  Biso   1.000  H
  C41      1.0000 0.98680  0.08700  0.60840  Biso   1.000  C
  C42      1.0000 0.01320  0.58700  0.89160  Biso   1.000  C
  C43      1.0000 0.01320  0.91300  0.39160  Biso   1.000  C
  C44      1.0000 0.98680  0.41300  0.10840  Biso   1.000  C
  H29      1.0000 0.00700  0.15170  0.62380  Biso   1.000  H
  H30      1.0000 0.99300  0.65170  0.87620  Biso   1.000  H
  H31      1.0000 0.99300  0.84830  0.37620  Biso   1.000  H
  H32      1.0000 0.00700  0.34830  0.12380  Biso   1.000  H
  C45      1.0000 0.89640  0.96920  0.56190  Biso   1.000  C
  C46      1.0000 0.10360  0.46920  0.93810  Biso   1.000  C
  C47      1.0000 0.10360  0.03080  0.43810  Biso   1.000  C
  C48      1.0000 0.89640  0.53080  0.06190  Biso   1.000  C
  H33      1.0000 0.84210  0.93470  0.53840  Biso   1.000  H
  H34      1.0000 0.15790  0.43470  0.96160  Biso   1.000  H
  H35      1.0000 0.15790  0.06530  0.46160  Biso   1.000  H
  H36      1.0000 0.84210  0.56530  0.03840  Biso   1.000  H
  C49      1.0000 0.58710  0.64480  0.72700  Biso   1.000  C
  C50      1.0000 0.41290  0.14480  0.77300  Biso   1.000  C
  C51      1.0000 0.41290  0.35520  0.27300  Biso   1.000  C
  C52      1.0000 0.58710  0.85520  0.22700  Biso   1.000  C
  H37      1.0000 0.61340  0.60190  0.75520  Biso   1.000  H
  H38      1.0000 0.38660  0.10190  0.74480  Biso   1.000  H
  H39      1.0000 0.38660  0.39810  0.24480  Biso   1.000  H
  H40      1.0000 0.61340  0.89810  0.25520  Biso   1.000  H
  C53      1.0000 0.49760  0.71180  0.72380  Biso   1.000  C
  C54      1.0000 0.50240  0.21180  0.77620  Biso   1.000  C
  C55      1.0000 0.50240  0.28820  0.27620  Biso   1.000  C
  C56      1.0000 0.49760  0.78820  0.22380  Biso   1.000  C
  H41      1.0000 0.45100  0.72270  0.75000  Biso   1.000  H
  H42      1.0000 0.54900  0.22270  0.75000  Biso   1.000  H
  H43      1.0000 0.54900  0.27730  0.25000  Biso   1.000  H
  H44      1.0000 0.45100  0.77730  0.25000  Biso   1.000  H
  C57      1.0000 0.56660  0.72330  0.65180  Biso   1.000  C
  C58      1.0000 0.43340  0.22330  0.84820  Biso   1.000  C
  C59      1.0000 0.43340  0.27670  0.34820  Biso   1.000  C
  C60      1.0000 0.56660  0.77670  0.15180  Biso   1.000  C
  H45      1.0000 0.57840  0.74280  0.61820  Biso   1.000  H
  H46      1.0000 0.42160  0.24280  0.88180  Biso   1.000  H
  H47      1.0000 0.42160  0.25720  0.38180  Biso   1.000  H
  H48      1.0000 0.57840  0.75720  0.11820  Biso   1.000  H
  C61      1.0000 0.74780  0.42900  0.35940  Biso   1.000  C
  C62      1.0000 0.25220  0.92900  0.14060  Biso   1.000  C
  C63      1.0000 0.25220  0.57100  0.64060  Biso   1.000  C
  C64      1.0000 0.74780  0.07100  0.85940  Biso   1.000  C
  H49      1.0000 0.78370  0.37580  0.38300  Biso   1.000  H
  H50      1.0000 0.21630  0.87580  0.11700  Biso   1.000  H
  H51      1.0000 0.21630  0.62420  0.61700  Biso   1.000  H
  H52      1.0000 0.78370  0.12420  0.88300  Biso   1.000  H
  H53      1.0000 0.68130  0.39710  0.33900  Biso   1.000  H
  H54      1.0000 0.31870  0.89710  0.16100  Biso   1.000  H
  H55      1.0000 0.31870  0.60290  0.66100  Biso   1.000  H
  H56      1.0000 0.68130  0.10290  0.83900  Biso   1.000  H
  C65      1.0000 0.46510  0.72000  0.37980  Biso   1.000  C
  C66      1.0000 0.53490  0.22000  0.12020  Biso   1.000  C
  C67      1.0000 0.53490  0.28000  0.62020  Biso   1.000  C
  C68      1.0000 0.46510  0.78000  0.87980  Biso   1.000  C
  H57      1.0000 0.42620  0.68070  0.35060  Biso   1.000  H
  H58      1.0000 0.57380  0.18070  0.14940  Biso   1.000  H
  H59      1.0000 0.57380  0.31930  0.64940  Biso   1.000  H
  H60      1.0000 0.42620  0.81930  0.85060  Biso   1.000  H
  H61      1.0000 0.41550  0.71890  0.40730  Biso   1.000  H
  H62      1.0000 0.58450  0.21890  0.09270  Biso   1.000  H
  H63      1.0000 0.58450  0.28110  0.59270  Biso   1.000  H
  H64      1.0000 0.41550  0.78110  0.90730  Biso   1.000  H
  C69      1.0000 0.01850  0.80900  0.58820  Biso   1.000  C
  C70      1.0000 0.98150  0.30900  0.91180  Biso   1.000  C
  C71      1.0000 0.98150  0.19100  0.41180  Biso   1.000  C
  C72      1.0000 0.01850  0.69100  0.08820  Biso   1.000  C
  H65      1.0000 0.06610  0.79100  0.62050  Biso   1.000  H
  H66      1.0000 0.93390  0.29100  0.87950  Biso   1.000  H
  H67      1.0000 0.93390  0.20900  0.37950  Biso   1.000  H
  H68      1.0000 0.06610  0.70900  0.12050  Biso   1.000  H
  H69      1.0000 0.06400  0.79780  0.55970  Biso   1.000  H
  H70      1.0000 0.93600  0.29780  0.94030  Biso   1.000  H
  H71      1.0000 0.93600  0.20220  0.44030  Biso   1.000  H
  H72      1.0000 0.06400  0.70220  0.05970  Biso   1.000  H
  C73      1.0000 0.72730  0.58720  0.66580  Biso   1.000  C
  C74      1.0000 0.27270  0.08720  0.83420  Biso   1.000  C
  C75      1.0000 0.27270  0.41280  0.33420  Biso   1.000  C
  C76      1.0000 0.72730  0.91280  0.16580  Biso   1.000  C
  H73      1.0000 0.69990  0.51590  0.65850  Biso   1.000  H
  H74      1.0000 0.30010  0.01590  0.84150  Biso   1.000  H
  H75      1.0000 0.30010  0.48410  0.34150  Biso   1.000  H
  H76      1.0000 0.69990  0.98410  0.15850  Biso   1.000  H
  H77      1.0000 0.78850  0.58410  0.69490  Biso   1.000  H
  H78      1.0000 0.21150  0.08410  0.80510  Biso   1.000  H
  H79      1.0000 0.21150  0.41590  0.30510  Biso   1.000  H
  H80      1.0000 0.78850  0.91590  0.19490  Biso   1.000  H
  C77      1.0000 0.62020  0.58740  0.36770  Biso   1.000  C
  C78      1.0000 0.37980  0.08740  0.13230  Biso   1.000  C
  C79      1.0000 0.37980  0.41260  0.63230  Biso   1.000  C
  C80      1.0000 0.62020  0.91260  0.86770  Biso   1.000  C
  C81      1.0000 0.57550  0.66320  0.39930  Biso   1.000  C
  C82      1.0000 0.42450  0.16320  0.10070  Biso   1.000  C
  C83      1.0000 0.42450  0.33680  0.60070  Biso   1.000  C
  C84      1.0000 0.57550  0.83680  0.89930  Biso   1.000  C
  C85      1.0000 0.62370  0.67900  0.45050  Biso   1.000  C
  C86      1.0000 0.37630  0.17900  0.04950  Biso   1.000  C
  C87      1.0000 0.37630  0.32100  0.54950  Biso   1.000  C
  C88      1.0000 0.62370  0.82100  0.95050  Biso   1.000  C
  C89      1.0000 0.71650  0.61500  0.47160  Biso   1.000  C
  C90      1.0000 0.28350  0.11500  0.02840  Biso   1.000  C
  C91      1.0000 0.28350  0.38500  0.52840  Biso   1.000  C
  C92      1.0000 0.71650  0.88500  0.97160  Biso   1.000  C
  C93      1.0000 0.75470  0.53230  0.44240  Biso   1.000  C
  C94      1.0000 0.24530  0.03230  0.05760  Biso   1.000  C
  C95      1.0000 0.24530  0.46770  0.55760  Biso   1.000  C
  C96      1.0000 0.75470  0.96770  0.94240  Biso   1.000  C
  C97      1.0000 0.70740  0.51900  0.39090  Biso   1.000  C
  C98      1.0000 0.29260  0.01900  0.10910  Biso   1.000  C
  C99      1.0000 0.29260  0.48100  0.60910  Biso   1.000  C
  C100     1.0000 0.70740  0.98100  0.89090  Biso   1.000  C
  C101     1.0000 0.77280  0.63810  0.52510  Biso   1.000  C
  C102     1.0000 0.22720  0.13810  0.97490  Biso   1.000  C
  C103     1.0000 0.22720  0.36190  0.47490  Biso   1.000  C
  C104     1.0000 0.77280  0.86190  0.02510  Biso   1.000  C
  C105     1.0000 0.86890  0.70590  0.53160  Biso   1.000  C
  C106     1.0000 0.13110  0.20590  0.96840  Biso   1.000  C
  C107     1.0000 0.13110  0.29410  0.46840  Biso   1.000  C
  C108     1.0000 0.86890  0.79410  0.03160  Biso   1.000  C
  C109     1.0000 0.91500  0.73750  0.58110  Biso   1.000  C
  C110     1.0000 0.08500  0.23750  0.91890  Biso   1.000  C
  C111     1.0000 0.08500  0.26250  0.41890  Biso   1.000  C
  C112     1.0000 0.91500  0.76250  0.08110  Biso   1.000  C
  C113     1.0000 0.86580  0.70270  0.62480  Biso   1.000  C
  C114     1.0000 0.13420  0.20270  0.87520  Biso   1.000  C
  C115     1.0000 0.13420  0.29730  0.37520  Biso   1.000  C
  C116     1.0000 0.86580  0.79730  0.12480  Biso   1.000  C
  C117     1.0000 0.77530  0.63050  0.61860  Biso   1.000  C
  C118     1.0000 0.22470  0.13050  0.88140  Biso   1.000  C
  C119     1.0000 0.22470  0.36950  0.38140  Biso   1.000  C
  C120     1.0000 0.77530  0.86950  0.11860  Biso   1.000  C
  C121     1.0000 0.72720  0.59800  0.56900  Biso   1.000  C
  C122     1.0000 0.27280  0.09800  0.93100  Biso   1.000  C
  C123     1.0000 0.27280  0.40200  0.43100  Biso   1.000  C
  C124     1.0000 0.72720  0.90200  0.06900  Biso   1.000  C
  C125     1.0000 0.57680  0.57750  0.31100  Biso   1.000  C
  C126     1.0000 0.42320  0.07750  0.18900  Biso   1.000  C
  C127     1.0000 0.42320  0.42250  0.68900  Biso   1.000  C
  C128     1.0000 0.57680  0.92250  0.81100  Biso   1.000  C
  H81      1.0000 0.51820  0.62960  0.30160  Biso   1.000  H
  H82      1.0000 0.48180  0.12960  0.19840  Biso   1.000  H
  H83      1.0000 0.48180  0.37040  0.69840  Biso   1.000  H
  H84      1.0000 0.51820  0.87040  0.80160  Biso   1.000  H
  H85      1.0000 0.54500  0.50840  0.30410  Biso   1.000  H
  H86      1.0000 0.45500  0.00840  0.19590  Biso   1.000  H
  H87      1.0000 0.45500  0.49160  0.69590  Biso   1.000  H
  H88      1.0000 0.54500  0.99160  0.80410  Biso   1.000  H
  H89      1.0000 0.63940  0.58830  0.29080  Biso   1.000  H
  H90      1.0000 0.36060  0.08830  0.20920  Biso   1.000  H
  H91      1.0000 0.36060  0.41170  0.70920  Biso   1.000  H
  H92      1.0000 0.63940  0.91170  0.79080  Biso   1.000  H
  C129     1.0000 0.57940  0.76390  0.48380  Biso   1.000  C
  C130     1.0000 0.42060  0.26390  0.01620  Biso   1.000  C
  C131     1.0000 0.42060  0.23610  0.51620  Biso   1.000  C
  C132     1.0000 0.57940  0.73610  0.98380  Biso   1.000  C
  H93      1.0000 0.51550  0.79930  0.46420  Biso   1.000  H
  H94      1.0000 0.48450  0.29930  0.03580  Biso   1.000  H
  H95      1.0000 0.48450  0.20070  0.53580  Biso   1.000  H
  H96      1.0000 0.51550  0.70070  0.96420  Biso   1.000  H
  H97      1.0000 0.63980  0.81370  0.49400  Biso   1.000  H
  H98      1.0000 0.36020  0.31370  0.00600  Biso   1.000  H
  H99      1.0000 0.36020  0.18630  0.50600  Biso   1.000  H
  H100     1.0000 0.63980  0.68630  0.99400  Biso   1.000  H
  H101     1.0000 0.55460  0.73250  0.51430  Biso   1.000  H
  H102     1.0000 0.44540  0.23250  0.98570  Biso   1.000  H
  H103     1.0000 0.44540  0.26750  0.48570  Biso   1.000  H
  H104     1.0000 0.55460  0.76750  0.01430  Biso   1.000  H
  C133     1.0000 0.84750  0.45890  0.46770  Biso   1.000  C
  C134     1.0000 0.15250  0.95890  0.03230  Biso   1.000  C
  C135     1.0000 0.15250  0.54110  0.53230  Biso   1.000  C
  C136     1.0000 0.84750  0.04110  0.96770  Biso   1.000  C
  H105     1.0000 0.86420  0.40640  0.44290  Biso   1.000  H
  H106     1.0000 0.13580  0.90640  0.05710  Biso   1.000  H
  H107     1.0000 0.13580  0.59360  0.55710  Biso   1.000  H
  H108     1.0000 0.86420  0.09360  0.94290  Biso   1.000  H
  H109     1.0000 0.82100  0.42510  0.49730  Biso   1.000  H
  H110     1.0000 0.17900  0.92510  0.00270  Biso   1.000  H
  H111     1.0000 0.17900  0.57490  0.50270  Biso   1.000  H
  H112     1.0000 0.82100  0.07490  0.99730  Biso   1.000  H
  H113     1.0000 0.91610  0.49860  0.47890  Biso   1.000  H
  H114     1.0000 0.08390  0.99860  0.02110  Biso   1.000  H
  H115     1.0000 0.08390  0.50140  0.52110  Biso   1.000  H
  H116     1.0000 0.91610  0.00140  0.97890  Biso   1.000  H
  C137     1.0000 0.91750  0.74390  0.48340  Biso   1.000  C
  C138     1.0000 0.08250  0.24390  0.01660  Biso   1.000  C
  C139     1.0000 0.08250  0.25610  0.51660  Biso   1.000  C
  C140     1.0000 0.91750  0.75610  0.98340  Biso   1.000  C
  H117     1.0000 0.98080  0.79100  0.49340  Biso   1.000  H
  H118     1.0000 0.01920  0.29100  0.00660  Biso   1.000  H
  H119     1.0000 0.01920  0.20900  0.50660  Biso   1.000  H
  H120     1.0000 0.98080  0.70900  0.99340  Biso   1.000  H
  H121     1.0000 0.85860  0.78030  0.46100  Biso   1.000  H
  H122     1.0000 0.14140  0.28030  0.03900  Biso   1.000  H
  H123     1.0000 0.14140  0.21970  0.53900  Biso   1.000  H
  H124     1.0000 0.85860  0.71970  0.96100  Biso   1.000  H
  H125     1.0000 0.94410  0.68460  0.46510  Biso   1.000  H
  H126     1.0000 0.05590  0.18460  0.03490  Biso   1.000  H
  H127     1.0000 0.05590  0.31540  0.53490  Biso   1.000  H
  H128     1.0000 0.94410  0.81540  0.96510  Biso   1.000  H
  C141     1.0000 0.62710  0.52240  0.56080  Biso   1.000  C
  C142     1.0000 0.37290  0.02240  0.93920  Biso   1.000  C
  C143     1.0000 0.37290  0.47760  0.43920  Biso   1.000  C
  C144     1.0000 0.62710  0.97760  0.06080  Biso   1.000  C
  H129     1.0000 0.60730  0.50970  0.52410  Biso   1.000  H
  H130     1.0000 0.39270  0.00970  0.97590  Biso   1.000  H
  H131     1.0000 0.39270  0.49030  0.47590  Biso   1.000  H
  H132     1.0000 0.60730  0.99030  0.02410  Biso   1.000  H
  H133     1.0000 0.56200  0.55220  0.57480  Biso   1.000  H
  H134     1.0000 0.43800  0.05220  0.92520  Biso   1.000  H
  H135     1.0000 0.43800  0.44780  0.42520  Biso   1.000  H
  H136     1.0000 0.56200  0.94780  0.07480  Biso   1.000  H
  H137     1.0000 0.64830  0.45700  0.57810  Biso   1.000  H
  H138     1.0000 0.35170  0.95700  0.92190  Biso   1.000  H
  H139     1.0000 0.35170  0.54300  0.42190  Biso   1.000  H
  H140     1.0000 0.64830  0.04300  0.07810  Biso   1.000  H
  C145     1.0000 0.90680  0.74690  0.67820  Biso   1.000  C
  C146     1.0000 0.09320  0.24690  0.82180  Biso   1.000  C
  C147     1.0000 0.09320  0.25310  0.32180  Biso   1.000  C
  C148     1.0000 0.90680  0.75310  0.17820  Biso   1.000  C
  H141     1.0000 0.96910  0.79530  0.67580  Biso   1.000  H
  H142     1.0000 0.03090  0.29530  0.82420  Biso   1.000  H
  H143     1.0000 0.03090  0.20470  0.32420  Biso   1.000  H
  H144     1.0000 0.96910  0.70470  0.17580  Biso   1.000  H
  H145     1.0000 0.93300  0.69030  0.70140  Biso   1.000  H
  H146     1.0000 0.06700  0.19030  0.79860  Biso   1.000  H
  H147     1.0000 0.06700  0.30970  0.29860  Biso   1.000  H
  H148     1.0000 0.93300  0.80970  0.20140  Biso   1.000  H
  H149     1.0000 0.84440  0.78310  0.69140  Biso   1.000  H
  H150     1.0000 0.15560  0.28310  0.80860  Biso   1.000  H
  H151     1.0000 0.15560  0.21690  0.30860  Biso   1.000  H
  H152     1.0000 0.84440  0.71690  0.19140  Biso   1.000  H
