data_image0
_cell_length_a       12.0727
_cell_length_b       13.0312
_cell_length_c       13.1699
_cell_angle_alpha    90.269
_cell_angle_beta     104.349
_cell_angle_gamma    108.637

_symmetry_space_group_name_H-M    "P 1"
_symmetry_int_tables_number       1

loop_
  _symmetry_equiv_pos_as_xyz
  'x, y, z'

loop_
  _atom_site_label
  _atom_site_occupancy
  _atom_site_fract_x
  _atom_site_fract_y
  _atom_site_fract_z
  _atom_site_thermal_displace_type
  _atom_site_B_iso_or_equiv
  _atom_site_type_symbol
  Cu1      1.0000 0.10160  0.08340  0.01850  Biso   1.000  Cu
  Cu2      1.0000 0.89840  0.91660  0.98150  Biso   1.000  Cu
  Br1      1.0000 0.96370  0.03590  0.84120  Biso   1.000  Br
  Br2      1.0000 0.03630  0.96410  0.15880  Biso   1.000  Br
  O1       1.0000 0.84720  0.42020  0.72450  Biso   1.000  O
  O2       1.0000 0.15280  0.57980  0.27550  Biso   1.000  O
  O3       1.0000 0.83080  0.37380  0.88510  Biso   1.000  O
  O4       1.0000 0.16920  0.62620  0.11490  Biso   1.000  O
  O5       1.0000 0.67760  0.18080  0.95050  Biso   1.000  O
  O6       1.0000 0.32240  0.81920  0.04950  Biso   1.000  O
  O7       1.0000 0.72040  0.15980  0.12140  Biso   1.000  O
  O8       1.0000 0.27960  0.84020  0.87860  Biso   1.000  O
  N1       1.0000 0.88380  0.76360  0.92650  Biso   1.000  N
  N2       1.0000 0.11620  0.23640  0.07350  Biso   1.000  N
  N3       1.0000 0.72820  0.91090  0.98510  Biso   1.000  N
  N4       1.0000 0.27180  0.08910  0.01490  Biso   1.000  N
  C1       1.0000 0.85830  0.55490  0.85370  Biso   1.000  C
  C2       1.0000 0.14170  0.44510  0.14630  Biso   1.000  C
  C3       1.0000 0.87430  0.63920  0.78980  Biso   1.000  C
  C4       1.0000 0.12570  0.36080  0.21020  Biso   1.000  C
  C5       1.0000 0.88700  0.74050  0.82860  Biso   1.000  C
  C6       1.0000 0.11300  0.25950  0.17140  Biso   1.000  C
  C7       1.0000 0.86680  0.68230  0.98650  Biso   1.000  C
  C8       1.0000 0.13320  0.31770  0.01350  Biso   1.000  C
  C9       1.0000 0.85400  0.57790  0.95440  Biso   1.000  C
  C10      1.0000 0.14600  0.42210  0.04560  Biso   1.000  C
  C11      1.0000 0.84360  0.44370  0.81170  Biso   1.000  C
  C12      1.0000 0.15640  0.55630  0.18830  Biso   1.000  C
  C13      1.0000 0.82070  0.26300  0.85740  Biso   1.000  C
  C14      1.0000 0.17930  0.73700  0.14260  Biso   1.000  C
  C15      1.0000 0.80290  0.20180  0.94930  Biso   1.000  C
  C16      1.0000 0.19710  0.79820  0.05070  Biso   1.000  C
  C17      1.0000 0.64950  0.16050  0.04090  Biso   1.000  C
  C18      1.0000 0.35050  0.83950  0.95910  Biso   1.000  C
  C19      1.0000 0.51700  0.13550  0.02870  Biso   1.000  C
  C20      1.0000 0.48300  0.86450  0.97130  Biso   1.000  C
  C21      1.0000 0.43340  0.12760  0.93290  Biso   1.000  C
  C22      1.0000 0.56660  0.87240  0.06710  Biso   1.000  C
  C23      1.0000 0.68590  0.89430  0.07110  Biso   1.000  C
  C24      1.0000 0.31410  0.10570  0.92890  Biso   1.000  C
  C25      1.0000 0.64810  0.90640  0.89360  Biso   1.000  C
  C26      1.0000 0.35190  0.09360  0.10640  Biso   1.000  C
  C27      1.0000 0.47410  0.11560  0.11550  Biso   1.000  C
  C28      1.0000 0.52590  0.88440  0.88450  Biso   1.000  C
  H1       1.0000 0.87620  0.62680  0.72080  Biso   1.000  H
  H2       1.0000 0.12380  0.37320  0.27920  Biso   1.000  H
  H3       1.0000 0.89860  0.79650  0.78470  Biso   1.000  H
  H4       1.0000 0.10140  0.20350  0.21530  Biso   1.000  H
  H5       1.0000 0.86320  0.69650  0.05460  Biso   1.000  H
  H6       1.0000 0.13680  0.30350  0.94540  Biso   1.000  H
  H7       1.0000 0.84260  0.52350  0.00000  Biso   1.000  H
  H8       1.0000 0.15740  0.47650  0.00000  Biso   1.000  H
  H9       1.0000 0.89380  0.26120  0.84040  Biso   1.000  H
  H10      1.0000 0.10620  0.73880  0.15960  Biso   1.000  H
  H11      1.0000 0.75250  0.23140  0.79670  Biso   1.000  H
  H12      1.0000 0.24750  0.76860  0.20330  Biso   1.000  H
  H13      1.0000 0.81880  0.13390  0.94320  Biso   1.000  H
  H14      1.0000 0.18120  0.86610  0.05680  Biso   1.000  H
  H15      1.0000 0.85740  0.24400  0.01360  Biso   1.000  H
  H16      1.0000 0.14260  0.75600  0.98640  Biso   1.000  H
  H17      1.0000 0.45870  0.13710  0.87130  Biso   1.000  H
  H18      1.0000 0.54130  0.86290  0.12870  Biso   1.000  H
  H19      1.0000 0.74030  0.89800  0.13600  Biso   1.000  H
  H20      1.0000 0.25970  0.10200  0.86400  Biso   1.000  H
  H21      1.0000 0.67560  0.91850  0.83320  Biso   1.000  H
  H22      1.0000 0.32440  0.08150  0.16680  Biso   1.000  H
  H23      1.0000 0.52670  0.11670  0.18070  Biso   1.000  H
  H24      1.0000 0.47330  0.88330  0.81930  Biso   1.000  H
  Cu3      1.0000 0.41450  0.89920  0.51470  Biso   1.000  Cu
  Cu4      1.0000 0.58550  0.10080  0.48530  Biso   1.000  Cu
  Br3      1.0000 0.44270  0.95550  0.34150  Biso   1.000  Br
  Br4      1.0000 0.55730  0.04450  0.65850  Biso   1.000  Br
  O9       1.0000 0.16520  0.20290  0.41070  Biso   1.000  O
  O10      1.0000 0.83480  0.79710  0.58930  Biso   1.000  O
  O11      1.0000 0.19540  0.15820  0.57580  Biso   1.000  O
  O12      1.0000 0.80460  0.84180  0.42420  Biso   1.000  O
  O13      1.0000 0.39590  0.36770  0.61730  Biso   1.000  O
  O14      1.0000 0.60410  0.63230  0.38270  Biso   1.000  O
  O15      1.0000 0.56840  0.45830  0.73490  Biso   1.000  O
  O16      1.0000 0.43160  0.54170  0.26510  Biso   1.000  O
  N5       1.0000 0.75740  0.11100  0.48300  Biso   1.000  N
  N6       1.0000 0.24260  0.88900  0.51700  Biso   1.000  N
  N7       1.0000 0.55810  0.24510  0.44760  Biso   1.000  N
  N8       1.0000 0.44190  0.75490  0.55240  Biso   1.000  N
  C29      1.0000 0.99890  0.14740  0.48540  Biso   1.000  C
  C30      1.0000 0.00110  0.85260  0.51460  Biso   1.000  C
  C31      1.0000 0.95920  0.12150  0.57420  Biso   1.000  C
  C32      1.0000 0.04080  0.87850  0.42580  Biso   1.000  C
  C33      1.0000 0.83960  0.10640  0.57000  Biso   1.000  C
  C34      1.0000 0.16040  0.89360  0.43000  Biso   1.000  C
  C35      1.0000 0.79670  0.13120  0.39660  Biso   1.000  C
  C36      1.0000 0.20330  0.86880  0.60340  Biso   1.000  C
  C37      1.0000 0.91330  0.14920  0.39340  Biso   1.000  C
  C38      1.0000 0.08670  0.85080  0.60660  Biso   1.000  C
  C39      1.0000 0.12790  0.17200  0.48500  Biso   1.000  C
  C40      1.0000 0.87210  0.82800  0.51500  Biso   1.000  C
  C41      1.0000 0.32190  0.17440  0.58510  Biso   1.000  C
  C42      1.0000 0.67810  0.82560  0.41490  Biso   1.000  C
  C43      1.0000 0.40300  0.26730  0.66070  Biso   1.000  C
  C44      1.0000 0.59700  0.73270  0.33930  Biso   1.000  C
  C45      1.0000 0.48390  0.45820  0.66520  Biso   1.000  C
  C46      1.0000 0.51610  0.54180  0.33480  Biso   1.000  C
  C47      1.0000 0.46750  0.55950  0.62160  Biso   1.000  C
  C48      1.0000 0.53250  0.44050  0.37840  Biso   1.000  C
  C49      1.0000 0.37320  0.56140  0.53620  Biso   1.000  C
  C50      1.0000 0.62680  0.43860  0.46380  Biso   1.000  C
  C51      1.0000 0.63450  0.34060  0.49480  Biso   1.000  C
  C52      1.0000 0.36550  0.65940  0.50520  Biso   1.000  C
  C53      1.0000 0.46560  0.24760  0.36800  Biso   1.000  C
  C54      1.0000 0.53440  0.75240  0.63200  Biso   1.000  C
  C55      1.0000 0.54900  0.65810  0.66860  Biso   1.000  C
  C56      1.0000 0.45100  0.34190  0.33140  Biso   1.000  C
  H25      1.0000 0.01220  0.11430  0.63630  Biso   1.000  H
  H26      1.0000 0.98780  0.88570  0.36370  Biso   1.000  H
  H27      1.0000 0.81480  0.09200  0.63140  Biso   1.000  H
  H28      1.0000 0.18520  0.90800  0.36860  Biso   1.000  H
  H29      1.0000 0.74070  0.13310  0.33430  Biso   1.000  H
  H30      1.0000 0.25930  0.86690  0.66570  Biso   1.000  H
  H31      1.0000 0.93530  0.16250  0.33060  Biso   1.000  H
  H32      1.0000 0.06470  0.83750  0.66940  Biso   1.000  H
  H33      1.0000 0.33760  0.18640  0.51660  Biso   1.000  H
  H34      1.0000 0.66240  0.81360  0.48340  Biso   1.000  H
  H35      1.0000 0.33930  0.10910  0.60740  Biso   1.000  H
  H36      1.0000 0.66070  0.89090  0.39260  Biso   1.000  H
  H37      1.0000 0.37950  0.26170  0.72630  Biso   1.000  H
  H38      1.0000 0.62050  0.73830  0.27370  Biso   1.000  H
  H39      1.0000 0.48560  0.26690  0.67520  Biso   1.000  H
  H40      1.0000 0.51440  0.73310  0.32480  Biso   1.000  H
  H41      1.0000 0.31630  0.49680  0.50080  Biso   1.000  H
  H42      1.0000 0.68370  0.50320  0.49920  Biso   1.000  H
  H43      1.0000 0.69720  0.34080  0.55250  Biso   1.000  H
  H44      1.0000 0.30280  0.65920  0.44750  Biso   1.000  H
  H45      1.0000 0.40820  0.18180  0.33580  Biso   1.000  H
  H46      1.0000 0.59180  0.81820  0.66420  Biso   1.000  H
  H47      1.0000 0.61410  0.66080  0.72520  Biso   1.000  H
  H48      1.0000 0.38590  0.33920  0.27480  Biso   1.000  H
  O17      1.0000 0.16950  0.47300  0.75670  Biso   1.000  O
  O18      1.0000 0.83050  0.52700  0.24330  Biso   1.000  O
  O19      1.0000 0.15700  0.59700  0.71200  Biso   1.000  O
  O20      1.0000 0.84300  0.40300  0.28800  Biso   1.000  O
  O21      1.0000 0.47000  0.40700  0.04600  Biso   1.000  O
  O22      1.0000 0.53000  0.59300  0.95400  Biso   1.000  O
  O23      1.0000 0.34800  0.41800  0.86020  Biso   1.000  O
  O24      1.0000 0.65200  0.58200  0.13980  Biso   1.000  O
  O25      1.0000 0.17900  0.54800  0.75300  Biso   1.000  O
  O26      1.0000 0.82100  0.45200  0.24700  Biso   1.000  O
  O27      1.0000 0.10800  0.39890  0.66930  Biso   1.000  O
  O28      1.0000 0.89200  0.60110  0.33070  Biso   1.000  O
  O29      1.0000 0.52300  0.41400  0.98600  Biso   1.000  O
  O30      1.0000 0.47700  0.58600  0.01400  Biso   1.000  O
  O31      1.0000 0.44400  0.44300  0.94900  Biso   1.000  O
  O32      1.0000 0.55600  0.55700  0.05100  Biso   1.000  O
