data_image0
_cell_length_a       9.2363
_cell_length_b       15.39
_cell_length_c       7.057
_cell_angle_alpha    90
_cell_angle_beta     103.725
_cell_angle_gamma    90

_symmetry_space_group_name_H-M    "P 1"
_symmetry_int_tables_number       1

loop_
  _symmetry_equiv_pos_as_xyz
  'x, y, z'

loop_
  _atom_site_label
  _atom_site_occupancy
  _atom_site_fract_x
  _atom_site_fract_y
  _atom_site_fract_z
  _atom_site_thermal_displace_type
  _atom_site_B_iso_or_equiv
  _atom_site_type_symbol
  N1       1.0000 0.16860  0.66750  0.99470  Biso   1.000  N
  N2       1.0000 0.83140  0.66750  0.50530  Biso   1.000  N
  N3       1.0000 0.66860  0.16750  0.99470  Biso   1.000  N
  N4       1.0000 0.33140  0.16750  0.50530  Biso   1.000  N
  N5       1.0000 0.83140  0.33250  0.00530  Biso   1.000  N
  N6       1.0000 0.16860  0.33250  0.49470  Biso   1.000  N
  N7       1.0000 0.33140  0.83250  0.00530  Biso   1.000  N
  N8       1.0000 0.66860  0.83250  0.49470  Biso   1.000  N
  H1       1.0000 0.13860  0.66150  0.86290  Biso   1.000  H
  H2       1.0000 0.86140  0.66150  0.63710  Biso   1.000  H
  H3       1.0000 0.63860  0.16150  0.86290  Biso   1.000  H
  H4       1.0000 0.36140  0.16150  0.63710  Biso   1.000  H
  H5       1.0000 0.86140  0.33850  0.13710  Biso   1.000  H
  H6       1.0000 0.13860  0.33850  0.36290  Biso   1.000  H
  H7       1.0000 0.36140  0.83850  0.13710  Biso   1.000  H
  H8       1.0000 0.63860  0.83850  0.36290  Biso   1.000  H
  C1       1.0000 0.33300  0.67080  0.04400  Biso   1.000  C
  C2       1.0000 0.66700  0.67080  0.45600  Biso   1.000  C
  C3       1.0000 0.83300  0.17080  0.04400  Biso   1.000  C
  C4       1.0000 0.16700  0.17080  0.45600  Biso   1.000  C
  C5       1.0000 0.66700  0.32920  0.95600  Biso   1.000  C
  C6       1.0000 0.33300  0.32920  0.54400  Biso   1.000  C
  C7       1.0000 0.16700  0.82920  0.95600  Biso   1.000  C
  C8       1.0000 0.83300  0.82920  0.54400  Biso   1.000  C
  H9       1.0000 0.37110  0.61800  0.99820  Biso   1.000  H
  H10      1.0000 0.62890  0.61800  0.50180  Biso   1.000  H
  H11      1.0000 0.87110  0.11800  0.99820  Biso   1.000  H
  H12      1.0000 0.12890  0.11800  0.50180  Biso   1.000  H
  H13      1.0000 0.62890  0.38200  0.00180  Biso   1.000  H
  H14      1.0000 0.37110  0.38200  0.49820  Biso   1.000  H
  H15      1.0000 0.12890  0.88200  0.00180  Biso   1.000  H
  H16      1.0000 0.87110  0.88200  0.49820  Biso   1.000  H
  H17      1.0000 0.36900  0.67300  0.18470  Biso   1.000  H
  H18      1.0000 0.63100  0.67300  0.31530  Biso   1.000  H
  H19      1.0000 0.86900  0.17300  0.18470  Biso   1.000  H
  H20      1.0000 0.13100  0.17300  0.31530  Biso   1.000  H
  H21      1.0000 0.63100  0.32700  0.81530  Biso   1.000  H
  H22      1.0000 0.36900  0.32700  0.68470  Biso   1.000  H
  H23      1.0000 0.13100  0.82700  0.81530  Biso   1.000  H
  H24      1.0000 0.86900  0.82700  0.68470  Biso   1.000  H
  C9       1.0000 0.10750  0.75140  0.04510  Biso   1.000  C
  C10      1.0000 0.89250  0.75140  0.45490  Biso   1.000  C
  C11      1.0000 0.60750  0.25140  0.04510  Biso   1.000  C
  C12      1.0000 0.39250  0.25140  0.45490  Biso   1.000  C
  C13      1.0000 0.89250  0.24860  0.95490  Biso   1.000  C
  C14      1.0000 0.10750  0.24860  0.54510  Biso   1.000  C
  C15      1.0000 0.39250  0.74860  0.95490  Biso   1.000  C
  C16      1.0000 0.60750  0.74860  0.54510  Biso   1.000  C
  H25      1.0000 0.13180  0.75780  0.18580  Biso   1.000  H
  H26      1.0000 0.86820  0.75780  0.31420  Biso   1.000  H
  H27      1.0000 0.63180  0.25780  0.18580  Biso   1.000  H
  H28      1.0000 0.36820  0.25780  0.31420  Biso   1.000  H
  H29      1.0000 0.86820  0.24220  0.81420  Biso   1.000  H
  H30      1.0000 0.13180  0.24220  0.68580  Biso   1.000  H
  H31      1.0000 0.36820  0.74220  0.81420  Biso   1.000  H
  H32      1.0000 0.63180  0.74220  0.68580  Biso   1.000  H
  H33      1.0000 0.99970  0.75020  0.00040  Biso   1.000  H
  H34      1.0000 0.00030  0.75020  0.49960  Biso   1.000  H
  H35      1.0000 0.49970  0.25020  0.00040  Biso   1.000  H
  H36      1.0000 0.50030  0.25020  0.49960  Biso   1.000  H
  H37      1.0000 0.00030  0.24980  0.99960  Biso   1.000  H
  H38      1.0000 0.99970  0.24980  0.50040  Biso   1.000  H
  H39      1.0000 0.50030  0.74980  0.99960  Biso   1.000  H
  H40      1.0000 0.49970  0.74980  0.50040  Biso   1.000  H
  I1       1.0000 0.20834  0.42158  0.99982  Biso   1.000  I
  I2       1.0000 0.79166  0.42158  0.50018  Biso   1.000  I
  I3       1.0000 0.70834  0.92158  0.99982  Biso   1.000  I
  I4       1.0000 0.29166  0.92158  0.50018  Biso   1.000  I
  I5       1.0000 0.79166  0.57842  0.00018  Biso   1.000  I
  I6       1.0000 0.20834  0.57842  0.49982  Biso   1.000  I
  I7       1.0000 0.29166  0.07842  0.00018  Biso   1.000  I
  I8       1.0000 0.70834  0.07842  0.49982  Biso   1.000  I
  Cu1      1.0000 0.08424  0.56118  0.11745  Biso   1.000  Cu
  Cu2      1.0000 0.91576  0.56118  0.38255  Biso   1.000  Cu
  Cu3      1.0000 0.58424  0.06118  0.11745  Biso   1.000  Cu
  Cu4      1.0000 0.41576  0.06118  0.38255  Biso   1.000  Cu
  Cu5      1.0000 0.91576  0.43882  0.88255  Biso   1.000  Cu
  Cu6      1.0000 0.08424  0.43882  0.61745  Biso   1.000  Cu
  Cu7      1.0000 0.41576  0.93882  0.88255  Biso   1.000  Cu
  Cu8      1.0000 0.58424  0.93882  0.61745  Biso   1.000  Cu
