data_image0
_cell_length_a       9.255
_cell_length_b       15.294
_cell_length_c       7.076
_cell_angle_alpha    90
_cell_angle_beta     103.45
_cell_angle_gamma    90

_symmetry_space_group_name_H-M    "P 1"
_symmetry_int_tables_number       1

loop_
  _symmetry_equiv_pos_as_xyz
  'x, y, z'

loop_
  _atom_site_label
  _atom_site_occupancy
  _atom_site_fract_x
  _atom_site_fract_y
  _atom_site_fract_z
  _atom_site_thermal_displace_type
  _atom_site_B_iso_or_equiv
  _atom_site_type_symbol
  N1       1.0000 0.33150  0.66790  0.00490  Biso   1.000  N
  N2       1.0000 0.66850  0.66790  0.49510  Biso   1.000  N
  N3       1.0000 0.83150  0.16790  0.00490  Biso   1.000  N
  N4       1.0000 0.16850  0.16790  0.49510  Biso   1.000  N
  N5       1.0000 0.66850  0.33210  0.99510  Biso   1.000  N
  N6       1.0000 0.33150  0.33210  0.50490  Biso   1.000  N
  N7       1.0000 0.16850  0.83210  0.99510  Biso   1.000  N
  N8       1.0000 0.83150  0.83210  0.50490  Biso   1.000  N
  H1       1.0000 0.36110  0.66160  0.13610  Biso   1.000  H
  H2       1.0000 0.63890  0.66160  0.36390  Biso   1.000  H
  H3       1.0000 0.86110  0.16160  0.13610  Biso   1.000  H
  H4       1.0000 0.13890  0.16160  0.36390  Biso   1.000  H
  H5       1.0000 0.63890  0.33840  0.86390  Biso   1.000  H
  H6       1.0000 0.36110  0.33840  0.63610  Biso   1.000  H
  H7       1.0000 0.13890  0.83840  0.86390  Biso   1.000  H
  H8       1.0000 0.86110  0.83840  0.63610  Biso   1.000  H
  C1       1.0000 0.39130  0.75100  0.95640  Biso   1.000  C
  C2       1.0000 0.60870  0.75100  0.54360  Biso   1.000  C
  C3       1.0000 0.89130  0.25100  0.95640  Biso   1.000  C
  C4       1.0000 0.10870  0.25100  0.54360  Biso   1.000  C
  C5       1.0000 0.60870  0.24900  0.04360  Biso   1.000  C
  C6       1.0000 0.39130  0.24900  0.45640  Biso   1.000  C
  C7       1.0000 0.10870  0.74900  0.04360  Biso   1.000  C
  C8       1.0000 0.89130  0.74900  0.45640  Biso   1.000  C
  H9       1.0000 0.36780  0.75740  0.81620  Biso   1.000  H
  H10      1.0000 0.63220  0.75740  0.68380  Biso   1.000  H
  H11      1.0000 0.86780  0.25740  0.81620  Biso   1.000  H
  H12      1.0000 0.13220  0.25740  0.68380  Biso   1.000  H
  H13      1.0000 0.63220  0.24260  0.18380  Biso   1.000  H
  H14      1.0000 0.36780  0.24260  0.31620  Biso   1.000  H
  H15      1.0000 0.13220  0.74260  0.18380  Biso   1.000  H
  H16      1.0000 0.86780  0.74260  0.31620  Biso   1.000  H
  H17      1.0000 0.49870  0.74980  0.00100  Biso   1.000  H
  H18      1.0000 0.50130  0.74980  0.49900  Biso   1.000  H
  H19      1.0000 0.99870  0.24980  0.00100  Biso   1.000  H
  H20      1.0000 0.00130  0.24980  0.49900  Biso   1.000  H
  H21      1.0000 0.50130  0.25020  0.99900  Biso   1.000  H
  H22      1.0000 0.49870  0.25020  0.50100  Biso   1.000  H
  H23      1.0000 0.00130  0.75020  0.99900  Biso   1.000  H
  H24      1.0000 0.99870  0.75020  0.50100  Biso   1.000  H
  C9       1.0000 0.16790  0.67060  0.95580  Biso   1.000  C
  C10      1.0000 0.83210  0.67060  0.54420  Biso   1.000  C
  C11      1.0000 0.66790  0.17060  0.95580  Biso   1.000  C
  C12      1.0000 0.33210  0.17060  0.54420  Biso   1.000  C
  C13      1.0000 0.83210  0.32940  0.04420  Biso   1.000  C
  C14      1.0000 0.16790  0.32940  0.45580  Biso   1.000  C
  C15      1.0000 0.33210  0.82940  0.04420  Biso   1.000  C
  C16      1.0000 0.66790  0.82940  0.45580  Biso   1.000  C
  H25      1.0000 0.13010  0.61760  0.00240  Biso   1.000  H
  H26      1.0000 0.86990  0.61760  0.49760  Biso   1.000  H
  H27      1.0000 0.63010  0.11760  0.00240  Biso   1.000  H
  H28      1.0000 0.36990  0.11760  0.49760  Biso   1.000  H
  H29      1.0000 0.86990  0.38240  0.99760  Biso   1.000  H
  H30      1.0000 0.13010  0.38240  0.50240  Biso   1.000  H
  H31      1.0000 0.36990  0.88240  0.99760  Biso   1.000  H
  H32      1.0000 0.63010  0.88240  0.50240  Biso   1.000  H
  H33      1.0000 0.13230  0.67240  0.81560  Biso   1.000  H
  H34      1.0000 0.86770  0.67240  0.68440  Biso   1.000  H
  H35      1.0000 0.63230  0.17240  0.81560  Biso   1.000  H
  H36      1.0000 0.36770  0.17240  0.68440  Biso   1.000  H
  H37      1.0000 0.86770  0.32760  0.18440  Biso   1.000  H
  H38      1.0000 0.13230  0.32760  0.31560  Biso   1.000  H
  H39      1.0000 0.36770  0.82760  0.18440  Biso   1.000  H
  H40      1.0000 0.63230  0.82760  0.31560  Biso   1.000  H
  I1       1.0000 0.70600  0.57831  0.99874  Biso   1.000  I
  I2       1.0000 0.29400  0.57831  0.50126  Biso   1.000  I
  I3       1.0000 0.20600  0.07831  0.99874  Biso   1.000  I
  I4       1.0000 0.79400  0.07831  0.50126  Biso   1.000  I
  I5       1.0000 0.29400  0.42169  0.00126  Biso   1.000  I
  I6       1.0000 0.70600  0.42169  0.49874  Biso   1.000  I
  I7       1.0000 0.79400  0.92169  0.00126  Biso   1.000  I
  I8       1.0000 0.20600  0.92169  0.49874  Biso   1.000  I
  Cu1      1.0000 0.41481  0.56172  0.88232  Biso   1.000  Cu
  Cu2      1.0000 0.58519  0.56172  0.61768  Biso   1.000  Cu
  Cu3      1.0000 0.91481  0.06172  0.88232  Biso   1.000  Cu
  Cu4      1.0000 0.08519  0.06172  0.61768  Biso   1.000  Cu
  Cu5      1.0000 0.58519  0.43828  0.11768  Biso   1.000  Cu
  Cu6      1.0000 0.41481  0.43828  0.38232  Biso   1.000  Cu
  Cu7      1.0000 0.08519  0.93828  0.11768  Biso   1.000  Cu
  Cu8      1.0000 0.91481  0.93828  0.38232  Biso   1.000  Cu
