data_image0
_cell_length_a       9.209
_cell_length_b       15.433
_cell_length_c       7.043
_cell_angle_alpha    90
_cell_angle_beta     103.72
_cell_angle_gamma    90

_symmetry_space_group_name_H-M    "P 1"
_symmetry_int_tables_number       1

loop_
  _symmetry_equiv_pos_as_xyz
  'x, y, z'

loop_
  _atom_site_label
  _atom_site_occupancy
  _atom_site_fract_x
  _atom_site_fract_y
  _atom_site_fract_z
  _atom_site_thermal_displace_type
  _atom_site_B_iso_or_equiv
  _atom_site_type_symbol
  C1       1.0000 0.83420  0.32870  0.04320  Biso   1.000  C
  C2       1.0000 0.16580  0.32870  0.45680  Biso   1.000  C
  C3       1.0000 0.33420  0.82870  0.04320  Biso   1.000  C
  C4       1.0000 0.66580  0.82870  0.45680  Biso   1.000  C
  C5       1.0000 0.16580  0.67130  0.95680  Biso   1.000  C
  C6       1.0000 0.83420  0.67130  0.54320  Biso   1.000  C
  C7       1.0000 0.66580  0.17130  0.95680  Biso   1.000  C
  C8       1.0000 0.33420  0.17130  0.54320  Biso   1.000  C
  H1       1.0000 0.87280  0.38110  0.99700  Biso   1.000  H
  H2       1.0000 0.12720  0.38110  0.50300  Biso   1.000  H
  H3       1.0000 0.37280  0.88110  0.99700  Biso   1.000  H
  H4       1.0000 0.62720  0.88110  0.50300  Biso   1.000  H
  H5       1.0000 0.12720  0.61890  0.00300  Biso   1.000  H
  H6       1.0000 0.87280  0.61890  0.49700  Biso   1.000  H
  H7       1.0000 0.62720  0.11890  0.00300  Biso   1.000  H
  H8       1.0000 0.37280  0.11890  0.49700  Biso   1.000  H
  H9       1.0000 0.87070  0.32640  0.18410  Biso   1.000  H
  H10      1.0000 0.12930  0.32640  0.31590  Biso   1.000  H
  H11      1.0000 0.37070  0.82640  0.18410  Biso   1.000  H
  H12      1.0000 0.62930  0.82640  0.31590  Biso   1.000  H
  H13      1.0000 0.12930  0.67360  0.81590  Biso   1.000  H
  H14      1.0000 0.87070  0.67360  0.68410  Biso   1.000  H
  H15      1.0000 0.62930  0.17360  0.81590  Biso   1.000  H
  H16      1.0000 0.37070  0.17360  0.68410  Biso   1.000  H
  C9       1.0000 0.60910  0.24770  0.04490  Biso   1.000  C
  C10      1.0000 0.39090  0.24770  0.45510  Biso   1.000  C
  C11      1.0000 0.10910  0.74770  0.04490  Biso   1.000  C
  C12      1.0000 0.89090  0.74770  0.45510  Biso   1.000  C
  C13      1.0000 0.39090  0.75230  0.95510  Biso   1.000  C
  C14      1.0000 0.60910  0.75230  0.54490  Biso   1.000  C
  C15      1.0000 0.89090  0.25230  0.95510  Biso   1.000  C
  C16      1.0000 0.10910  0.25230  0.54490  Biso   1.000  C
  H17      1.0000 0.63590  0.24150  0.18590  Biso   1.000  H
  H18      1.0000 0.36410  0.24150  0.31410  Biso   1.000  H
  H19      1.0000 0.13590  0.74150  0.18590  Biso   1.000  H
  H20      1.0000 0.86410  0.74150  0.31410  Biso   1.000  H
  H21      1.0000 0.36410  0.75850  0.81410  Biso   1.000  H
  H22      1.0000 0.63590  0.75850  0.68590  Biso   1.000  H
  H23      1.0000 0.86410  0.25850  0.81410  Biso   1.000  H
  H24      1.0000 0.13590  0.25850  0.68590  Biso   1.000  H
  H25      1.0000 0.50080  0.24820  0.00360  Biso   1.000  H
  H26      1.0000 0.49920  0.24820  0.49640  Biso   1.000  H
  H27      1.0000 0.00080  0.74820  0.00360  Biso   1.000  H
  H28      1.0000 0.99920  0.74820  0.49640  Biso   1.000  H
  H29      1.0000 0.49920  0.75180  0.99640  Biso   1.000  H
  H30      1.0000 0.50080  0.75180  0.50360  Biso   1.000  H
  H31      1.0000 0.99920  0.25180  0.99640  Biso   1.000  H
  H32      1.0000 0.00080  0.25180  0.50360  Biso   1.000  H
  I1       1.0000 0.29097  0.42148  0.99985  Biso   1.000  I
  I2       1.0000 0.70903  0.42148  0.50015  Biso   1.000  I
  I3       1.0000 0.79097  0.92148  0.99985  Biso   1.000  I
  I4       1.0000 0.20903  0.92148  0.50015  Biso   1.000  I
  I5       1.0000 0.70903  0.57852  0.00015  Biso   1.000  I
  I6       1.0000 0.29097  0.57852  0.49985  Biso   1.000  I
  I7       1.0000 0.20903  0.07852  0.00015  Biso   1.000  I
  I8       1.0000 0.79097  0.07852  0.49985  Biso   1.000  I
  Cu1      1.0000 0.58411  0.43915  0.11730  Biso   1.000  Cu
  Cu2      1.0000 0.41589  0.43915  0.38270  Biso   1.000  Cu
  Cu3      1.0000 0.08411  0.93915  0.11730  Biso   1.000  Cu
  Cu4      1.0000 0.91589  0.93915  0.38270  Biso   1.000  Cu
  Cu5      1.0000 0.41589  0.56085  0.88270  Biso   1.000  Cu
  Cu6      1.0000 0.58411  0.56085  0.61730  Biso   1.000  Cu
  Cu7      1.0000 0.91589  0.06085  0.88270  Biso   1.000  Cu
  Cu8      1.0000 0.08411  0.06085  0.61730  Biso   1.000  Cu
  N1       1.0000 0.66630  0.33230  0.99320  Biso   1.000  N
  N2       1.0000 0.33370  0.33230  0.50680  Biso   1.000  N
  N3       1.0000 0.16630  0.83230  0.99320  Biso   1.000  N
  N4       1.0000 0.83370  0.83230  0.50680  Biso   1.000  N
  N5       1.0000 0.33370  0.66770  0.00680  Biso   1.000  N
  N6       1.0000 0.66630  0.66770  0.49320  Biso   1.000  N
  N7       1.0000 0.83370  0.16770  0.00680  Biso   1.000  N
  N8       1.0000 0.16630  0.16770  0.49320  Biso   1.000  N
  H33      1.0000 0.63570  0.33810  0.86120  Biso   1.000  H
  H34      1.0000 0.36430  0.33810  0.63880  Biso   1.000  H
  H35      1.0000 0.13570  0.83810  0.86120  Biso   1.000  H
  H36      1.0000 0.86430  0.83810  0.63880  Biso   1.000  H
  H37      1.0000 0.36430  0.66190  0.13880  Biso   1.000  H
  H38      1.0000 0.63570  0.66190  0.36120  Biso   1.000  H
  H39      1.0000 0.86430  0.16190  0.13880  Biso   1.000  H
  H40      1.0000 0.13570  0.16190  0.36120  Biso   1.000  H
