data_image0
_cell_length_a       12.1414
_cell_length_b       12.9598
_cell_length_c       13.3376
_cell_angle_alpha    88.858
_cell_angle_beta     75.12
_cell_angle_gamma    70.777

_symmetry_space_group_name_H-M    "P 1"
_symmetry_int_tables_number       1

loop_
  _symmetry_equiv_pos_as_xyz
  'x, y, z'

loop_
  _atom_site_label
  _atom_site_occupancy
  _atom_site_fract_x
  _atom_site_fract_y
  _atom_site_fract_z
  _atom_site_thermal_displace_type
  _atom_site_B_iso_or_equiv
  _atom_site_type_symbol
  Cu1      1.0000 0.08560  0.89780  0.01400  Biso   1.000  Cu
  Cu2      1.0000 0.91440  0.10220  0.98600  Biso   1.000  Cu
  Cu3      1.0000 0.60070  0.91520  0.47920  Biso   1.000  Cu
  Cu4      1.0000 0.39930  0.08480  0.52080  Biso   1.000  Cu
  Br1      1.0000 0.05590  0.95900  0.84330  Biso   1.000  Br
  Br2      1.0000 0.94410  0.04100  0.15670  Biso   1.000  Br
  Br3      1.0000 0.53360  0.04110  0.34310  Biso   1.000  Br
  Br4      1.0000 0.46640  0.95890  0.65690  Biso   1.000  Br
  O1       1.0000 0.66440  0.79320  0.08660  Biso   1.000  O
  O2       1.0000 0.33560  0.20680  0.91340  Biso   1.000  O
  O3       1.0000 0.69380  0.84550  0.92470  Biso   1.000  O
  O4       1.0000 0.30620  0.15450  0.07530  Biso   1.000  O
  O5       1.0000 0.06860  0.55020  0.76940  Biso   1.000  O
  O6       1.0000 0.93140  0.44980  0.23060  Biso   1.000  O
  O7       1.0000 0.89520  0.63700  0.88520  Biso   1.000  O
  O8       1.0000 0.10480  0.36300  0.11480  Biso   1.000  O
  O9       1.0000 0.66650  0.41990  0.22180  Biso   1.000  O
  O10      1.0000 0.33350  0.58010  0.77820  Biso   1.000  O
  O11      1.0000 0.67220  0.37120  0.38330  Biso   1.000  O
  O12      1.0000 0.32780  0.62880  0.61670  Biso   1.000  O
  O13      1.0000 0.78050  0.16290  0.62000  Biso   1.000  O
  O14      1.0000 0.21950  0.83710  0.38000  Biso   1.000  O
  O15      1.0000 0.82960  0.17590  0.44900  Biso   1.000  O
  O16      1.0000 0.17040  0.82410  0.55100  Biso   1.000  O
  N1       1.0000 0.25930  0.88370  0.01550  Biso   1.000  N
  N2       1.0000 0.74070  0.11630  0.98450  Biso   1.000  N
  N3       1.0000 0.94270  0.24750  0.94930  Biso   1.000  N
  N4       1.0000 0.05730  0.75250  0.05070  Biso   1.000  N
  N5       1.0000 0.61210  0.76520  0.42520  Biso   1.000  N
  N6       1.0000 0.38790  0.23480  0.57480  Biso   1.000  N
  N7       1.0000 0.22900  0.09400  0.51820  Biso   1.000  N
  N8       1.0000 0.77100  0.90600  0.48180  Biso   1.000  N
  C1       1.0000 0.33960  0.89240  0.92880  Biso   1.000  C
  C2       1.0000 0.66040  0.10760  0.07120  Biso   1.000  C
  C3       1.0000 0.45840  0.87580  0.92460  Biso   1.000  C
  C4       1.0000 0.54160  0.12420  0.07540  Biso   1.000  C
  C5       1.0000 0.49700  0.84850  0.01340  Biso   1.000  C
  C6       1.0000 0.50300  0.15150  0.98660  Biso   1.000  C
  C7       1.0000 0.41540  0.84240  0.10190  Biso   1.000  C
  C8       1.0000 0.58460  0.15760  0.89810  Biso   1.000  C
  C9       1.0000 0.29800  0.86080  0.10060  Biso   1.000  C
  C10      1.0000 0.70200  0.13920  0.89940  Biso   1.000  C
  C11      1.0000 0.62720  0.82480  0.01310  Biso   1.000  C
  C12      1.0000 0.37280  0.17520  0.98690  Biso   1.000  C
  C13      1.0000 0.81830  0.83170  0.91920  Biso   1.000  C
  C14      1.0000 0.18170  0.16830  0.08080  Biso   1.000  C
  C15      1.0000 0.03330  0.24950  0.86680  Biso   1.000  C
  C16      1.0000 0.96670  0.75050  0.13320  Biso   1.000  C
  C17      1.0000 0.04780  0.34780  0.83190  Biso   1.000  C
  C18      1.0000 0.95220  0.65220  0.16810  Biso   1.000  C
  C19      1.0000 0.96700  0.44530  0.87990  Biso   1.000  C
  C20      1.0000 0.03300  0.55470  0.12010  Biso   1.000  C
  C21      1.0000 0.87740  0.44240  0.96550  Biso   1.000  C
  C22      1.0000 0.12260  0.55760  0.03450  Biso   1.000  C
  C23      1.0000 0.86850  0.34190  0.99700  Biso   1.000  C
  C24      1.0000 0.13150  0.65810  0.00300  Biso   1.000  C
  C25      1.0000 0.98380  0.54820  0.83760  Biso   1.000  C
  C26      1.0000 0.01620  0.45180  0.16240  Biso   1.000  C
  C27      1.0000 0.90160  0.73940  0.84270  Biso   1.000  C
  C28      1.0000 0.09840  0.26060  0.15730  Biso   1.000  C
  C29      1.0000 0.62400  0.68120  0.48710  Biso   1.000  C
  C30      1.0000 0.37600  0.31880  0.51290  Biso   1.000  C
  C31      1.0000 0.63760  0.57630  0.45440  Biso   1.000  C
  C32      1.0000 0.36240  0.42370  0.54560  Biso   1.000  C
  C33      1.0000 0.64360  0.55220  0.35200  Biso   1.000  C
  C34      1.0000 0.35640  0.44780  0.64800  Biso   1.000  C
  C35      1.0000 0.63200  0.63930  0.28730  Biso   1.000  C
  C36      1.0000 0.36800  0.36070  0.71270  Biso   1.000  C
  C37      1.0000 0.61590  0.74180  0.32620  Biso   1.000  C
  C38      1.0000 0.38410  0.25820  0.67380  Biso   1.000  C
  C39      1.0000 0.66340  0.44370  0.31070  Biso   1.000  C
  C40      1.0000 0.33660  0.55630  0.68930  Biso   1.000  C
  C41      1.0000 0.68490  0.25980  0.35480  Biso   1.000  C
  C42      1.0000 0.31510  0.74020  0.64520  Biso   1.000  C
  C43      1.0000 0.18980  0.10590  0.43280  Biso   1.000  C
  C44      1.0000 0.81020  0.89410  0.56720  Biso   1.000  C
  C45      1.0000 0.07060  0.12600  0.43440  Biso   1.000  C
  C46      1.0000 0.92940  0.87400  0.56560  Biso   1.000  C
  C47      1.0000 0.98560  0.13650  0.52910  Biso   1.000  C
  C48      1.0000 0.01440  0.86350  0.47090  Biso   1.000  C
  C49      1.0000 0.02690  0.11940  0.61600  Biso   1.000  C
  C50      1.0000 0.97310  0.88060  0.38400  Biso   1.000  C
  C51      1.0000 0.14720  0.09900  0.60780  Biso   1.000  C
  C52      1.0000 0.85280  0.90100  0.39220  Biso   1.000  C
  C53      1.0000 0.85320  0.16050  0.54180  Biso   1.000  C
  C54      1.0000 0.14680  0.83950  0.45820  Biso   1.000  C
  C55      1.0000 0.70340  0.19570  0.44600  Biso   1.000  C
  C56      1.0000 0.29660  0.80430  0.55400  Biso   1.000  C
  O17      1.0000 0.36260  0.46930  0.29130  Biso   1.000  O
  O18      1.0000 0.63740  0.53070  0.70870  Biso   1.000  O
  C57      1.0000 0.36980  0.39330  0.22030  Biso   1.000  C
  C58      1.0000 0.63020  0.60670  0.77970  Biso   1.000  C
  C59      1.0000 0.41100  0.43090  0.12900  Biso   1.000  C
  C60      1.0000 0.58900  0.56910  0.87100  Biso   1.000  C
  C61      1.0000 0.39500  0.54000  0.14660  Biso   1.000  C
  C62      1.0000 0.60500  0.46000  0.85340  Biso   1.000  C
  C63      1.0000 0.33270  0.56720  0.24790  Biso   1.000  C
  C64      1.0000 0.66730  0.43280  0.75210  Biso   1.000  C
  O19      1.0000 0.95000  0.57800  0.52400  Biso   1.000  O
  O20      1.0000 0.05000  0.42200  0.47600  Biso   1.000  O
  H1       1.0000 0.31380  0.91040  0.86890  Biso   1.000  H
  H2       1.0000 0.68620  0.08960  0.13110  Biso   1.000  H
  H3       1.0000 0.51180  0.88290  0.86310  Biso   1.000  H
  H4       1.0000 0.48820  0.11710  0.13690  Biso   1.000  H
  H5       1.0000 0.43870  0.82580  0.16310  Biso   1.000  H
  H6       1.0000 0.56130  0.17420  0.83690  Biso   1.000  H
  H7       1.0000 0.24270  0.85720  0.16230  Biso   1.000  H
  H8       1.0000 0.75730  0.14280  0.83770  Biso   1.000  H
  H9       1.0000 0.83240  0.81710  0.98730  Biso   1.000  H
  H10      1.0000 0.16760  0.18290  0.01270  Biso   1.000  H
  H11      1.0000 0.83430  0.89870  0.89880  Biso   1.000  H
  H12      1.0000 0.16570  0.10130  0.10120  Biso   1.000  H
  H13      1.0000 0.08770  0.18360  0.83220  Biso   1.000  H
  H14      1.0000 0.91230  0.81640  0.16780  Biso   1.000  H
  H15      1.0000 0.11240  0.34680  0.77600  Biso   1.000  H
  H16      1.0000 0.88760  0.65320  0.22400  Biso   1.000  H
  H17      1.0000 0.82310  0.50710  0.00230  Biso   1.000  H
  H18      1.0000 0.17690  0.49290  0.99770  Biso   1.000  H
  H19      1.0000 0.80670  0.34150  0.05490  Biso   1.000  H
  H20      1.0000 0.19330  0.65850  0.94510  Biso   1.000  H
  H21      1.0000 0.98370  0.74020  0.82880  Biso   1.000  H
  H22      1.0000 0.01630  0.25980  0.17120  Biso   1.000  H
  H23      1.0000 0.87840  0.74710  0.77790  Biso   1.000  H
  H24      1.0000 0.12160  0.25290  0.22210  Biso   1.000  H
  H25      1.0000 0.62290  0.69450  0.55570  Biso   1.000  H
  H26      1.0000 0.37710  0.30550  0.44430  Biso   1.000  H
  H27      1.0000 0.64280  0.52170  0.50110  Biso   1.000  H
  H28      1.0000 0.35720  0.47830  0.49890  Biso   1.000  H
  H29      1.0000 0.63510  0.62760  0.21790  Biso   1.000  H
  H30      1.0000 0.36490  0.37240  0.78210  Biso   1.000  H
  H31      1.0000 0.60700  0.79840  0.28170  Biso   1.000  H
  H32      1.0000 0.39300  0.20160  0.71830  Biso   1.000  H
  H33      1.0000 0.75360  0.22980  0.29500  Biso   1.000  H
  H34      1.0000 0.24640  0.77020  0.70500  Biso   1.000  H
  H35      1.0000 0.61270  0.25770  0.33760  Biso   1.000  H
  H36      1.0000 0.38730  0.74230  0.66240  Biso   1.000  H
  H37      1.0000 0.24560  0.10040  0.36880  Biso   1.000  H
  H38      1.0000 0.75440  0.89960  0.63120  Biso   1.000  H
  H39      1.0000 0.04730  0.13240  0.37270  Biso   1.000  H
  H40      1.0000 0.95270  0.86760  0.62730  Biso   1.000  H
  H41      1.0000 0.97360  0.12150  0.68070  Biso   1.000  H
  H42      1.0000 0.02640  0.87850  0.31930  Biso   1.000  H
  H43      1.0000 0.17310  0.08800  0.66820  Biso   1.000  H
  H44      1.0000 0.82690  0.91200  0.33180  Biso   1.000  H
  H45      1.0000 0.69000  0.12670  0.43920  Biso   1.000  H
  H46      1.0000 0.31000  0.87330  0.56080  Biso   1.000  H
  H47      1.0000 0.64740  0.23630  0.50940  Biso   1.000  H
  H48      1.0000 0.35260  0.76370  0.49060  Biso   1.000  H
  H49      1.0000 0.97950  0.57650  0.43410  Biso   1.000  H
  H50      1.0000 0.02050  0.42350  0.56590  Biso   1.000  H
  H51      1.0000 0.01490  0.56550  0.54510  Biso   1.000  H
  H52      1.0000 0.98510  0.43450  0.45490  Biso   1.000  H
