data_image0
_cell_length_a       14.224
_cell_length_b       10.2424
_cell_length_c       29.7103
_cell_angle_alpha    90
_cell_angle_beta     96.27
_cell_angle_gamma    90

_symmetry_space_group_name_H-M    "P 1"
_symmetry_int_tables_number       1

loop_
  _symmetry_equiv_pos_as_xyz
  'x, y, z'

loop_
  _atom_site_label
  _atom_site_occupancy
  _atom_site_fract_x
  _atom_site_fract_y
  _atom_site_fract_z
  _atom_site_thermal_displace_type
  _atom_site_B_iso_or_equiv
  _atom_site_type_symbol
  Cu1      1.0000 0.38511  0.71770  0.81444  Biso   1.000  Cu
  Cu2      1.0000 0.38511  0.78230  0.31444  Biso   1.000  Cu
  Cu3      1.0000 0.61489  0.28230  0.18556  Biso   1.000  Cu
  Cu4      1.0000 0.61489  0.21770  0.68556  Biso   1.000  Cu
  O1       1.0000 0.16866  0.93501  0.72160  Biso   1.000  O
  O2       1.0000 0.16866  0.56499  0.22160  Biso   1.000  O
  O3       1.0000 0.83134  0.06499  0.27840  Biso   1.000  O
  O4       1.0000 0.83134  0.43501  0.77840  Biso   1.000  O
  O5       1.0000 0.09325  0.04853  0.66733  Biso   1.000  O
  O6       1.0000 0.09325  0.45147  0.16733  Biso   1.000  O
  O7       1.0000 0.90675  0.95147  0.33267  Biso   1.000  O
  O8       1.0000 0.90675  0.54853  0.83267  Biso   1.000  O
  O9       1.0000 0.07530  0.89680  0.51229  Biso   1.000  O
  O10      1.0000 0.07530  0.60320  0.01229  Biso   1.000  O
  O11      1.0000 0.92470  0.10320  0.48771  Biso   1.000  O
  O12      1.0000 0.92470  0.39680  0.98771  Biso   1.000  O
  O13      1.0000 0.10066  0.68820  0.50514  Biso   1.000  O
  O14      1.0000 0.10066  0.81180  0.00514  Biso   1.000  O
  O15      1.0000 0.89934  0.31180  0.49486  Biso   1.000  O
  O16      1.0000 0.89934  0.18820  0.99486  Biso   1.000  O
  O17      1.0000 0.26702  0.80067  0.48674  Biso   1.000  O
  O18      1.0000 0.26702  0.69933  0.98674  Biso   1.000  O
  O19      1.0000 0.73298  0.19933  0.51326  Biso   1.000  O
  O20      1.0000 0.73298  0.30067  0.01326  Biso   1.000  O
  O21      1.0000 0.22670  0.85430  0.50100  Biso   1.000  O
  O22      1.0000 0.22670  0.64570  0.00100  Biso   1.000  O
  O23      1.0000 0.77330  0.14570  0.49900  Biso   1.000  O
  O24      1.0000 0.77330  0.35430  0.99900  Biso   1.000  O
  O25      1.0000 0.12520  0.62800  0.49170  Biso   1.000  O
  O26      1.0000 0.12520  0.87200  0.99170  Biso   1.000  O
  O27      1.0000 0.87480  0.37200  0.50830  Biso   1.000  O
  O28      1.0000 0.87480  0.12800  0.00830  Biso   1.000  O
  O29      1.0000 0.24629  0.64100  0.43758  Biso   1.000  O
  O30      1.0000 0.24629  0.85900  0.93758  Biso   1.000  O
  O31      1.0000 0.75371  0.35900  0.56242  Biso   1.000  O
  O32      1.0000 0.75371  0.14100  0.06242  Biso   1.000  O
  O33      1.0000 0.47542  0.30239  0.47392  Biso   1.000  O
  O34      1.0000 0.47542  0.19761  0.97392  Biso   1.000  O
  O35      1.0000 0.52458  0.69761  0.52608  Biso   1.000  O
  O36      1.0000 0.52458  0.80239  0.02608  Biso   1.000  O
  O37      1.0000 0.52197  0.25370  0.54374  Biso   1.000  O
  O38      1.0000 0.52197  0.24630  0.04374  Biso   1.000  O
  O39      1.0000 0.47803  0.74630  0.45626  Biso   1.000  O
  O40      1.0000 0.47803  0.75370  0.95626  Biso   1.000  O
  N1       1.0000 0.27089  0.82790  0.82057  Biso   1.000  N
  N2       1.0000 0.27089  0.67210  0.32057  Biso   1.000  N
  N3       1.0000 0.72911  0.17210  0.17943  Biso   1.000  N
  N4       1.0000 0.72911  0.32790  0.67943  Biso   1.000  N
  N5       1.0000 0.14321  0.95600  0.68155  Biso   1.000  N
  N6       1.0000 0.14321  0.54400  0.18155  Biso   1.000  N
  N7       1.0000 0.85679  0.04400  0.31845  Biso   1.000  N
  N8       1.0000 0.85679  0.45600  0.81845  Biso   1.000  N
  N9       1.0000 0.39182  0.59890  0.86776  Biso   1.000  N
  N10      1.0000 0.39182  0.90110  0.36776  Biso   1.000  N
  N11      1.0000 0.60818  0.40110  0.13224  Biso   1.000  N
  N12      1.0000 0.60818  0.09890  0.63224  Biso   1.000  N
  N13      1.0000 0.11003  0.79250  0.52580  Biso   1.000  N
  N14      1.0000 0.11003  0.70750  0.02580  Biso   1.000  N
  N15      1.0000 0.88997  0.20750  0.47420  Biso   1.000  N
  N16      1.0000 0.88997  0.29250  0.97420  Biso   1.000  N
  N17      1.0000 0.26879  0.68460  0.47610  Biso   1.000  N
  N18      1.0000 0.26879  0.81540  0.97610  Biso   1.000  N
  N19      1.0000 0.73121  0.31540  0.52390  Biso   1.000  N
  N20      1.0000 0.73121  0.18460  0.02390  Biso   1.000  N
  N21      1.0000 0.16040  0.86100  0.52520  Biso   1.000  N
  N22      1.0000 0.16040  0.63900  0.02520  Biso   1.000  N
  N23      1.0000 0.83960  0.13900  0.47480  Biso   1.000  N
  N24      1.0000 0.83960  0.36100  0.97480  Biso   1.000  N
  N25      1.0000 0.20340  0.60720  0.47850  Biso   1.000  N
  N26      1.0000 0.20340  0.89280  0.97850  Biso   1.000  N
  N27      1.0000 0.79660  0.39280  0.52150  Biso   1.000  N
  N28      1.0000 0.79660  0.10720  0.02150  Biso   1.000  N
  N29      1.0000 0.37554  0.63190  0.75513  Biso   1.000  N
  N30      1.0000 0.37554  0.86810  0.25513  Biso   1.000  N
  N31      1.0000 0.62446  0.36810  0.24487  Biso   1.000  N
  N32      1.0000 0.62446  0.13190  0.74487  Biso   1.000  N
  N33      1.0000 0.47218  0.31550  0.51491  Biso   1.000  N
  N34      1.0000 0.47218  0.18450  0.01491  Biso   1.000  N
  N35      1.0000 0.52782  0.68450  0.48509  Biso   1.000  N
  N36      1.0000 0.52782  0.81550  0.98509  Biso   1.000  N
  N37      1.0000 0.50838  0.34470  0.67959  Biso   1.000  N
  N38      1.0000 0.50838  0.15530  0.17959  Biso   1.000  N
  N39      1.0000 0.49162  0.65530  0.32041  Biso   1.000  N
  N40      1.0000 0.49162  0.84470  0.82041  Biso   1.000  N
  C1       1.0000 0.24034  0.77030  0.66220  Biso   1.000  C
  C2       1.0000 0.24034  0.72970  0.16220  Biso   1.000  C
  C3       1.0000 0.75966  0.22970  0.33780  Biso   1.000  C
  C4       1.0000 0.75966  0.27030  0.83780  Biso   1.000  C
  H1       1.0000 0.26370  0.76310  0.69330  Biso   1.000  H
  H2       1.0000 0.26370  0.73690  0.19330  Biso   1.000  H
  H3       1.0000 0.73630  0.23690  0.30670  Biso   1.000  H
  H4       1.0000 0.73630  0.26310  0.80670  Biso   1.000  H
  C5       1.0000 0.17543  0.86530  0.64769  Biso   1.000  C
  C6       1.0000 0.17543  0.63470  0.14769  Biso   1.000  C
  C7       1.0000 0.82457  0.13470  0.35231  Biso   1.000  C
  C8       1.0000 0.82457  0.36530  0.85231  Biso   1.000  C
  C9       1.0000 0.13624  0.87740  0.60274  Biso   1.000  C
  C10      1.0000 0.13624  0.62260  0.10274  Biso   1.000  C
  C11      1.0000 0.86376  0.12260  0.39726  Biso   1.000  C
  C12      1.0000 0.86376  0.37740  0.89726  Biso   1.000  C
  H5       1.0000 0.09010  0.94240  0.59420  Biso   1.000  H
  H6       1.0000 0.09010  0.55760  0.09420  Biso   1.000  H
  H7       1.0000 0.90990  0.05760  0.40580  Biso   1.000  H
  H8       1.0000 0.90990  0.44240  0.90580  Biso   1.000  H
  C13      1.0000 0.16643  0.79270  0.57113  Biso   1.000  C
  C14      1.0000 0.16643  0.70730  0.07113  Biso   1.000  C
  C15      1.0000 0.83357  0.20730  0.42887  Biso   1.000  C
  C16      1.0000 0.83357  0.29270  0.92887  Biso   1.000  C
  C17      1.0000 0.30084  0.58880  0.51179  Biso   1.000  C
  C18      1.0000 0.30084  0.91120  0.01179  Biso   1.000  C
  C19      1.0000 0.69916  0.41120  0.48821  Biso   1.000  C
  C20      1.0000 0.69916  0.08880  0.98821  Biso   1.000  C
  C21      1.0000 0.35700  0.49070  0.49743  Biso   1.000  C
  C22      1.0000 0.35700  0.00930  0.99743  Biso   1.000  C
  C23      1.0000 0.64300  0.50930  0.50257  Biso   1.000  C
  C24      1.0000 0.64300  0.99070  0.00257  Biso   1.000  C
  H9       1.0000 0.36070  0.47570  0.46610  Biso   1.000  H
  H10      1.0000 0.36070  0.02430  0.96610  Biso   1.000  H
  H11      1.0000 0.63930  0.52430  0.53390  Biso   1.000  H
  H12      1.0000 0.63930  0.97570  0.03390  Biso   1.000  H
  C25      1.0000 0.40814  0.41400  0.53013  Biso   1.000  C
  C26      1.0000 0.40814  0.08600  0.03013  Biso   1.000  C
  C27      1.0000 0.59186  0.58600  0.46987  Biso   1.000  C
  C28      1.0000 0.59186  0.91400  0.96987  Biso   1.000  C
  C29      1.0000 0.40629  0.43250  0.57592  Biso   1.000  C
  C30      1.0000 0.40629  0.06750  0.07592  Biso   1.000  C
  C31      1.0000 0.59371  0.56750  0.42408  Biso   1.000  C
  C32      1.0000 0.59371  0.93250  0.92408  Biso   1.000  C
  H13      1.0000 0.44370  0.38000  0.59730  Biso   1.000  H
  H14      1.0000 0.44370  0.12000  0.09730  Biso   1.000  H
  H15      1.0000 0.55630  0.62000  0.40270  Biso   1.000  H
  H16      1.0000 0.55630  0.88000  0.90270  Biso   1.000  H
  C33      1.0000 0.33658  0.57620  0.63569  Biso   1.000  C
  C34      1.0000 0.33658  0.92380  0.13569  Biso   1.000  C
  C35      1.0000 0.66342  0.42380  0.36431  Biso   1.000  C
  C36      1.0000 0.66342  0.07620  0.86431  Biso   1.000  C
  C37      1.0000 0.27110  0.68490  0.63008  Biso   1.000  C
  C38      1.0000 0.27110  0.81510  0.13008  Biso   1.000  C
  C39      1.0000 0.72890  0.31510  0.36992  Biso   1.000  C
  C40      1.0000 0.72890  0.18490  0.86992  Biso   1.000  C
  C41      1.0000 0.23718  0.69910  0.58270  Biso   1.000  C
  C42      1.0000 0.23718  0.80090  0.08270  Biso   1.000  C
  C43      1.0000 0.76282  0.30090  0.41730  Biso   1.000  C
  C44      1.0000 0.76282  0.19910  0.91730  Biso   1.000  C
  C45      1.0000 0.28966  0.60840  0.55763  Biso   1.000  C
  C46      1.0000 0.28966  0.89160  0.05763  Biso   1.000  C
  C47      1.0000 0.71034  0.39160  0.44237  Biso   1.000  C
  C48      1.0000 0.71034  0.10840  0.94237  Biso   1.000  C
  C49      1.0000 0.34762  0.53080  0.59026  Biso   1.000  C
  C50      1.0000 0.34762  0.96920  0.09026  Biso   1.000  C
  C51      1.0000 0.65238  0.46920  0.40974  Biso   1.000  C
  C52      1.0000 0.65238  0.03080  0.90974  Biso   1.000  C
  C53      1.0000 0.38568  0.53040  0.67653  Biso   1.000  C
  C54      1.0000 0.38568  0.96960  0.17653  Biso   1.000  C
  C55      1.0000 0.61432  0.46960  0.32347  Biso   1.000  C
  C56      1.0000 0.61432  0.03040  0.82347  Biso   1.000  C
  C57      1.0000 0.37854  0.58820  0.71970  Biso   1.000  C
  C58      1.0000 0.37854  0.91180  0.21970  Biso   1.000  C
  C59      1.0000 0.62146  0.41180  0.28030  Biso   1.000  C
  C60      1.0000 0.62146  0.08820  0.78030  Biso   1.000  C
  C61      1.0000 0.45334  0.42820  0.67791  Biso   1.000  C
  C62      1.0000 0.45334  0.07180  0.17791  Biso   1.000  C
  C63      1.0000 0.54666  0.57180  0.32209  Biso   1.000  C
  C64      1.0000 0.54666  0.92820  0.82209  Biso   1.000  C
  C65      1.0000 0.20754  0.89060  0.82617  Biso   1.000  C
  C66      1.0000 0.20754  0.60940  0.32617  Biso   1.000  C
  C67      1.0000 0.79246  0.10940  0.17383  Biso   1.000  C
  C68      1.0000 0.79246  0.39060  0.67383  Biso   1.000  C
  C69      1.0000 0.12538  0.96850  0.83359  Biso   1.000  C
  C70      1.0000 0.12538  0.53150  0.33359  Biso   1.000  C
  C71      1.0000 0.87462  0.03150  0.16641  Biso   1.000  C
  C72      1.0000 0.87462  0.46850  0.66641  Biso   1.000  C
  H17      1.0000 0.06900  0.93090  0.81650  Biso   1.000  H
  H18      1.0000 0.06900  0.56910  0.31650  Biso   1.000  H
  H19      1.0000 0.93100  0.06910  0.18350  Biso   1.000  H
  H20      1.0000 0.93100  0.43090  0.68350  Biso   1.000  H
  H21      1.0000 0.13430  0.05810  0.82330  Biso   1.000  H
  H22      1.0000 0.13430  0.44190  0.32330  Biso   1.000  H
  H23      1.0000 0.86570  0.94190  0.17670  Biso   1.000  H
  H24      1.0000 0.86570  0.55810  0.67670  Biso   1.000  H
  H25      1.0000 0.11730  0.96930  0.86590  Biso   1.000  H
  H26      1.0000 0.11730  0.53070  0.36590  Biso   1.000  H
  H27      1.0000 0.88270  0.03070  0.13410  Biso   1.000  H
  H28      1.0000 0.88270  0.46930  0.63410  Biso   1.000  H
  C73      1.0000 0.38858  0.54400  0.90087  Biso   1.000  C
  C74      1.0000 0.38858  0.95600  0.40087  Biso   1.000  C
  C75      1.0000 0.61142  0.45600  0.09913  Biso   1.000  C
  C76      1.0000 0.61142  0.04400  0.59913  Biso   1.000  C
  C77      1.0000 0.38640  0.47380  0.94359  Biso   1.000  C
  C78      1.0000 0.38640  0.02620  0.44359  Biso   1.000  C
  C79      1.0000 0.61360  0.52620  0.05641  Biso   1.000  C
  C80      1.0000 0.61360  0.97380  0.55641  Biso   1.000  C
  H29      1.0000 0.44190  0.41690  0.94870  Biso   1.000  H
  H30      1.0000 0.44190  0.08310  0.44870  Biso   1.000  H
  H31      1.0000 0.55810  0.58310  0.05130  Biso   1.000  H
  H32      1.0000 0.55810  0.91690  0.55130  Biso   1.000  H
  H33      1.0000 0.32880  0.42070  0.94210  Biso   1.000  H
  H34      1.0000 0.32880  0.07930  0.44210  Biso   1.000  H
  H35      1.0000 0.67120  0.57930  0.05790  Biso   1.000  H
  H36      1.0000 0.67120  0.92070  0.55790  Biso   1.000  H
  H37      1.0000 0.38680  0.53630  0.96860  Biso   1.000  H
  H38      1.0000 0.38680  0.96370  0.46860  Biso   1.000  H
  H39      1.0000 0.61320  0.46370  0.03140  Biso   1.000  H
  H40      1.0000 0.61320  0.03630  0.53140  Biso   1.000  H
  Cu5      1.0000 0.13552  0.28856  0.44172  Biso   1.000  Cu
  Cu6      1.0000 0.13552  0.21144  0.94172  Biso   1.000  Cu
  Cu7      1.0000 0.86448  0.71144  0.55828  Biso   1.000  Cu
  Cu8      1.0000 0.86448  0.78856  0.05828  Biso   1.000  Cu
  O41      1.0000 0.35672  0.04630  0.55046  Biso   1.000  O
  O42      1.0000 0.35672  0.45370  0.05046  Biso   1.000  O
  O43      1.0000 0.64328  0.95370  0.44954  Biso   1.000  O
  O44      1.0000 0.64328  0.54630  0.94954  Biso   1.000  O
  O45      1.0000 0.40840  0.92316  0.60715  Biso   1.000  O
  O46      1.0000 0.40840  0.57684  0.10715  Biso   1.000  O
  O47      1.0000 0.59160  0.07684  0.39285  Biso   1.000  O
  O48      1.0000 0.59160  0.42316  0.89285  Biso   1.000  O
  O49      1.0000 0.40235  0.08659  0.76023  Biso   1.000  O
  O50      1.0000 0.40235  0.41341  0.26023  Biso   1.000  O
  O51      1.0000 0.59765  0.91341  0.23977  Biso   1.000  O
  O52      1.0000 0.59765  0.58659  0.73977  Biso   1.000  O
  O53      1.0000 0.39117  0.29958  0.76211  Biso   1.000  O
  O54      1.0000 0.39117  0.20042  0.26211  Biso   1.000  O
  O55      1.0000 0.60883  0.70042  0.23789  Biso   1.000  O
  O56      1.0000 0.60883  0.79958  0.73789  Biso   1.000  O
  O57      1.0000 0.21722  0.21088  0.78067  Biso   1.000  O
  O58      1.0000 0.21722  0.28912  0.28067  Biso   1.000  O
  O59      1.0000 0.78278  0.78912  0.21933  Biso   1.000  O
  O60      1.0000 0.78278  0.71088  0.71933  Biso   1.000  O
  O61      1.0000 0.23827  0.37991  0.82534  Biso   1.000  O
  O62      1.0000 0.23827  0.12009  0.32534  Biso   1.000  O
  O63      1.0000 0.76173  0.62009  0.17466  Biso   1.000  O
  O64      1.0000 0.76173  0.87991  0.67466  Biso   1.000  O
  O65      1.0000 0.02878  0.73591  0.77507  Biso   1.000  O
  O66      1.0000 0.02878  0.76409  0.27507  Biso   1.000  O
  O67      1.0000 0.97122  0.26409  0.22493  Biso   1.000  O
  O68      1.0000 0.97122  0.23591  0.72493  Biso   1.000  O
  O69      1.0000 0.98980  0.76828  0.70313  Biso   1.000  O
  O70      1.0000 0.98980  0.73172  0.20313  Biso   1.000  O
  O71      1.0000 0.01020  0.23172  0.29687  Biso   1.000  O
  O72      1.0000 0.01020  0.26828  0.79687  Biso   1.000  O
  N41      1.0000 0.24998  0.32600  0.41021  Biso   1.000  N
  N42      1.0000 0.24998  0.17400  0.91021  Biso   1.000  N
  N43      1.0000 0.75002  0.67400  0.58979  Biso   1.000  N
  N44      1.0000 0.75002  0.82600  0.08979  Biso   1.000  N
  N45      1.0000 0.36760  0.02050  0.59111  Biso   1.000  N
  N46      1.0000 0.36760  0.47950  0.09111  Biso   1.000  N
  N47      1.0000 0.63240  0.97950  0.40889  Biso   1.000  N
  N48      1.0000 0.63240  0.52050  0.90889  Biso   1.000  N
  N49      1.0000 0.11385  0.10150  0.42519  Biso   1.000  N
  N50      1.0000 0.11385  0.39850  0.92519  Biso   1.000  N
  N51      1.0000 0.88615  0.89850  0.57481  Biso   1.000  N
  N52      1.0000 0.88615  0.60150  0.07481  Biso   1.000  N
  N53      1.0000 0.37594  0.19200  0.74374  Biso   1.000  N
  N54      1.0000 0.37594  0.30800  0.24374  Biso   1.000  N
  N55      1.0000 0.62406  0.80800  0.25626  Biso   1.000  N
  N56      1.0000 0.62406  0.69200  0.75626  Biso   1.000  N
  N57      1.0000 0.21797  0.32980  0.78802  Biso   1.000  N
  N58      1.0000 0.21797  0.17020  0.28802  Biso   1.000  N
  N59      1.0000 0.78203  0.67020  0.21198  Biso   1.000  N
  N60      1.0000 0.78203  0.82980  0.71198  Biso   1.000  N
  N61      1.0000 0.14871  0.33630  0.50693  Biso   1.000  N
  N62      1.0000 0.14871  0.16370  0.00693  Biso   1.000  N
  N63      1.0000 0.85129  0.66370  0.49307  Biso   1.000  N
  N64      1.0000 0.85129  0.83630  0.99307  Biso   1.000  N
  N65      1.0000 0.03271  0.70800  0.73522  Biso   1.000  N
  N66      1.0000 0.03271  0.79200  0.23522  Biso   1.000  N
  N67      1.0000 0.96729  0.29200  0.26478  Biso   1.000  N
  N68      1.0000 0.96729  0.20800  0.76478  Biso   1.000  N
  N69      1.0000 0.97632  0.59860  0.57658  Biso   1.000  N
  N70      1.0000 0.97632  0.90140  0.07658  Biso   1.000  N
  N71      1.0000 0.02368  0.40140  0.42342  Biso   1.000  N
  N72      1.0000 0.02368  0.09860  0.92342  Biso   1.000  N
  C81      1.0000 0.26656  0.20800  0.60482  Biso   1.000  C
  C82      1.0000 0.26656  0.29200  0.10482  Biso   1.000  C
  C83      1.0000 0.73344  0.79200  0.39518  Biso   1.000  C
  C84      1.0000 0.73344  0.70800  0.89518  Biso   1.000  C
  H41      1.0000 0.24870  0.21390  0.57310  Biso   1.000  H
  H42      1.0000 0.24870  0.28610  0.07310  Biso   1.000  H
  H43      1.0000 0.75130  0.78610  0.42690  Biso   1.000  H
  H44      1.0000 0.75130  0.71390  0.92690  Biso   1.000  H
  C85      1.0000 0.32882  0.11300  0.62243  Biso   1.000  C
  C86      1.0000 0.32882  0.38700  0.12243  Biso   1.000  C
  C87      1.0000 0.67118  0.88700  0.37757  Biso   1.000  C
  C88      1.0000 0.67118  0.61300  0.87757  Biso   1.000  C
  C89      1.0000 0.36079  0.10330  0.66844  Biso   1.000  C
  C90      1.0000 0.36079  0.39670  0.16844  Biso   1.000  C
  C91      1.0000 0.63921  0.89670  0.33156  Biso   1.000  C
  C92      1.0000 0.63921  0.60330  0.83156  Biso   1.000  C
  H45      1.0000 0.40500  0.03800  0.67930  Biso   1.000  H
  H46      1.0000 0.40500  0.46200  0.17930  Biso   1.000  H
  H47      1.0000 0.59500  0.96200  0.32070  Biso   1.000  H
  H48      1.0000 0.59500  0.53800  0.82070  Biso   1.000  H
  C93      1.0000 0.32582  0.19140  0.69756  Biso   1.000  C
  C94      1.0000 0.32582  0.30860  0.19756  Biso   1.000  C
  C95      1.0000 0.67418  0.80860  0.30244  Biso   1.000  C
  C96      1.0000 0.67418  0.69140  0.80244  Biso   1.000  C
  C97      1.0000 0.18849  0.41630  0.74944  Biso   1.000  C
  C98      1.0000 0.18849  0.08370  0.24944  Biso   1.000  C
  C99      1.0000 0.81151  0.58370  0.25056  Biso   1.000  C
  C100     1.0000 0.81151  0.91630  0.75056  Biso   1.000  C
  C101     1.0000 0.13590  0.52250  0.75987  Biso   1.000  C
  C102     1.0000 0.13590  0.97750  0.25987  Biso   1.000  C
  C103     1.0000 0.86410  0.47750  0.24013  Biso   1.000  C
  C104     1.0000 0.86410  0.02250  0.74013  Biso   1.000  C
  H49      1.0000 0.13020  0.54500  0.79050  Biso   1.000  H
  H50      1.0000 0.13020  0.95500  0.29050  Biso   1.000  H
  H51      1.0000 0.86980  0.45500  0.20950  Biso   1.000  H
  H52      1.0000 0.86980  0.04500  0.70950  Biso   1.000  H
  C105     1.0000 0.09130  0.59620  0.72452  Biso   1.000  C
  C106     1.0000 0.09130  0.90380  0.22452  Biso   1.000  C
  C107     1.0000 0.90870  0.40380  0.27548  Biso   1.000  C
  C108     1.0000 0.90870  0.09620  0.77548  Biso   1.000  C
  C109     1.0000 0.09514  0.56510  0.67949  Biso   1.000  C
  C110     1.0000 0.09514  0.93490  0.17949  Biso   1.000  C
  C111     1.0000 0.90486  0.43490  0.32051  Biso   1.000  C
  C112     1.0000 0.90486  0.06510  0.82051  Biso   1.000  C
  H53      1.0000 0.06150  0.61500  0.65600  Biso   1.000  H
  H54      1.0000 0.06150  0.88500  0.15600  Biso   1.000  H
  H55      1.0000 0.93850  0.38500  0.34400  Biso   1.000  H
  H56      1.0000 0.93850  0.11500  0.84400  Biso   1.000  H
  C113     1.0000 0.16488  0.40260  0.62562  Biso   1.000  C
  C114     1.0000 0.16488  0.09740  0.12562  Biso   1.000  C
  C115     1.0000 0.83512  0.59740  0.37438  Biso   1.000  C
  C116     1.0000 0.83512  0.90260  0.87438  Biso   1.000  C
  C117     1.0000 0.23057  0.29560  0.63492  Biso   1.000  C
  C118     1.0000 0.23057  0.20440  0.13492  Biso   1.000  C
  C119     1.0000 0.76943  0.70440  0.36508  Biso   1.000  C
  C120     1.0000 0.76943  0.79560  0.86508  Biso   1.000  C
  C121     1.0000 0.25785  0.28660  0.68305  Biso   1.000  C
  C122     1.0000 0.25785  0.21340  0.18305  Biso   1.000  C
  C123     1.0000 0.74215  0.71340  0.31695  Biso   1.000  C
  C124     1.0000 0.74215  0.78660  0.81695  Biso   1.000  C
  C125     1.0000 0.20364  0.38360  0.70469  Biso   1.000  C
  C126     1.0000 0.20364  0.11640  0.20469  Biso   1.000  C
  C127     1.0000 0.79636  0.61640  0.29531  Biso   1.000  C
  C128     1.0000 0.79636  0.88360  0.79531  Biso   1.000  C
  C129     1.0000 0.15033  0.45720  0.66943  Biso   1.000  C
  C130     1.0000 0.15033  0.04280  0.16943  Biso   1.000  C
  C131     1.0000 0.84967  0.54280  0.33057  Biso   1.000  C
  C132     1.0000 0.84967  0.95720  0.83057  Biso   1.000  C
  C133     1.0000 0.11751  0.43890  0.58321  Biso   1.000  C
  C134     1.0000 0.11751  0.06110  0.08321  Biso   1.000  C
  C135     1.0000 0.88249  0.56110  0.41679  Biso   1.000  C
  C136     1.0000 0.88249  0.93890  0.91679  Biso   1.000  C
  C137     1.0000 0.13533  0.38140  0.54133  Biso   1.000  C
  C138     1.0000 0.13533  0.11860  0.04133  Biso   1.000  C
  C139     1.0000 0.86467  0.61860  0.45867  Biso   1.000  C
  C140     1.0000 0.86467  0.88140  0.95867  Biso   1.000  C
  C141     1.0000 0.03955  0.52730  0.57930  Biso   1.000  C
  C142     1.0000 0.03955  0.97270  0.07930  Biso   1.000  C
  C143     1.0000 0.96045  0.47270  0.42070  Biso   1.000  C
  C144     1.0000 0.96045  0.02730  0.92070  Biso   1.000  C
  C145     1.0000 0.31535  0.32860  0.39115  Biso   1.000  C
  C146     1.0000 0.31535  0.17140  0.89115  Biso   1.000  C
  C147     1.0000 0.68465  0.67140  0.60885  Biso   1.000  C
  C148     1.0000 0.68465  0.82860  0.10885  Biso   1.000  C
  C149     1.0000 0.40010  0.33180  0.36773  Biso   1.000  C
  C150     1.0000 0.40010  0.16820  0.86773  Biso   1.000  C
  C151     1.0000 0.59990  0.66820  0.63227  Biso   1.000  C
  C152     1.0000 0.59990  0.83180  0.13227  Biso   1.000  C
  H57      1.0000 0.45560  0.34440  0.38990  Biso   1.000  H
  H58      1.0000 0.45560  0.15560  0.88990  Biso   1.000  H
  H59      1.0000 0.54440  0.65560  0.61010  Biso   1.000  H
  H60      1.0000 0.54440  0.84440  0.11010  Biso   1.000  H
  H61      1.0000 0.39590  0.40360  0.34580  Biso   1.000  H
  H62      1.0000 0.39590  0.09640  0.84580  Biso   1.000  H
  H63      1.0000 0.60410  0.59640  0.65420  Biso   1.000  H
  H64      1.0000 0.60410  0.90360  0.15420  Biso   1.000  H
  H65      1.0000 0.40590  0.24880  0.35180  Biso   1.000  H
  H66      1.0000 0.40590  0.25120  0.85180  Biso   1.000  H
  H67      1.0000 0.59410  0.75120  0.64820  Biso   1.000  H
  H68      1.0000 0.59410  0.74880  0.14820  Biso   1.000  H
  C153     1.0000 0.10730  0.99590  0.41269  Biso   1.000  C
  C154     1.0000 0.10730  0.50410  0.91269  Biso   1.000  C
  C155     1.0000 0.89270  0.00410  0.58731  Biso   1.000  C
  C156     1.0000 0.89270  0.49590  0.08731  Biso   1.000  C
  C157     1.0000 0.09790  0.86150  0.39652  Biso   1.000  C
  C158     1.0000 0.09790  0.63850  0.89652  Biso   1.000  C
  C159     1.0000 0.90210  0.13850  0.60348  Biso   1.000  C
  C160     1.0000 0.90210  0.36150  0.10348  Biso   1.000  C
  H69      1.0000 0.05490  0.85860  0.36840  Biso   1.000  H
  H70      1.0000 0.05490  0.64140  0.86840  Biso   1.000  H
  H71      1.0000 0.94510  0.14140  0.63160  Biso   1.000  H
  H72      1.0000 0.94510  0.35860  0.13160  Biso   1.000  H
  H73      1.0000 0.07250  0.80740  0.41960  Biso   1.000  H
  H74      1.0000 0.07250  0.69260  0.91960  Biso   1.000  H
  H75      1.0000 0.92750  0.19260  0.58040  Biso   1.000  H
  H76      1.0000 0.92750  0.30740  0.08040  Biso   1.000  H
  H77      1.0000 0.16010  0.82820  0.39080  Biso   1.000  H
  H78      1.0000 0.16010  0.67180  0.89080  Biso   1.000  H
  H79      1.0000 0.83990  0.17180  0.60920  Biso   1.000  H
  H80      1.0000 0.83990  0.32820  0.10920  Biso   1.000  H
