data_image0
_cell_length_a       4.9113
_cell_length_b       11.55
_cell_length_c       12.756
_cell_angle_alpha    85.23
_cell_angle_beta     85.84
_cell_angle_gamma    83.1

_symmetry_space_group_name_H-M    "P 1"
_symmetry_int_tables_number       1

loop_
  _symmetry_equiv_pos_as_xyz
  'x, y, z'

loop_
  _atom_site_label
  _atom_site_occupancy
  _atom_site_fract_x
  _atom_site_fract_y
  _atom_site_fract_z
  _atom_site_thermal_displace_type
  _atom_site_B_iso_or_equiv
  _atom_site_type_symbol
  La1      1.0000 0.52472  0.17402  0.69158  Biso   1.000  La
  La2      1.0000 0.47528  0.82598  0.30842  Biso   1.000  La
  N1       1.0000 0.80030  0.71580  0.89290  Biso   1.000  N
  N2       1.0000 0.19970  0.28420  0.10710  Biso   1.000  N
  N3       1.0000 0.30170  0.60990  0.72980  Biso   1.000  N
  N4       1.0000 0.69830  0.39010  0.27020  Biso   1.000  N
  C1       1.0000 0.07990  0.00170  0.82260  Biso   1.000  C
  C2       1.0000 0.92010  0.99830  0.17740  Biso   1.000  C
  C3       1.0000 0.03380  0.88790  0.88360  Biso   1.000  C
  C4       1.0000 0.96620  0.11210  0.11640  Biso   1.000  C
  C5       1.0000 0.18970  0.84000  0.96670  Biso   1.000  C
  C6       1.0000 0.81030  0.16000  0.03330  Biso   1.000  C
  H1       1.0000 0.31690  0.88220  0.99240  Biso   1.000  H
  H2       1.0000 0.68310  0.11780  0.00760  Biso   1.000  H
  H3       1.0000 0.93080  0.59690  0.00360  Biso   1.000  H
  H4       1.0000 0.06920  0.40310  0.99640  Biso   1.000  H
  H5       1.0000 0.73630  0.85670  0.79500  Biso   1.000  H
  H6       1.0000 0.26370  0.14330  0.20500  Biso   1.000  H
  H7       1.0000 0.75280  0.58290  0.55160  Biso   1.000  H
  H8       1.0000 0.24720  0.41710  0.44840  Biso   1.000  H
  H9       1.0000 0.30680  0.76500  0.65350  Biso   1.000  H
  H10      1.0000 0.69320  0.23500  0.34650  Biso   1.000  H
  H11      1.0000 0.24380  0.44820  0.77740  Biso   1.000  H
  H12      1.0000 0.75620  0.55180  0.22260  Biso   1.000  H
  C7       1.0000 0.15400  0.72910  0.01080  Biso   1.000  C
  C8       1.0000 0.84600  0.27090  0.98920  Biso   1.000  C
  C9       1.0000 0.95720  0.67100  0.97270  Biso   1.000  C
  C10      1.0000 0.04280  0.32900  0.02730  Biso   1.000  C
  C11      1.0000 0.84200  0.82410  0.84980  Biso   1.000  C
  C12      1.0000 0.15800  0.17590  0.15020  Biso   1.000  C
  C13      1.0000 0.32320  0.66730  0.09660  Biso   1.000  C
  C14      1.0000 0.67680  0.33270  0.90340  Biso   1.000  C
  C15      1.0000 0.88030  0.37900  0.66590  Biso   1.000  C
  C16      1.0000 0.11970  0.62100  0.33410  Biso   1.000  C
  C17      1.0000 0.98620  0.49550  0.66260  Biso   1.000  C
  C18      1.0000 0.01380  0.50450  0.33740  Biso   1.000  C
  C19      1.0000 0.89670  0.58820  0.59370  Biso   1.000  C
  C20      1.0000 0.10330  0.41180  0.40630  Biso   1.000  C
  C21      1.0000 0.02490  0.68920  0.58830  Biso   1.000  C
  C22      1.0000 0.97510  0.31080  0.41170  Biso   1.000  C
  C23      1.0000 0.22260  0.69670  0.65710  Biso   1.000  C
  C24      1.0000 0.77740  0.30330  0.34290  Biso   1.000  C
  C25      1.0000 0.18640  0.51040  0.72980  Biso   1.000  C
  C26      1.0000 0.81360  0.48960  0.27020  Biso   1.000  C
  C27      1.0000 0.94430  0.78960  0.50820  Biso   1.000  C
  C28      1.0000 0.05570  0.21040  0.49180  Biso   1.000  C
  O1       1.0000 0.91040  0.03970  0.75450  Biso   1.000  O
  O2       1.0000 0.08960  0.96030  0.24550  Biso   1.000  O
  O3       1.0000 0.28730  0.04940  0.83740  Biso   1.000  O
  O4       1.0000 0.71270  0.95060  0.16260  Biso   1.000  O
  O5       1.0000 0.32900  0.56000  0.10900  Biso   1.000  O
  O6       1.0000 0.67100  0.44000  0.89100  Biso   1.000  O
  O7       1.0000 0.46080  0.72920  0.14630  Biso   1.000  O
  O8       1.0000 0.53920  0.27080  0.85370  Biso   1.000  O
  O9       1.0000 0.02580  0.29000  0.70430  Biso   1.000  O
  O10      1.0000 0.97420  0.71000  0.29570  Biso   1.000  O
  O11      1.0000 0.65300  0.37400  0.62810  Biso   1.000  O
  O12      1.0000 0.34700  0.62600  0.37190  Biso   1.000  O
  O13      1.0000 0.70270  0.79890  0.48060  Biso   1.000  O
  O14      1.0000 0.29730  0.20110  0.51940  Biso   1.000  O
  O15      1.0000 0.12330  0.85640  0.47260  Biso   1.000  O
  O16      1.0000 0.87670  0.14360  0.52740  Biso   1.000  O
  O17      1.0000 0.43190  0.97020  0.62240  Biso   1.000  O
  O18      1.0000 0.56810  0.02980  0.37760  Biso   1.000  O
  Cu1      1.0000 0.56760  0.62461  0.82869  Biso   1.000  Cu
  Cu2      1.0000 0.43240  0.37539  0.17131  Biso   1.000  Cu
